#------------------------------------------------------------------------------
#$Date: 2021-10-03 22:10:37 +0300 (Sun, 03 Oct 2021) $
#$Revision: 269469 $
#$URL: file:///home/coder/svn-repositories/cod/cif/4/51/90/4519042.cif $
#------------------------------------------------------------------------------
#
# This file is available in the Crystallography Open Database (COD),
# http://www.crystallography.net/
#
# All data on this site have been placed in the public domain by the
# contributors.
#
data_4519042
loop_
_publ_author_name
'Khan, Sheeba'
'Mandal, Sanjay K.'
_publ_section_title
;
 Luminescent 2D Pillared-Bilayer Metal-Organic Coordination Networks for
 Selective Sensing of ReO<sub>4</sub><sup>-</sup> in Water.
;
_journal_issue                   38
_journal_name_full               'ACS applied materials &amp; interfaces'
_journal_page_first              45465
_journal_page_last               45474
_journal_paper_doi               10.1021/acsami.1c11606
_journal_volume                  13
_journal_year                    2021
_chemical_formula_moiety         'C27 H22 Cu N6 O5, 2(H2 O), 2(C H4 O)'
_chemical_formula_sum            'C29 H34 Cu N6 O9'
_chemical_formula_weight         674.13
_space_group_crystal_system      triclinic
_space_group_IT_number           2
_space_group_name_Hall           '-P 1'
_space_group_name_H-M_alt        'P -1'
_atom_sites_solution_hydrogens   geom
_atom_sites_solution_primary     dual
_audit_creation_date             2020-05-06
_audit_creation_method
;
Olex2 1.2
(compiled 2018.05.29 svn.r3508 for OlexSys, GUI svn.r5506)
;
_cell_angle_alpha                66.568(2)
_cell_angle_beta                 89.136(3)
_cell_angle_gamma                77.055(2)
_cell_formula_units_Z            2
_cell_length_a                   8.5562(11)
_cell_length_b                   13.0648(17)
_cell_length_c                   15.133(2)
_cell_measurement_reflns_used    5363
_cell_measurement_temperature    100.15
_cell_measurement_theta_max      22.54
_cell_measurement_theta_min      2.45
_cell_volume                     1507.5(3)
_computing_cell_refinement       'SAINT v8.34A (Bruker, 2013)'
_computing_data_collection       'APEX2 2013.4_1 (Bruker AXS Inc., 2013)'
_computing_data_reduction        'SAINT v8.34A (Bruker, 2013)'
_computing_molecular_graphics    'Olex2 (Dolomanov et al., 2009)'
_computing_publication_material  'Olex2 (Dolomanov et al., 2009)'
_computing_structure_refinement  'ShelXL (Sheldrick, 2015)'
_computing_structure_solution    'ShelXT (Sheldrick, 2015)'
_diffrn_ambient_temperature      100.15
_diffrn_detector                 'CCD area detector'
_diffrn_detector_area_resol_mean 8
_diffrn_detector_type            'APEX II CCD 4K area detector'
_diffrn_measured_fraction_theta_full 0.996
_diffrn_measured_fraction_theta_max 0.996
_diffrn_measurement_device       'four-circle diffractometer'
_diffrn_measurement_device_type  'Bruker Kappa APEX II'
_diffrn_measurement_method       '\f and \w scans'
_diffrn_radiation_monochromator  graphite
_diffrn_radiation_probe          x-ray
_diffrn_radiation_type           MoK\a
_diffrn_radiation_wavelength     0.71073
_diffrn_reflns_av_R_equivalents  0.1036
_diffrn_reflns_av_unetI/netI     0.0789
_diffrn_reflns_Laue_measured_fraction_full 0.996
_diffrn_reflns_Laue_measured_fraction_max 0.996
_diffrn_reflns_limit_h_max       10
_diffrn_reflns_limit_h_min       -10
_diffrn_reflns_limit_k_max       15
_diffrn_reflns_limit_k_min       -15
_diffrn_reflns_limit_l_max       18
_diffrn_reflns_limit_l_min       -18
_diffrn_reflns_number            28455
_diffrn_reflns_point_group_measured_fraction_full 0.996
_diffrn_reflns_point_group_measured_fraction_max 0.996
_diffrn_reflns_theta_full        25.102
_diffrn_reflns_theta_max         25.102
_diffrn_reflns_theta_min         2.651
_diffrn_source                   'sealed X-ray tube'
_diffrn_source_target            Mo
_exptl_absorpt_coefficient_mu    0.789
_exptl_absorpt_correction_T_max  0.7452
_exptl_absorpt_correction_T_min  0.6512
_exptl_absorpt_correction_type   multi-scan
_exptl_absorpt_process_details
'SADABS-2014/5 (Bruker,2014/5) was used for absorption correction.'
_exptl_crystal_colour            'clear light brown'
_exptl_crystal_colour_lustre     clear
_exptl_crystal_colour_modifier   light
_exptl_crystal_colour_primary    brown
_exptl_crystal_density_diffrn    1.485
_exptl_crystal_description       plate
_exptl_crystal_F_000             702
_exptl_crystal_size_max          0.23
_exptl_crystal_size_mid          0.18
_exptl_crystal_size_min          0.13
_refine_diff_density_max         0.685
_refine_diff_density_min         -0.730
_refine_diff_density_rms         0.082
_refine_ls_extinction_method     none
_refine_ls_goodness_of_fit_ref   0.967
_refine_ls_hydrogen_treatment    constr
_refine_ls_matrix_type           full
_refine_ls_number_parameters     352
_refine_ls_number_reflns         5357
_refine_ls_number_restraints     0
_refine_ls_restrained_S_all      0.967
_refine_ls_R_factor_all          0.0683
_refine_ls_R_factor_gt           0.0481
_refine_ls_shift/su_max          0.000
_refine_ls_shift/su_mean         0.000
_refine_ls_structure_factor_coef Fsqd
_refine_ls_weighting_details
'w=1/[\s^2^(Fo^2^)+(0.0713P)^2^] where P=(Fo^2^+2Fc^2^)/3'
_refine_ls_weighting_scheme      calc
_refine_ls_wR_factor_gt          0.1211
_refine_ls_wR_factor_ref         0.1282
_reflns_Friedel_coverage         0.000
_reflns_number_gt                3864
_reflns_number_total             5357
_reflns_threshold_expression     'I > 2\s(I)'
_cod_data_source_file            am1c11606_si_002.cif
_cod_data_source_block           1
_cod_database_code               4519042
_shelx_shelxl_version_number     2014/7
_shelx_space_group_comment
;
The symmetry employed for this shelxl refinement is uniquely defined
by the following loop, which should always be used as a source of
symmetry information in preference to the above space-group names.
They are only intended as comments.
;
_shelx_estimated_absorpt_t_max   0.862
_shelx_estimated_absorpt_t_min   0.862
_olex2_refinement_description
;
1. Fixed Uiso
 At 1.2 times of:
  All C(H) groups, All C(H,H) groups, All N(H) groups
2.a Secondary CH2 refined with riding coordinates:
 C16(H16A,H16B), C21(H21A,H21B)
2.b Aromatic/amide H refined with riding coordinates:
 N4(H4), N5(H5), C1(H1), C2(H2), C9(H9), C10(H10), C11(H11), C13(H13),
 C14(H14), C15(H15), C18(H18), C19(H19), C20(H20), C22(H22), C23(H23), C25(H25),
  C26(H26), C27(H27)
;
_shelx_res_file
;
    sbk_3cu_azpy_100k_0m.res created by SHELXL-2014/7

TITL sbk_3cu_azpy_100k_0m_a in P-1
REM Old TITL sbk_3cu_azpy_100k_0m_a.res in P-1
REM SHELXT solution in P-1
REM R1 0.177, Rweak 0.012, Alpha 0.060, Orientation as input
REM Formula found by SHELXT: C27 Cu N7 O6
CELL 0.71073 8.5562 13.0648 15.1334 66.568 89.136 77.055
ZERR 2 0.0011 0.0017 0.002 0.002 0.003 0.002
LATT 1
SFAC C H Cu N O
UNIT 54 44 2 12 10

L.S. 10
PLAN  5
SIZE 0.2 0.2 0.2
TEMP -173
list 4
ABIN
fmap 2 53
acta
OMIT 0 1 0
OMIT 0 0 1
OMIT 0 1 1
OMIT 0 0 2
OMIT 1 0 0
REM <olex2.extras>
REM <HklSrc "%.\\sbk_3Cu_azpy_100k_0m.hkl">
REM </olex2.extras>

WGHT    0.071300
FVAR       0.44797
CU1   3    0.551003    0.102225    0.862586    11.00000    0.02928    0.00948 =
         0.02489   -0.01235    0.00755   -0.00877
O1    5    0.267837    0.894825    0.221655    11.00000    0.03728    0.01369 =
         0.01880   -0.00932    0.00721   -0.00889
O2    5    0.270115   -0.014277    1.009422    11.00000    0.03229    0.01241 =
         0.02764   -0.01059    0.00334   -0.00786
O3    5    0.329136    0.137020    0.888521    11.00000    0.03218    0.01399 =
         0.04148   -0.01580    0.01427   -0.01261
O4    5    0.035630    0.270245    0.982670    11.00000    0.03828    0.01722 =
         0.01978   -0.00674    0.00251   -0.00590
O5    5    0.476423    0.800931    0.331645    11.00000    0.03930    0.03164 =
         0.03449   -0.01509    0.00747   -0.00023
N1    4    0.467550    0.661673    0.815987    11.00000    0.03405    0.01520 =
         0.03926   -0.01758    0.00502   -0.00927
N2    4    0.548797    0.571057    0.880071    11.00000    0.03274    0.01308 =
         0.03576   -0.01588    0.00495   -0.01005
N3    4    0.554292    0.256343    0.864379    11.00000    0.02457    0.01295 =
         0.02575   -0.01042    0.00892   -0.00798
N4    4    0.019734    0.249839    0.841992    11.00000    0.03676    0.01481 =
         0.01683   -0.00529   -0.00264   -0.00749
AFIX  43
H4    2   -0.003933    0.281755    0.779045    11.00000   -1.20000
AFIX   0
N5    4   -0.039820    0.793867    0.705576    11.00000    0.07491    0.01625 =
         0.01692   -0.00914    0.00922   -0.01501
AFIX  43
H5    2   -0.010601    0.827867    0.740257    11.00000   -1.20000
AFIX   0
N6    4    0.521108    0.958256    0.849386    11.00000    0.02406    0.01470 =
         0.02586   -0.01290    0.00297   -0.00715
C1    1    0.631309    0.857720    0.892028    11.00000    0.02431    0.01702 =
         0.02231   -0.01098    0.00363   -0.00852
AFIX  43
H1    2    0.720657    0.855117    0.930037    11.00000   -1.20000
AFIX   0
C2    1    0.047731    0.500410    0.888277    11.00000    0.03392    0.02021 =
         0.01707   -0.00809    0.00232   -0.00479
AFIX  43
H2    2    0.086954    0.460572    0.954400    11.00000   -1.20000
AFIX   0
C3    1    0.540194    0.468361    0.869705    11.00000    0.02991    0.01334 =
         0.03247   -0.01548    0.00863   -0.00869
C4    1    0.007811    0.438668    0.838128    11.00000    0.02914    0.01538 =
         0.02027   -0.00856    0.00852   -0.00839
C5    1   -0.023670    0.677741    0.747266    11.00000    0.04486    0.01688 =
         0.01997   -0.01058    0.01544   -0.01136
C6    1    0.491647    0.760940    0.829611    11.00000    0.03131    0.01228 =
         0.02698   -0.01210    0.00575   -0.01068
C7    1    0.233596    0.077165    0.936275    11.00000    0.03300    0.01461 =
         0.02577   -0.01766    0.00599   -0.01070
C8    1    0.023037    0.313564    0.893473    11.00000    0.02490    0.01717 =
         0.02760   -0.01058    0.00413   -0.00753
C9    1    0.394957    0.959330    0.796959    11.00000    0.03274    0.01474 =
         0.03061   -0.01279   -0.00066   -0.00374
AFIX  43
H9    2    0.316074    1.029417    0.766742    11.00000   -1.20000
AFIX   0
C10   1    0.031697    0.616720    0.844473    11.00000    0.04433    0.02045 =
         0.02372   -0.01510    0.00744   -0.01052
AFIX  43
H10   2    0.058591    0.656232    0.880717    11.00000   -1.20000
AFIX   0
C11   1    0.620311    0.758773    0.883027    11.00000    0.03067    0.01108 =
         0.02528   -0.01050    0.00297   -0.00742
AFIX  43
H11   2    0.701217    0.689893    0.913595    11.00000   -1.20000
AFIX   0
C12   1    0.218287    0.843533    0.387422    11.00000    0.04659    0.01253 =
         0.02070   -0.00730    0.00663   -0.00899
C13   1   -0.043652    0.498226    0.741887    11.00000    0.05579    0.01852 =
         0.02295   -0.01147    0.00097   -0.01117
AFIX  43
H13   2   -0.067884    0.457747    0.705828    11.00000   -1.20000
AFIX   0
C14   1    0.433872    0.458691    0.807261    11.00000    0.04302    0.01466 =
         0.04199   -0.01360   -0.00638   -0.00669
AFIX  43
H14   2    0.355705    0.523811    0.765307    11.00000   -1.20000
AFIX   0
C15   1    0.653025    0.266957    0.926031    11.00000    0.02594    0.01750 =
         0.03306   -0.01442    0.00813   -0.00905
AFIX  43
H15   2    0.729584    0.200543    0.967728    11.00000   -1.20000
AFIX   0
C16   1   -0.103092    0.862495    0.606736    11.00000    0.06447    0.01580 =
         0.02330   -0.00953    0.01311   -0.00848
AFIX  23
H16A  2   -0.133647    0.944150    0.597094    11.00000   -1.20000
H16B  2   -0.202185    0.840801    0.595317    11.00000   -1.20000
AFIX   0
C17   1    0.012154    0.850771    0.531924    11.00000    0.05014    0.01129 =
         0.02054   -0.00575    0.01012   -0.00808
C18   1    0.648419    0.370973    0.931709    11.00000    0.02662    0.02122 =
         0.03401   -0.01901    0.00495   -0.00969
AFIX  43
H18   2    0.718653    0.375120    0.977556    11.00000   -1.20000
AFIX   0
C19   1    0.052425    0.873646    0.367615    11.00000    0.05121    0.03644 =
         0.02197   -0.01549    0.00752   -0.02110
AFIX  43
H19   2    0.008175    0.892590    0.304320    11.00000   -1.20000
AFIX   0
C20   1    0.373929    0.863818    0.784684    11.00000    0.03241    0.02430 =
         0.03379   -0.01965   -0.00371   -0.00680
AFIX  43
H20   2    0.283054    0.867648    0.747180    11.00000   -1.20000
AFIX   0
C21   1    0.057401    0.125428    0.896082    11.00000    0.03237    0.01289 =
         0.02720   -0.00988   -0.00008   -0.00957
AFIX  23
H21A  2    0.034012    0.088996    0.853196    11.00000   -1.20000
H21B  2   -0.012453    0.105930    0.950187    11.00000   -1.20000
AFIX   0
C22   1    0.444808    0.351314    0.807748    11.00000    0.04307    0.02062 =
         0.03555   -0.01592   -0.00366   -0.01052
AFIX  43
H22   2    0.370716    0.344161    0.765654    11.00000   -1.20000
AFIX   0
C23   1   -0.049504    0.876362    0.439388    11.00000    0.04250    0.02926 =
         0.02579   -0.01062    0.00779   -0.01386
AFIX  43
H23   2   -0.162713    0.895972    0.424901    11.00000   -1.20000
AFIX   0
C24   1    0.330316    0.844191    0.310184    11.00000    0.04359    0.01111 =
         0.03128   -0.01323    0.00982   -0.01011
C25   1    0.175818    0.817709    0.552414    11.00000    0.05482    0.02925 =
         0.02016   -0.01014   -0.00267    0.00294
AFIX  43
H25   2    0.219236    0.796875    0.616279    11.00000   -1.20000
AFIX   0
C26   1    0.279888    0.814071    0.481235    11.00000    0.04161    0.03293 =
         0.02777   -0.01063    0.00319   -0.00036
AFIX  43
H26   2    0.392970    0.791448    0.496829    11.00000   -1.20000
AFIX   0
C27   1   -0.061128    0.616049    0.696020    11.00000    0.07385    0.02078 =
         0.01524   -0.00717    0.00098   -0.01284
AFIX  43
H27   2   -0.098630    0.655250    0.629591    11.00000   -1.20000
AFIX   0
HKLF 4

REM  sbk_3cu_azpy_100k_0m_a in P-1
REM R1 =  0.0481 for    3864 Fo > 4sig(Fo)  and  0.0683 for all    5357 data
REM    352 parameters refined using      0 restraints

END

WGHT      0.0710      0.0000

REM Highest difference peak  0.685,  deepest hole -0.730,  1-sigma level  0.082
Q1    1   0.5392  0.1400  0.7797  11.00000  0.05    0.69
Q2    1   0.5754  0.1222  0.7942  11.00000  0.05    0.55
Q3    1  -0.0030  0.9008  0.8416  11.00000  0.05    0.53
Q4    1   0.3532  0.9398  0.7164  11.00000  0.05    0.49
Q5    1   0.7703  0.2564  0.9917  11.00000  0.05    0.49
;
_shelx_res_checksum              23942
_shelx_hkl_file
;
   0   0  -1    1.04    0.91
   0   0  -1    0.33    0.85
   0   0  -1   -0.59    0.72
   0   0  -1    0.91    1.04
   0   0  -1   -0.85    0.65
   0   0   1    0.00    0.91
   0   0   1   -0.20    0.98
   0   0   1    0.46    0.65
   0   0   1    0.98    0.85
   0   0   1    0.07    0.59
   0   0  -2  140.46    6.63
   0   0  -2  123.75    6.63
   0   0  -2  140.33    6.31
   0   0  -2  126.42    5.46
   0   0  -2  125.44    7.02
   0   0  -2  105.09    6.24
   0   0   2  125.12    6.50
   0   0   2  127.33    6.50
   0   0   2  118.68    5.20
   0   0   2  119.72    6.50
   0   0   2   88.24    6.24
   0   0   2  136.04    6.89
   0   0  -3 4445.84   38.04
   0   0  -3 4395.05   38.43
   0   0  -3 4296.34   36.16
   0   0  -3 4284.51   32.32
   0   0  -3 4177.53   38.82
   0   0  -3 4370.02   39.34
   0   0   3 4230.60   37.20
   0   0   3 4183.78   36.74
   0   0   3 4284.25   32.51
   0   0   3 4162.97   38.24
   0   0   3 4237.49   38.89
   0   0   3 4418.21   39.28
   0   0  -4 2346.31   33.10
   0   0  -4 2216.84   27.12
   0   0  -4 2157.66   33.03
   0   0  -4 2220.61   32.97
   0   0   4 2203.71   31.73
   0   0   4 2259.37   27.83
   0   0   4 2204.88   32.90
   0   0   4 2195.77   33.23
   0   0  -5  258.43   14.70
   0   0  -5  248.09   15.02
   0   0  -5  264.15   14.57
   0   0   5  238.07   13.79
   0   0   5  238.66   12.03
   0   0   5  259.47   15.35
   0   0  -6  602.88   22.37
   0   0  -6  559.84   22.37
   0   0  -6  562.63   21.78
   0   0   6  565.62   21.26
   0   0   6  607.50   19.05
   0   0   6  575.38   22.50
   0   0  -7  786.85   27.38
   0   0  -7  687.94   26.66
   0   0  -7  686.38   25.69
   0   0   7  692.69   24.97
   0   0   7  726.50   22.50
   0   0   7  715.19   26.73
   0   0  -8  340.10   20.81
   0   0  -8  306.29   20.68
   0   0   8  315.07   19.51
   0   0   8  354.02   18.08
   0   0   8  349.60   21.33
   0   0  -9   82.91   14.44
   0   0  -9   92.41   15.67
   0   0   9   81.22   13.79
   0   0   9   84.93   12.10
   0   0   9   91.82   15.28
   0   0 -10   35.77   12.68
   0   0 -10   39.02   12.68
   0   0  10   24.71   10.53
   0   0  10   37.91   10.66
   0   0  10   35.31   11.84
   0   0 -11   91.50   18.66
   0   0 -11   90.52   18.34
   0   0  11   72.18   15.22
   0   0  11   92.21   15.22
   0   0 -12   56.84   17.17
   0   0 -12   73.68   18.01
   0   0  12   76.93   17.30
   0   0  12   61.45   14.63
   0   0 -13   67.44   18.66
   0   0 -13   38.89   15.87
   0   0  13   25.17   13.92
   0   0  13   29.98   13.07
   0   0 -14   25.88   17.95
   0   0 -14   29.33   16.39
   0   0  14    1.82   12.03
   0   0  14   22.89   13.59
   0   0 -15   44.28   20.48
   0   0  15   39.34   17.82
   0   0  15   12.49   14.50
   0   0 -16   10.21   20.94
   0   0  16    5.01   15.87
   0   0  16   12.55   16.26
   0  -1  15    6.05   13.98
   0  -1  15   -0.72   21.26
   0   1 -15    4.10   17.56
   0  -1  14  112.11   21.52
   0  -1  14   28.61   14.57
   0   1 -14  130.71   26.14
   0   1 -14  104.31   24.00
   0  -1  13  164.26   23.22
   0  -1  13   18.01   15.28
   0  -1  13  140.20   20.94
   0   1 -13  188.52   27.64
   0   1 -13  163.42   25.95
   0  -1  12   13.07   11.19
   0  -1  12    2.60    9.30
   0  -1  12   11.90   11.12
   0   1 -12    5.33   13.46
   0   1 -12    3.97   11.90
   0  -1  11   56.64   13.92
   0  -1  11    0.91    8.32
   0  -1  11   68.87   14.70
   0   1 -11   70.17   17.43
   0   1 -11   51.37   15.48
   0  -1  10  253.22   20.61
   0  -1  10    1.63    7.22
   0  -1  10  224.35   19.64
   0   1 -10  247.24   23.09
   0   1 -10  212.06   22.24
   0  -1   9   52.48   11.77
   0  -1   9    0.07    6.63
   0  -1   9   57.94   12.29
   0  -1   9   25.49   10.27
   0   1  -9   65.74   13.92
   0   1  -9   50.92   13.33
   0   1  -9   50.85   12.75
   0  -1   8  169.73   15.74
   0  -1   8   -1.50    5.27
   0  -1   8  168.88   15.54
   0  -1   8  180.59   17.17
   0   1  -8  188.32   17.62
   0   1  -8  174.21   17.62
   0   1  -8  159.39   16.19
   0  -1   7   77.25   11.84
   0  -1   7    0.72    5.27
   0  -1   7   74.46   11.38
   0  -1   7   64.38   11.77
   0   1  -7   74.91   12.55
   0   1  -7   56.77   11.38
   0   1  -7   73.29   12.10
   0  -1   6   50.33    9.49
   0  -1   6   -8.84    5.07
   0  -1   6   42.85    8.91
   0  -1   6   51.31    9.75
   0   1  -6   42.53    9.56
   0   1  -6   40.77    9.75
   0   1  -6   43.24    8.97
   0  -1   5  431.21   17.43
   0  -1   5   -4.03    4.29
   0  -1   5  429.91   17.36
   0  -1   5  403.57   18.01
   0   1  -5  455.53   18.92
   0   1  -5  412.74   18.73
   0   1  -5  430.75   18.40
   0  -1   4  906.31   21.39
   0  -1   4   -7.28    3.71
   0  -1   4  855.85   21.07
   0  -1   4  805.39   21.39
   0   1  -4  919.90   22.37
   0   1  -4  869.70   22.76
   0   1  -4  893.69   22.63
   0  -1   3 1051.59   20.09
   0  -1   3 1038.06   19.83
   0  -1   3    8.06    4.16
   0  -1   3 1062.25   21.00
   0  -1   3 1047.62   22.83
   0   1  -3 1103.22   22.96
   0   1  -3 1091.64   21.07
   0   1  -3 1059.19   20.48
   0   1  -3  965.36   20.87
   0   1  -3 1067.26   21.59
   0   1  -3 1076.95   22.96
   0  -1   2  123.49    7.28
   0  -1   2  118.87    7.28
   0  -1   2   70.23    6.44
   0  -1   2  117.57    7.93
   0  -1   2  112.70    7.67
   0  -1   2    0.26    0.91
   0  -1   2  126.42    8.45
   0   1  -2  129.28    7.54
   0   1  -2  120.37    7.61
   0   1  -2    0.20    2.34
   0   1  -2  119.39    7.61
   0   1  -2  111.13    7.93
   0   1  -2  113.48    7.87
   0   1  -2  128.11    8.58
   0  -1   1   73.68    4.23
   0  -1   1   63.08    4.03
   0  -1   1   77.45    5.07
   0  -1   1   50.98    4.75
   0  -1   1   68.22    3.58
   0  -1   1   61.19    4.36
   0  -1   1   71.92    5.33
   0   1  -1   17.10    2.67
   0   1  -1    2.08    1.76
   0   1  -1   30.95    3.51
   0   1  -1   71.60    5.14
   0   1  -1   11.19    1.69
   0   1  -1   40.90    4.10
   0   1  -1    1.63    1.89
   0   1  -1   15.67    3.25
   0   1   0    0.39    0.65
   0   1   0   -0.46    0.52
   0   1   0   -1.30    0.98
   0   1   0    0.39    0.65
   0   1   0    0.59    0.72
   0  -1  -1   -0.07    1.11
   0  -1  -1    1.89    1.17
   0  -1  -1    0.65    0.65
   0   1   1    0.33    0.65
   0   1   1    0.07    0.72
   0   1   1    0.33    1.04
   0   1   1    0.91    0.78
   0   1   1    0.13    0.65
   0   1   1   -0.26    0.98
   0   1   1    0.07    0.72
   0   1   1    0.13    1.04
   0  -1  -2  235.34    7.48
   0  -1  -2  227.54    7.54
   0  -1  -2  253.68    6.96
   0  -1  -2  111.92    5.20
   0  -1  -2   -1.56    1.43
   0  -1  -2  148.59    6.44
   0   1   2  214.99    7.28
   0   1   2  228.77    6.96
   0   1   2  214.66    7.80
   0  -1  -3  969.32   17.69
   0  -1  -3  959.18   17.88
   0  -1  -3 1003.59   16.19
   0  -1  -3 1003.79   12.81
   0  -1  -3  976.80   14.83
   0  -1  -3  947.99   18.60
   0  -1  -3  938.76   18.27
   0   1   3  973.03   18.14
   0   1   3  987.60   18.08
   0   1   3 1031.69   16.52
   0   1   3 1008.02   12.81
   0   1   3  909.95   14.31
   0   1   3  924.06   18.34
   0   1   3  917.17   18.40
   0  -1  -4    7.09    5.27
   0  -1  -4    3.84    3.84
   0  -1  -4    4.81    3.32
   0  -1  -4    3.38    3.38
   0  -1  -4    6.89    5.53
   0  -1  -4    2.41    4.55
   0   1   4    2.99    4.94
   0   1   4    6.83    4.29
   0   1   4    5.07    3.38
   0   1   4    0.78    3.25
   0   1   4    4.62    4.88
   0   1   4    7.35    5.72
   0  -1  -5   39.54    7.80
   0  -1  -5   42.98    6.05
   0  -1  -5   36.42    8.13
   0  -1  -5   45.39    8.39
   0   1   5   35.96    7.35
   0   1   5   45.39    7.74
   0   1   5   34.79    5.66
   0   1   5   37.39    5.27
   0   1   5   38.56    7.61
   0   1   5   37.00    8.26
   0  -1  -6   61.65    9.75
   0  -1  -6   57.03    7.41
   0  -1  -6   39.86    9.04
   0  -1  -6   43.89    8.58
   0   1   6   53.71    9.17
   0   1   6   38.56    6.50
   0   1   6   42.01    5.72
   0   1   6   49.75    9.95
   0  -1  -7  187.67   15.54
   0  -1  -7  171.16   15.74
   0   1   7  184.49   14.96
   0   1   7  189.17   11.97
   0   1   7  180.33    9.82
   0   1   7  186.31   16.32
   0  -1  -8   28.29    9.95
   0  -1  -8   28.94    9.75
   0   1   8   33.49    9.95
   0   1   8   31.47    7.80
   0   1   8   28.29    5.85
   0   1   8   33.95   10.66
   0  -1  -9  345.43   22.11
   0  -1  -9  340.88   22.57
   0   1   9  332.69   21.26
   0   1   9  364.55   17.75
   0   1   9  338.41   22.63
   0  -1 -10   68.80   14.37
   0  -1 -10   59.05   13.33
   0   1  10   71.79   13.85
   0   1  10   71.92   11.51
   0   1  10   69.19   14.57
   0  -1 -11  197.36   22.17
   0  -1 -11  185.85   23.28
   0   1  11  161.01   21.26
   0   1  11  128.17   15.74
   0   1  11  179.03   21.20
   0  -1 -12  146.19   22.83
   0  -1 -12  175.71   24.45
   0   1  12  151.45   21.20
   0   1  12  161.73   17.82
   0  -1 -13    2.21   13.20
   0  -1 -13   14.57   13.20
   0   1  13   17.82   12.49
   0   1  13   26.92   12.03
   0  -1 -14   48.77   18.47
   0  -1 -14   44.61   22.24
   0   1  14   28.55   14.31
   0  -1 -15  135.65   27.05
   0   1  15   92.67   20.68
   0  -1 -16   12.29   18.08
   0   1  16   35.83   17.17
   0   1  16   71.47   22.11
   0  -2  15   -6.18   13.85
   0  -2  15   -9.82   15.61
   0   2 -15   26.40   21.13
   0   2 -15    5.33   16.45
   0  -2  14   15.22   14.24
   0  -2  14    8.71   16.19
   0  -2  14   62.56   21.26
   0   2 -14   54.62   21.26
   0   2 -14   16.39   17.23
   0  -2  13   44.48   15.02
   0  -2  13    3.58   13.27
   0  -2  13   41.23   15.80
   0   2 -13   67.83   20.94
   0   2 -13   41.16   18.21
   0  -2  12   38.24   14.11
   0  -2  12   -0.98   13.92
   0  -2  12   26.86   13.85
   0   2 -12   36.35   16.45
   0   2 -12   26.40   14.57
   0  -2  11   16.58   10.53
   0  -2  11   -5.14   12.94
   0  -2  11   11.05   11.90
   0   2 -11   20.03   13.72
   0   2 -11   14.83   12.68
   0  -2  10  201.53   19.64
   0  -2  10   79.21   15.80
   0  -2  10  201.33   20.87
   0   2 -10  228.12   23.35
   0   2 -10  194.76   22.50
   0  -2   9  152.56   16.52
   0  -2   9   50.79   11.90
   0  -2   9  158.09   19.18
   0   2  -9  165.95   19.64
   0   2  -9  165.89   19.96
   0  -2   8    8.00    7.35
   0  -2   8    5.14    7.35
   0  -2   8    7.15    8.26
   0  -2   8    8.13    8.06
   0   2  -8    4.94    8.97
   0   2  -8   15.87    9.04
   0   2  -8    9.82    8.00
   0  -2   7  202.63   15.35
   0  -2   7   90.26   13.14
   0  -2   7  206.53   16.84
   0  -2   7  196.45   16.19
   0   2  -7  215.31   17.62
   0   2  -7  229.03   18.34
   0   2  -7  215.83   17.17
   0  -2   6  241.06   15.22
   0  -2   6  122.25   13.40
   0  -2   6  219.08   16.13
   0  -2   6  136.82   13.07
   0   2  -6  206.86   16.13
   0   2  -6  200.74   16.32
   0   2  -6  207.44   15.87
   0  -2   5  585.65   19.77
   0  -2   5  361.89   17.82
   0  -2   5  597.94   22.11
   0  -2   5    4.88    3.51
   0   2  -5  612.83   21.85
   0   2  -5  537.92   21.39
   0   2  -5  570.76   21.46
   0  -2   4   38.17    7.02
   0  -2   4   35.90    7.80
   0  -2   4   47.15    8.97
   0  -2   4    1.82    2.08
   0   2  -4   37.98    7.93
   0   2  -4   38.56    8.00
   0   2  -4   36.29    7.67
   0   2  -4   33.16    8.06
   0  -2   3  679.62   16.78
   0  -2   3  664.27   16.39
   0  -2   3  707.00   19.77
   0  -2   3  670.90   20.09
   0  -2   3  655.49   12.55
   0  -2   3  611.92   17.23
   0   2  -3  679.49   18.01
   0   2  -3  611.66   18.08
   0   2  -3  669.08   18.60
   0   2  -3  699.39   20.81
   0  -2   2  162.77    8.19
   0  -2   2  143.45    7.93
   0  -2   2  170.51   10.40
   0  -2   2  156.79   10.92
   0  -2   2  150.93    7.28
   0  -2   2  161.86    9.30
   0   2  -2  174.99    9.10
   0   2  -2  163.68    9.04
   0   2  -2  137.41    9.30
   0   2  -2  173.89    7.22
   0   2  -2  148.53    9.56
   0   2  -2  146.32    9.43
   0   2  -2  156.59   10.66
   0  -2   1  154.12    9.10
   0  -2   1  124.53    8.97
   0  -2   1  132.07    7.22
   0  -2   1  113.67    6.70
   0  -2   1  139.49    7.09
   0  -2   1  138.19    8.58
   0   2  -1  127.65    6.37
   0   2  -1  123.49    6.44
   0   2  -1  164.78    8.58
   0   2  -1  133.57    8.97
   0   2  -1  142.54    6.96
   0   2  -1  112.24    7.02
   0   2  -1  129.41    7.41
   0   2  -1  139.10    8.71
   0  -2   0   62.88    6.31
   0  -2   0   56.45    5.46
   0  -2   0   52.28    6.05
   0  -2   0   60.28    5.79
   0  -2   0   57.36    5.40
   0   2   0   56.12    5.46
   0   2   0   54.43    4.68
   0   2   0   50.85    5.85
   0   2   0   60.02    5.33
   0   2   0   48.77    4.81
   0  -2  -1 1146.92   17.62
   0  -2  -1 1189.84   14.57
   0  -2  -1 1052.37   15.87
   0  -2  -1 1174.23   17.62
   0   2   1 1126.04   17.23
   0   2   1  821.32   12.10
   0   2   1  823.92   14.18
   0   2   1  940.65   14.50
   0   2   1 1112.45   16.97
   0  -2  -2  170.51    6.18
   0  -2  -2  169.79    6.37
   0  -2  -2  201.72    8.06
   0  -2  -2  170.31    7.48
   0  -2  -2  174.21    8.45
   0  -2  -2  155.81    6.70
   0  -2  -2  164.13    6.76
   0   2   2  172.39    6.50
   0   2   2  180.33    6.63
   0   2   2  176.68    8.32
   0   2   2  183.19    7.28
   0   2   2  162.25    7.15
   0   2   2  164.72    7.93
   0   2   2  156.20    6.83
   0   2   2  158.48    7.02
   0  -2  -3  216.48    9.04
   0  -2  -3  229.94    9.62
   0  -2  -3  248.48   10.66
   0  -2  -3  235.67    9.23
   0  -2  -3  218.82    9.95
   0  -2  -3    0.13    1.04
   0  -2  -3  208.87    9.69
   0   2   3  233.39    9.88
   0   2   3  240.48    9.82
   0   2   3  242.49    9.43
   0   2   3  203.09    9.49
   0   2   3  221.16   10.14
   0   2   3  201.79   10.14
   0  -2  -4  371.25   13.27
   0  -2  -4  358.38   13.66
   0  -2  -4  371.71   12.23
   0  -2  -4  355.84   12.62
   0  -2  -4  333.40   13.79
   0  -2  -4  347.58   13.59
   0   2   4  348.10   13.59
   0   2   4  379.05   12.42
   0   2   4  365.07    9.17
   0   2   4  333.08   12.10
   0   2   4  334.96   13.92
   0   2   4  315.98   13.98
   0  -2  -5  168.36   11.90
   0  -2  -5  178.44   10.27
   0  -2  -5  153.14   12.16
   0   2   5  178.70   12.29
   0   2   5  177.85   10.86
   0   2   5  171.55    7.80
   0   2   5  161.79    9.62
   0   2   5  149.44   12.23
   0   2   5  161.08   12.75
   0  -2  -6  522.25   19.83
   0  -2  -6  513.92   13.46
   0  -2  -6  520.95   16.06
   0  -2  -6  501.76   20.29
   0   2   6  493.51   19.57
   0   2   6  582.92   18.47
   0   2   6  539.68   13.79
   0   2   6  504.69   20.55
   0   2   6  520.17   20.94
   0  -2  -7   39.34    9.43
   0  -2  -7   35.83    6.24
   0  -2  -7   26.99    8.97
   0   2   7   32.38    9.36
   0   2   7   28.29    7.80
   0   2   7   26.86    5.72
   0   2   7   32.51    8.84
   0   2   7   23.87    9.10
   0  -2  -8  161.99   15.48
   0  -2  -8  166.28   16.26
   0   2   8  154.05   15.22
   0   2   8  179.16   14.63
   0   2   8  165.95   11.05
   0   2   8  173.89   17.10
   0  -2  -9  175.25   17.17
   0  -2  -9  149.70   17.04
   0   2   9  154.31   16.26
   0   2   9  166.08   12.23
   0   2   9  151.32   17.88
   0  -2 -10  208.94   19.51
   0  -2 -10  198.73   19.77
   0   2  10  188.13   18.60
   0   2  10  197.75   14.44
   0   2  10  177.40   19.38
   0  -2 -11   19.77   11.25
   0  -2 -11   17.82   11.51
   0   2  11   19.05   10.79
   0   2  11   13.92    8.13
   0   2  11   13.98   11.05
   0  -2 -12  165.63   22.70
   0  -2 -12  151.71   22.11
   0   2  12  146.71   20.61
   0   2  12  168.95   16.58
   0   2  12  151.52   22.30
   0  -2 -13  102.81   19.57
   0  -2 -13   92.02   19.44
   0   2  13   87.59   18.34
   0   2  13   75.89   13.53
   0  -2 -14   11.19   13.46
   0   2  14   14.44   12.55
   0  -2 -15   14.24   17.17
   0   2  15    2.60   13.01
   0  -2 -16   44.87   19.83
   0   2  16   30.24   17.95
   0  -2 -17   65.22   24.13
   0   2  17   42.79   20.35
   0  -3  14   33.69   16.39
   0  -3  14    0.20   16.52
   0  -3  14   28.16   19.05
   0   3 -14   45.65   21.98
   0   3 -14   17.49   16.91
   0  -3  13  121.47   21.39
   0  -3  13  121.93   23.74
   0  -3  13  103.33   22.50
   0   3 -13  125.51   25.88
   0   3 -13  107.62   24.45
   0  -3  12  115.30   19.64
   0  -3  12   63.21   21.52
   0  -3  12  114.13   21.39
   0   3 -12  112.50   22.83
   0   3 -12   96.18   21.98
   0  -3  11   18.73   12.36
   0  -3  11   16.84   14.89
   0  -3  11   13.27   13.66
   0   3 -11   31.73   15.35
   0   3 -11   25.43   14.05
   0  -3  10   18.92   10.79
   0  -3  10   26.21   19.77
   0  -3  10   29.26   12.75
   0   3 -10   25.49   13.40
   0   3 -10    8.52   11.64
   0  -3   9   76.99   13.33
   0  -3   9   50.66   13.33
   0  -3   9   93.84   16.91
   0   3  -9   98.32   18.27
   0   3  -9   78.16   16.06
   0  -3   8   99.36   13.66
   0  -3   8   80.57   15.35
   0  -3   8   83.37   14.96
   0   3  -8   95.01   15.74
   0   3  -8   98.91   16.19
   0  -3   7   18.66    7.87
   0  -3   7   11.64    7.87
   0  -3   7   36.35   10.92
   0  -3   7    0.46    3.64
   0   3  -7   22.37    9.75
   0   3  -7   28.87   10.14
   0   3  -7   20.03    8.71
   0  -3   6  180.39   13.59
   0  -3   6  176.10   15.87
   0  -3   6  196.39   16.91
   0  -3   6   89.87   12.10
   0   3  -6  175.90   15.67
   0   3  -6  156.20   15.61
   0   3  -6  170.77   15.02
   0  -3   5  395.44   16.71
   0  -3   5  402.86   20.22
   0  -3   5  386.08   20.48
   0  -3   5  363.51   17.62
   0   3  -5  410.14   19.12
   0   3  -5  368.06   18.99
   0   3  -5  355.97   18.27
   0  -3   4  508.07   16.71
   0  -3   4  516.07   20.74
   0  -3   4  487.00   21.13
   0  -3   4  487.13   13.53
   0  -3   4  473.61   18.21
   0   3  -4  492.34   18.73
   0   3  -4  452.80   18.99
   0   3  -4  453.25   18.47
   0   3  -4  495.39   21.52
   0  -3   3   62.30    7.41
   0  -3   3   59.83    7.15
   0  -3   3   67.76    9.43
   0  -3   3   62.49   10.14
   0  -3   3   65.94    7.15
   0  -3   3   67.76    8.65
   0   3  -3   55.79    8.13
   0   3  -3   56.58    6.63
   0   3  -3   63.47    8.91
   0   3  -3   68.61    9.17
   0   3  -3   58.53    9.30
   0  -3   2  302.91   14.57
   0  -3   2  268.96   15.15
   0  -3   2  254.91   10.73
   0  -3   2  253.03   11.25
   0   3  -2  286.78   11.38
   0   3  -2  268.24   11.19
   0   3  -2  287.62   10.79
   0   3  -2  240.80   11.77
   0   3  -2  269.42   12.10
   0   3  -2  261.87   13.92
   0  -3   1  201.00   11.77
   0  -3   1  185.92   12.16
   0  -3   1  184.88    9.88
   0   3  -1  215.70    9.95
   0   3  -1  177.07    9.04
   0   3  -1  192.16   10.99
   0  -3   0 2077.81   29.98
   0  -3   0 1998.21   29.72
   0  -3   0 2057.84   27.64
   0  -3   0 2054.27   25.49
   0   3   0 2218.34   25.69
   0   3   0 1955.42   29.26
   0   3   0 2068.51   27.12
   0   3   0 2103.30   25.75
   0  -3  -1 1613.50   25.95
   0  -3  -1 1676.71   21.46
   0  -3  -1 1468.10   23.54
   0  -3  -1 1620.98   25.23
   0   3   1 1717.87   26.14
   0   3   1 1671.38   21.26
   0   3   1 1556.21   24.52
   0   3   1 1665.00   24.71
   0   3   1 1730.55   25.62
   0   3   1 1656.75   19.64
   0  -3  -2  147.62   10.27
   0  -3  -2  153.73    8.71
   0  -3  -2  127.52    9.30
   0  -3  -2  164.46   10.34
   0   3   2  161.86    9.95
   0   3   2  158.35    8.13
   0   3   2  126.16    9.36
   0   3   2  164.91    9.82
   0  -3  -3  801.48   14.05
   0  -3  -3  848.30   14.57
   0  -3  -3  905.85   18.27
   0  -3  -3  828.15   17.30
   0  -3  -3  847.39   20.03
   0  -3  -3  742.89   15.54
   0   3   3  850.00   15.93
   0   3   3  816.96   15.48
   0   3   3  899.55   17.82
   0   3   3  845.70   17.56
   0   3   3  826.32   16.65
   0   3   3  764.22   16.26
   0  -3  -4  255.24   10.73
   0  -3  -4  238.53   10.99
   0  -3  -4  274.81   12.81
   0  -3  -4  245.42   10.99
   0  -3  -4  239.57   12.49
   0   3   4  247.05   11.64
   0   3   4  281.51   11.77
   0   3   4  242.69   12.10
   0   3   4  231.96   12.29
   0  -3  -5  923.93   21.65
   0  -3  -5 1027.52   24.39
   0  -3  -5  929.53   22.50
   0  -3  -5  377.75   15.35
   0   3   5  943.12   22.63
   0   3   5  986.56   21.20
   0   3   5  861.31   22.63
   0   3   5  845.18   22.70
   0  -3  -6   -0.39    5.40
   0  -3  -6    8.52    7.02
   0  -3  -6   -1.43    4.55
   0  -3  -6    8.97    6.37
   0   3   6    6.31    5.98
   0   3   6    6.89    5.14
   0   3   6   -1.56    3.19
   0   3   6    1.95    5.79
   0   3   6   -1.43    5.92
   0  -3  -7  364.16   18.21
   0  -3  -7  333.53   15.80
   0  -3  -7  344.07   18.73
   0   3   7  340.23   18.21
   0   3   7  360.39   16.52
   0   3   7  329.70   11.64
   0   3   7  332.56   18.66
   0   3   7  335.16   19.18
   0  -3  -8  114.97   14.24
   0  -3  -8  116.53   11.32
   0  -3  -8  106.84   14.24
   0   3   8  106.78   14.37
   0   3   8  106.91   12.36
   0   3   8   98.65    8.52
   0   3   8  104.83   14.31
   0   3   8  119.98   15.02
   0  -3  -9    1.24    7.61
   0  -3  -9   -0.85    7.09
   0   3   9   -2.47    6.89
   0   3   9    4.68    7.09
   0   3   9    1.56    4.62
   0   3   9   -3.77    7.41
   0  -3 -10   14.05    9.30
   0  -3 -10   18.53   10.14
   0   3  10   22.30    9.62
   0   3  10   20.16    9.10
   0   3  10   13.40    6.37
   0   3  10   19.05   10.21
   0  -3 -11  100.86   16.58
   0  -3 -11   97.41   16.78
   0   3  11  109.31   17.17
   0   3  11  122.51   12.62
   0   3  11   89.48   16.39
   0  -3 -12   68.74   15.93
   0  -3 -12   55.34   14.96
   0   3  12   73.74   16.71
   0   3  12   62.30   10.86
   0   3  12   56.58   15.02
   0  -3 -13  253.09   25.82
   0   3  13  235.15   24.71
   0   3  13  214.01   25.82
   0  -3 -14    8.58   12.88
   0   3  14    2.34   12.23
   0  -3 -15    5.92   14.18
   0   3  15   -0.39   12.29
   0  -3 -16   -4.10   15.67
   0   3  16    0.07   14.44
   0  -3 -17   69.65   23.87
   0  -3 -17   64.25   27.57
   0   3  17   55.53   20.81
   0  -4  13  -23.93   16.52
   0  -4  13    8.58   16.52
   0   4 -13   20.03   18.14
   0   4 -13   -3.84   14.31
   0  -4  12   67.70   16.06
   0  -4  12   47.21   16.71
   0  -4  12  105.93   22.89
   0   4 -12   78.88   21.85
   0   4 -12   48.64   18.73
   0  -4  11    8.84   10.79
   0  -4  11    5.46   15.02
   0  -4  11   -2.99   13.20
   0   4 -11   24.78   15.48
   0   4 -11    9.43   13.66
   0  -4  10   27.96   11.45
   0  -4  10    6.31   12.03
   0  -4  10   17.49   13.79
   0   4 -10   41.88   15.80
   0   4 -10   19.31   13.53
   0  -4   9   29.13   11.19
   0  -4   9   36.94   13.53
   0  -4   9   31.15   13.72
   0   4  -9   16.71   12.03
   0   4  -9   25.69   12.55
   0  -4   8   -6.50    6.24
   0  -4   8    1.50    8.00
   0  -4   8    4.10   10.34
   0   4  -8    2.73    9.30
   0   4  -8    1.76    9.04
   0  -4   7   31.86    8.84
   0  -4   7    8.00    9.62
   0  -4   7   23.87   10.99
   0   4  -7   43.96   11.71
   0   4  -7   38.56   11.45
   0   4  -7   26.47   10.27
   0  -4   6  270.72   15.54
   0  -4   6  271.82   19.44
   0  -4   6  259.79   20.35
   0  -4   6  255.24   17.36
   0   4  -6  258.17   18.08
   0   4  -6  253.94   18.92
   0   4  -6  238.98   17.62
   0  -4   5    1.50    4.36
   0  -4   5    6.05    6.70
   0  -4   5   -1.11    6.96
   0  -4   5    1.95    4.10
   0  -4   5    4.68    5.72
   0   4  -5   -1.30    5.79
   0   4  -5   -1.63    5.79
   0   4  -5    8.39    6.89
   0   4  -5    5.72    7.02
   0  -4   4  214.53   16.00
   0  -4   4  204.91   17.17
   0  -4   4  212.19   11.38
   0  -4   4  220.71   13.72
   0   4  -4  216.16   14.18
   0   4  -4  187.80   14.50
   0   4  -4  209.91   14.44
   0   4  -4  209.00   16.58
   0  -4   3    2.21    6.57
   0  -4   3    3.45    6.83
   0  -4   3    7.61    4.88
   0  -4   3    5.33    5.07
   0   4  -3    3.32    5.14
   0   4  -3    0.78    5.53
   0   4  -3   -0.13    5.33
   0   4  -3    5.46    6.50
   0  -4   2    0.85    5.01
   0  -4   2   -4.10    5.85
   0  -4   2   -1.95    4.23
   0   4  -2   -0.26    4.29
   0   4  -2   -0.52    4.49
   0   4  -2   -2.08    4.55
   0   4  -2    3.71    5.46
   0  -4   1    4.03    5.07
   0  -4   1   11.90    6.63
   0  -4   1    3.25    4.75
   0   4  -1    4.81    5.01
   0  -4   0 1080.07   25.56
   0  -4   0 1025.05   25.30
   0  -4   0 1018.81   23.02
   0   4   0 1146.66   21.91
   0   4   0  985.32   24.97
   0   4   0 1067.39   21.65
   0  -4  -1  110.22   10.99
   0  -4  -1  105.80    8.91
   0  -4  -1   95.46    9.56
   0   4   1   89.68    8.19
   0   4   1   80.38    9.88
   0   4   1  100.34    7.48
   0  -4  -2  421.13   16.71
   0  -4  -2  430.62   13.79
   0  -4  -2  418.79   16.45
   0   4   2  462.36   13.79
   0   4   2  401.03   15.41
   0  -4  -3 1902.23   32.90
   0  -4  -3 1976.88   27.83
   0  -4  -3 1918.10   32.97
   0   4   3 1938.26   22.76
   0   4   3 1995.55   27.44
   0   4   3 1855.28   29.20
   0   4   3 1881.75   24.32
   0   4   3 1688.94   23.35
   0  -4  -4 1711.83   22.37
   0  -4  -4 1722.75   22.70
   0  -4  -4 1851.12   29.26
   0  -4  -4 1729.90   32.25
   0  -4  -4 1598.41   25.17
   0   4   4 1764.82   25.95
   0   4   4 1755.72   28.42
   0   4   4 1642.24   26.34
   0   4   4 1589.31   26.34
   0  -4  -5  185.40   12.62
   0  -4  -5  187.74   11.12
   0  -4  -5  206.40   13.20
   0  -4  -5  192.81   13.33
   0  -4  -5  182.73   11.84
   0   4   5  199.31   12.16
   0   4   5  200.68   11.90
   0   4   5  184.23   12.42
   0   4   5  176.10   12.62
   0  -4  -6    2.34    5.66
   0  -4  -6    3.25    6.05
   0  -4  -6    5.01    5.59
   0  -4  -6   -0.26    2.41
   0   4   6   -0.72    5.53
   0   4   6    4.23    5.14
   0   4   6    0.46    5.59
   0   4   6    2.47    6.11
   0  -4  -7   94.81   12.10
   0  -4  -7  108.73   12.94
   0  -4  -7  101.84   11.84
   0  -4  -7   85.51   11.84
   0   4   7   88.57   11.97
   0   4   7   97.93   10.99
   0   4   7   97.80    7.80
   0   4   7   79.66   11.51
   0   4   7   92.34   12.68
   0  -4  -8   24.19    8.32
   0  -4  -8   29.65   10.27
   0  -4  -8   19.18    7.48
   0  -4  -8   18.01    8.00
   0   4   8   16.71    7.87
   0   4   8   18.21    7.28
   0   4   8   18.21    4.81
   0   4   8   13.72    7.35
   0   4   8   15.41    8.26
   0  -4  -9   39.34   10.14
   0  -4  -9   33.69   10.99
   0  -4  -9   35.18    8.52
   0  -4  -9   28.42    9.82
   0   4   9   34.27   10.14
   0   4   9   35.18    8.91
   0   4   9   28.22    6.05
   0   4   9   22.37    9.95
   0   4   9   22.04    9.69
   0  -4 -10  246.27   19.64
   0  -4 -10  233.06   20.94
   0  -4 -10  238.79   16.78
   0  -4 -10  251.40   20.48
   0   4  10  224.42   19.51
   0   4  10  237.81   17.82
   0   4  10  218.95   20.68
   0  -4 -11  267.92   21.91
   0  -4 -11  251.92   23.02
   0  -4 -11  258.95   21.98
   0   4  11  235.21   21.33
   0   4  11  245.03   19.51
   0   4  11  279.10   23.67
   0  -4 -12  169.79   21.59
   0  -4 -12  140.59   21.33
   0  -4 -12  151.84   23.09
   0   4  12  143.84   19.77
   0   4  12  158.74   19.31
   0   4  12  135.39   13.27
   0   4  12  149.63   21.72
   0  -4 -13  364.68   28.29
   0  -4 -13  423.47   31.73
   0   4  13  335.68   27.51
   0   4  13  307.13   28.03
   0  -4 -14   30.63   15.35
   0  -4 -14    8.84   14.70
   0   4  14    7.87   13.40
   0   4  14   21.98   15.74
   0  -4 -15   28.61   16.19
   0  -4 -15   14.31   17.43
   0   4  15   -6.70   12.29
   0  -4 -16    7.54   16.52
   0  -4 -16  -17.04   15.41
   0   4  16    2.28   14.96
   0  -4 -17   25.82   19.31
   0  -4 -17   45.00   24.00
   0   4  17   32.45   18.66
   0  -5  13  -15.93   13.40
   0  -5  13   10.73   18.86
   0   5 -13   -8.32   17.95
   0   5 -13   -3.19   14.76
   0  -5  12   -1.76   18.99
   0  -5  12    9.95   17.04
   0   5 -12   31.67   18.34
   0   5 -12   18.08   15.41
   0  -5  11   54.43   17.23
   0  -5  11   84.08   21.85
   0   5 -11  118.29   24.13
   0   5 -11   83.37   21.46
   0  -5  10   62.43   14.05
   0  -5  10   72.70   19.31
   0  -5  10   77.12   19.70
   0   5 -10   96.57   20.81
   0   5 -10   78.82   18.66
   0  -5   9   44.61   11.12
   0  -5   9   47.08   14.37
   0  -5   9   56.90   17.36
   0   5  -9   53.97   15.80
   0   5  -9   63.73   16.52
   0  -5   8  323.26   19.51
   0  -5   8  300.43   27.57
   0  -5   8  309.67   26.99
   0   5  -8  341.86   25.23
   0   5  -8  368.45   26.40
   0  -5   7  141.76   13.59
   0  -5   7  117.44   17.43
   0  -5   7  126.68   19.90
   0   5  -7  135.39   18.01
   0   5  -7  144.88   19.12
   0  -5   6    0.07    7.54
   0  -5   6   -1.82    7.74
   0   5  -6   18.79    9.04
   0   5  -6    5.40    8.06
   0   5  -6   15.35    8.65
   0  -5   5    7.15    7.48
   0  -5   5    0.65    7.35
   0  -5   5    2.28    5.01
   0  -5   5    5.72    6.18
   0   5  -5   10.14    7.28
   0   5  -5    3.25    6.83
   0   5  -5    3.97    6.89
   0   5  -5    6.63    8.00
   0  -5   4  541.63   24.65
   0  -5   4  505.54   25.43
   0  -5   4  489.99   17.75
   0  -5   4  503.26   19.31
   0   5  -4  482.26   20.09
   0   5  -4  468.66   20.68
   0   5  -4  468.27   20.42
   0   5  -4  472.31   23.93
   0  -5   3  732.29   26.99
   0  -5   3  700.49   28.03
   0  -5   3  728.00   21.33
   0  -5   3  702.31   20.29
   0   5  -3  728.07   21.59
   0   5  -3  687.81   22.37
   0   5  -3  699.39   22.24
   0   5  -3  742.63   26.79
   0  -5   2    2.54    6.44
   0  -5   2   18.60    8.45
   0  -5   2   19.57    6.76
   0   5  -2   10.01    5.59
   0   5  -2   10.66    5.59
   0   5  -2   13.46    7.02
   0  -5   1  584.16   22.70
   0  -5   1  559.18   23.09
   0  -5   1  534.67   19.18
   0   5  -1  563.61   20.29
   0  -5   0 1303.90   31.41
   0  -5   0 1277.69   31.67
   0  -5   0 1270.54   28.81
   0   5   0 1142.50   30.04
   0   5   0 1239.91   26.21
   0  -5  -1  638.78   22.57
   0  -5  -1  621.87   18.08
   0  -5  -1  619.01   20.94
   0   5   1  588.12   21.39
   0   5   1  591.44   16.97
   0  -5  -2  240.28   15.15
   0  -5  -2  235.54   12.36
   0  -5  -2  237.88   14.70
   0   5   2  209.13   13.92
   0   5   2  225.72   10.40
   0  -5  -3  717.99   23.48
   0  -5  -3  742.24   19.57
   0  -5  -3  691.39   22.83
   0   5   3  690.41   21.39
   0  -5  -4  611.27   22.63
   0  -5  -4  621.42   18.92
   0  -5  -4  621.94   22.50
   0   5   4  599.50   15.80
   0   5   4  567.83   19.12
   0   5   4  574.66   16.32
   0   5   4  524.52   16.06
   0  -5  -5  138.51    9.17
   0  -5  -5  175.51   12.94
   0  -5  -5  127.72   13.14
   0  -5  -5  130.84   10.73
   0   5   5  152.75   11.05
   0   5   5  146.38   11.90
   0   5   5  144.04   11.32
   0   5   5  134.22   11.84
   0  -5  -6  291.59   13.85
   0  -5  -6  311.55   16.71
   0  -5  -6  291.66   17.17
   0  -5  -6  275.92   14.89
   0   5   6  296.01   15.41
   0   5   6  300.69   15.48
   0   5   6  285.61   15.61
   0   5   6  261.09   15.67
   0  -5  -7   24.26    7.74
   0  -5  -7   25.69    9.43
   0  -5  -7   30.69    8.65
   0  -5  -7   14.37    5.66
   0   5   7   24.78    8.39
   0   5   7   23.93    7.61
   0   5   7   24.06    8.13
   0   5   7   26.73    8.71
   0  -5  -8  278.84   16.91
   0  -5  -8  293.67   18.79
   0  -5  -8  281.06   18.01
   0  -5  -8   77.32   11.45
   0   5   8  246.72   17.17
   0   5   8  285.41   16.52
   0   5   8  254.46   18.08
   0   5   8  257.39   18.86
   0  -5  -9    4.16    7.22
   0  -5  -9   10.21    8.78
   0  -5  -9    5.14    7.15
   0  -5  -9   -7.67    6.11
   0   5   9    0.00    6.83
   0   5   9   10.21    6.83
   0   5   9   -4.62    7.22
   0   5   9    3.90    8.00
   0  -5 -10  127.65   15.80
   0  -5 -10  164.52   18.01
   0  -5 -10  120.24   15.15
   0  -5 -10  117.44   16.39
   0   5  10  120.37   16.84
   0   5  10  138.90   15.22
   0   5  10  113.28   16.65
   0   5  10  138.90   18.27
   0  -5 -11   40.38   12.29
   0  -5 -11   56.19   13.79
   0  -5 -11   53.19   11.25
   0  -5 -11   45.00   13.01
   0   5  11   63.14   14.76
   0   5  11   66.78   13.20
   0   5  11   42.79   13.46
   0  -5 -12   12.88   10.92
   0  -5 -12   14.57   12.23
   0   5  12   16.84   12.75
   0   5  12   13.59   10.73
   0   5  12    9.04   11.64
   0  -5 -13   45.39   14.63
   0  -5 -13   55.34   18.14
   0   5  13   37.26   14.50
   0   5  13   53.71   14.50
   0   5  13   39.93   15.54
   0  -5 -14   11.05   13.79
   0  -5 -14   26.73   17.62
   0   5  14   18.73   14.50
   0   5  14   20.68   15.35
   0  -5 -15    6.37   13.66
   0  -5 -15   16.78   16.00
   0   5  15   17.36   15.35
   0   5  15    9.88   14.76
   0  -5 -16   21.85   16.97
   0  -5 -16   43.57   20.29
   0   5  16    2.54   15.09
   0  -5 -17   -1.82   16.26
   0  -5 -17   40.51   22.50
   0   5  17   20.81   17.82
   0  -6  12   -2.54   11.97
   0  -6  12    6.11   18.86
   0   6 -12   -8.45   18.73
   0   6 -12    7.35   16.32
   0  -6  11   61.06   22.83
   0  -6  11  146.19   27.44
   0   6 -11  134.61   27.44
   0   6 -11  116.47   22.89
   0  -6  10  235.02   26.66
   0  -6  10  311.68   33.36
   0   6 -10  268.05   29.78
   0   6 -10  230.20   27.18
   0  -6   9   62.17   18.08
   0  -6   9   74.65   19.64
   0   6  -9   69.32   18.14
   0   6  -9   76.21   17.36
   0  -6   8   10.66   10.86
   0  -6   8   21.91   14.63
   0   6  -8   25.04   13.20
   0   6  -8    9.69   10.79
   0  -6   7   78.36   20.16
   0  -6   7  162.05   23.61
   0   6  -7  123.75   18.27
   0   6  -7  145.21   19.18
   0  -6   6  468.14   28.03
   0  -6   6  481.09   30.56
   0  -6   6  465.61   18.99
   0   6  -6  457.28   24.78
   0   6  -6  476.60   25.82
   0  -6   5  149.44   17.43
   0  -6   5  136.11   20.03
   0  -6   5  153.08   13.01
   0   6  -5  144.04   15.35
   0   6  -5  138.64   16.78
   0   6  -5  128.24   15.80
   0   6  -5  133.89   18.21
   0  -6   4  174.93   17.56
   0  -6   4  184.75   19.51
   0  -6   4  179.16   13.72
   0   6  -4  182.02   14.76
   0   6  -4  151.65   14.89
   0   6  -4  165.37   15.35
   0   6  -4  164.91   17.82
   0  -6   3  625.84   27.12
   0  -6   3  602.49   28.87
   0  -6   3  564.78   21.20
   0   6  -3  570.70   20.55
   0   6  -3  537.79   20.22
   0   6  -3  571.15   21.46
   0   6  -3  569.72   25.75
   0  -6   2  515.16   24.19
   0  -6   2  502.61   25.49
   0  -6   2  535.38   21.00
   0   6  -2  522.25   17.56
   0   6  -2  528.23   23.15
   0  -6   1   12.55    7.67
   0  -6   1   15.67    8.26
   0  -6   1   13.46    6.44
   0   6  -1   17.04    8.39
   0   6  -1   11.19    6.63
   0  -6   0   53.58   10.99
   0  -6   0   52.02    9.62
   0   6   0   42.85   10.34
   0   6   0   62.95    9.23
   0  -6  -1 3657.36   55.53
   0  -6  -1 3788.92   45.98
   0  -6  -1 3531.14   51.89
   0   6   1 3414.35   53.06
   0   6   1 3591.88   44.02
   0  -6  -2  438.23   21.46
   0  -6  -2  454.36   17.36
   0  -6  -2  466.32   21.13
   0   6   2  419.37   20.16
   0   6   2  453.97   15.61
   0  -6  -3  179.22   15.74
   0  -6  -3  164.52   12.68
   0  -6  -3  162.12   14.57
   0   6   3  185.01   14.83
   0   6   3  203.02   10.60
   0  -6  -4 1244.07   33.36
   0  -6  -4 1308.58   27.83
   0  -6  -4 1271.32   33.49
   0   6   4 1187.30   29.65
   0  -6  -5  974.92   25.56
   0  -6  -5  948.58   29.72
   0  -6  -5  829.38   20.22
   0   6   5  924.91   21.78
   0   6   5  881.34   25.75
   0   6   5  901.76   22.44
   0   6   5  865.02   22.50
   0  -6  -6   23.93    7.74
   0  -6  -6   16.84    7.93
   0  -6  -6   16.91    6.18
   0   6   6   16.97    6.76
   0   6   6   18.66    7.15
   0   6   6   19.64    6.96
   0   6   6   26.99    7.54
   0  -6  -7  407.93   16.39
   0  -6  -7  436.80   20.61
   0  -6  -7  417.49   21.85
   0  -6  -7  380.42   18.08
   0   6   7  421.32   19.31
   0   6   7  386.60   18.66
   0   6   7  365.53   18.53
   0   6   7  354.34   19.18
   0  -6  -8  260.64   15.67
   0  -6  -8  278.13   18.66
   0  -6  -8  257.39   19.05
   0  -6  -8  232.80   16.45
   0   6   8  227.28   16.78
   0   6   8  264.15   16.58
   0   6   8  255.37   17.88
   0   6   8  249.65   18.53
   0  -6  -9    0.78    6.96
   0  -6  -9    3.71    7.74
   0  -6  -9   -6.37    6.11
   0  -6  -9   -0.39    3.58
   0   6   9   -2.60    7.35
   0   6   9    5.40    6.70
   0   6   9    2.21    7.15
   0   6   9    0.52    7.87
   0  -6 -10   62.82   12.49
   0  -6 -10   86.03   15.35
   0  -6 -10   70.30   13.20
   0  -6 -10   69.32   13.14
   0   6  10   78.75   13.98
   0   6  10   80.64   12.42
   0   6  10   67.44   13.66
   0   6  10   97.93   16.78
   0  -6 -11  231.83   20.03
   0  -6 -11  211.41   21.39
   0  -6 -11  200.68   19.57
   0   6  11  206.53   20.81
   0   6  11  218.30   18.53
   0   6  11  214.66   22.04
   0  -6 -12   32.19   12.81
   0  -6 -12   22.37   12.29
   0  -6 -12   27.57   11.32
   0   6  12   30.24   12.94
   0   6  12   26.34   11.25
   0   6  12   33.49   13.92
   0  -6 -13   19.05   13.07
   0  -6 -13   20.55   13.59
   0   6  13   19.51   14.70
   0   6  13   28.48   12.81
   0   6  13   23.74   14.44
   0  -6 -14  438.43   30.50
   0  -6 -14  452.93   33.56
   0   6  14  383.87   31.34
   0   6  14  450.26   29.07
   0   6  14  370.54   31.73
   0  -6 -15   57.23   18.14
   0  -6 -15   31.21   17.36
   0   6  15   40.19   19.12
   0   6  15   41.75   15.87
   0   6  15   21.26   15.02
   0  -6 -16    2.47   16.00
   0  -6 -16   24.65   17.88
   0   6  16   15.35   16.45
   0   6  16   -6.11   17.30
   0  -6 -17   12.29   17.36
   0  -6 -17  -15.09   16.52
   0   6  17    3.38   17.49
   0  -6 -18   19.83   19.31
   0  -6 -18    9.10   20.87
   0   6  18   14.89   19.70
   0  -7  11    5.79   13.27
   0  -7  11   -3.77   17.69
   0   7 -11   -9.62   17.69
   0   7 -11   -4.88   13.72
   0  -7  10   83.30   22.24
   0  -7  10   95.59   24.52
   0   7 -10  108.27   23.93
   0   7 -10   92.93   20.87
   0  -7   9  249.39   27.25
   0  -7   9  231.83   30.76
   0   7  -9  244.83   28.48
   0   7  -9  211.34   25.56
   0  -7   8   49.81   17.56
   0  -7   8   73.22   20.48
   0   7  -8   74.07   18.14
   0   7  -8   71.14   17.23
   0  -7   7   10.01   11.25
   0  -7   7   20.48   14.57
   0   7  -7   32.77   13.59
   0   7  -7    9.43   10.73
   0  -7   6   53.32   15.09
   0  -7   6   94.62   19.57
   0   7  -6   80.57   15.41
   0   7  -6   76.02   14.83
   0  -7   5    2.41    8.19
   0  -7   5  -15.93    8.71
   0  -7   5    1.50    6.76
   0   7  -5    3.19    7.93
   0   7  -5    7.93    8.19
   0  -7   4   85.06   15.54
   0  -7   4   63.99   15.74
   0  -7   4   66.13   11.51
   0   7  -4   70.56   12.03
   0   7  -4   72.44   12.49
   0   7  -4   69.45   14.63
   0  -7   3  175.64   18.47
   0  -7   3  182.47   20.55
   0  -7   3  168.75   15.22
   0   7  -3  181.69   14.63
   0   7  -3  172.78   15.35
   0   7  -3  169.08   18.01
   0  -7   2  874.19   33.03
   0  -7   2  896.95   35.05
   0  -7   2  854.74   28.22
   0   7  -2  843.88   23.54
   0   7  -2  830.94   34.01
   0   7  -2  837.18   30.43
   0  -7   1  215.51   18.14
   0  -7   1  213.23   19.18
   0  -7   1  212.84   16.26
   0   7  -1  208.09   19.25
   0   7  -1  217.52   16.45
   0  -7   0   18.66    8.32
   0  -7   0   33.36    9.17
   0   7   0   32.84   10.99
   0   7   0   33.82    8.19
   0  -7  -1  264.47   19.12
   0  -7  -1  269.22   18.14
   0   7   1  257.71   18.73
   0   7   1  267.53   14.89
   0  -7  -2   53.45   11.25
   0  -7  -2   55.01    9.17
   0  -7  -2   61.71   11.51
   0   7   2   28.22    8.91
   0   7   2   56.32    8.71
   0  -7  -3    8.26    7.35
   0  -7  -3   19.64    7.15
   0  -7  -3   13.66    7.54
   0   7   3   11.64    7.80
   0  -7  -4   53.78   11.58
   0  -7  -4   69.32   10.14
   0  -7  -4   48.32   10.47
   0   7   4   51.96   10.47
   0  -7  -5   16.32    8.06
   0  -7  -5   27.64    7.87
   0  -7  -5   21.07    8.32
   0   7   5   20.48    6.37
   0   7   5   24.52    8.45
   0   7   5   18.21    6.31
   0  -7  -6   65.29   10.73
   0  -7  -6   37.85   10.08
   0   7   6   57.75    9.49
   0   7   6   49.42   10.21
   0   7   6   49.29    8.58
   0   7   6   50.33    9.62
   0  -7  -7   50.85   10.60
   0  -7  -7   60.28   12.68
   0  -7  -7   55.14    9.43
   0   7   7   46.89    9.30
   0   7   7   57.03   11.19
   0   7   7   43.31    9.17
   0   7   7   48.58   10.01
   0  -7  -8   41.10    8.58
   0  -7  -8   40.58   10.60
   0  -7  -8   41.23   11.32
   0  -7  -8   44.41    9.95
   0   7   8   29.59    9.10
   0   7   8   45.20   10.40
   0   7   8   44.41   10.14
   0   7   8   56.25   11.38
   0  -7  -9    5.98    7.28
   0  -7  -9    2.86    8.26
   0  -7  -9    3.38    7.61
   0  -7  -9    2.41    6.83
   0   7   9    4.68    7.80
   0   7   9    9.23    7.28
   0   7   9    2.34    7.61
   0   7   9   -1.82    8.06
   0  -7 -10    0.85    7.02
   0  -7 -10   -5.14    8.06
   0  -7 -10    3.97    8.45
   0   7  10    3.77    8.19
   0   7  10    3.45    7.54
   0   7  10    2.93    8.84
   0  -7 -11  148.46   17.69
   0  -7 -11  114.52   17.75
   0  -7 -11  126.42   18.34
   0   7  11  111.59   18.08
   0   7  11  117.83   15.93
   0   7  11  102.16   18.01
   0  -7 -12   47.54   13.33
   0  -7 -12   33.88   13.66
   0  -7 -12   60.15   14.31
   0   7  12   43.70   14.83
   0   7  12   48.64   12.49
   0   7  12   29.85   13.85
   0  -7 -13  413.85   27.51
   0  -7 -13  435.37   30.82
   0  -7 -13  424.64   28.22
   0   7  13  382.44   29.46
   0   7  13  409.36   26.34
   0   7  13  367.67   29.78
   0  -7 -14   10.86   12.94
   0  -7 -14    6.89   12.68
   0   7  14   16.19   14.76
   0   7  14   17.75   13.07
   0   7  14    6.89   14.50
   0  -7 -15   66.59   18.47
   0  -7 -15   67.70   20.68
   0   7  15   51.37   18.99
   0   7  15   64.57   16.97
   0   7  15   73.74   20.48
   0  -7 -16  240.09   30.56
   0  -7 -16  190.08   29.46
   0   7  16  207.44   29.98
   0   7  16  190.86   30.04
   0  -7 -17   70.88   21.65
   0  -7 -17   77.77   23.35
   0   7  17   21.07   19.18
   0  -7 -18    3.19   19.51
   0   7  18    3.45   18.79
   0  -8  10   29.98   16.26
   0  -8   9   66.65   20.29
   0   8  -9   56.71   21.91
   0  -8   8   28.16   14.89
   0  -8   8   18.86   15.93
   0   8  -8   43.11   17.04
   0  -8   7   11.51   12.16
   0  -8   7   24.06   16.06
   0   8  -7    8.97   12.03
   0  -8   6   47.67   15.48
   0  -8   6   50.01   18.34
   0   8  -6   47.60   15.02
   0  -8   5   39.73   13.20
   0  -8   5   51.44   17.69
   0   8  -5   36.68   12.55
   0  -8   4  319.68   25.69
   0  -8   4  367.35   29.59
   0  -8   4  346.15   21.26
   0   8  -4  340.23   21.59
   0   8  -4  320.40   21.33
   0   8  -4  347.97   26.34
   0  -8   3   -6.18    7.54
   0  -8   3    0.78   10.08
   0  -8   3    4.03    7.41
   0   8  -3    9.69    8.06
   0   8  -3   -4.10    9.04
   0   8  -3   15.15    9.56
   0  -8   2  288.14   22.44
   0  -8   2  294.78   19.96
   0   8  -2  256.80   23.35
   0   8  -2  285.74   21.59
   0  -8   1  787.76   33.16
   0  -8   1  808.12   30.04
   0   8  -1  743.09   33.56
   0   8  -1  770.46   29.33
   0  -8   0  476.34   26.53
   0  -8   0  483.95   24.45
   0   8   0  429.32   25.88
   0   8   0  490.64   22.17
   0  -8  -1   10.99    7.93
   0  -8  -1    9.17    7.87
   0   8   1    9.88    8.39
   0   8   1   14.70    6.76
   0  -8  -2  325.28   22.17
   0  -8  -2  318.64   17.49
   0  -8  -2  342.77   21.72
   0   8   2  272.02   20.29
   0   8   2  301.21   15.93
   0  -8  -3  227.73   19.25
   0  -8  -3  250.10   15.80
   0  -8  -3  258.95   19.77
   0   8   3  248.09   19.31
   0   8   3  228.19   13.46
   0  -8  -4   -1.43    6.63
   0  -8  -4   -1.43    5.53
   0  -8  -4    1.50    6.89
   0   8   4   -0.52    6.96
   0  -8  -5  153.66   17.10
   0  -8  -5  167.91   14.31
   0  -8  -5  175.84   17.69
   0   8   5  151.84   15.67
   0  -8  -6  114.19   13.46
   0  -8  -6  117.44   16.71
   0   8   6  109.96   11.38
   0   8   6  112.96   14.05
   0   8   6  108.86   11.90
   0   8   6  105.74   12.10
   0  -8  -7  286.00   18.53
   0  -8  -7  279.56   21.59
   0   8   7  251.99   16.26
   0   8   7  266.23   18.40
   0   8   7  256.80   16.71
   0   8   7  259.27   17.17
   0  -8  -8  254.72   18.66
   0  -8  -8  220.84   20.29
   0   8   8  215.51   16.91
   0   8   8  214.92   17.43
   0   8   8  202.70   16.58
   0   8   8  218.17   17.69
   0  -8  -9   55.40   12.16
   0  -8  -9   61.26   14.24
   0   8   9   55.86   11.97
   0   8   9   70.62   12.94
   0   8   9   54.23   12.29
   0   8   9   67.24   13.33
   0  -8 -10  138.06   14.63
   0  -8 -10  140.53   18.21
   0  -8 -10  136.82   19.38
   0   8  10  137.86   18.21
   0   8  10  133.11   17.23
   0   8  10  132.46   17.88
   0  -8 -11    5.27    8.13
   0  -8 -11   13.40   10.27
   0  -8 -11   24.00   11.71
   0   8  11   12.81   10.60
   0   8  11   25.62   10.53
   0   8  11   11.12   10.73
   0  -8 -12   82.07   14.76
   0  -8 -12   69.52   16.39
   0  -8 -12   87.53   17.95
   0   8  12   95.46   18.47
   0   8  12   82.59   15.35
   0   8  12   80.70   17.56
   0  -8 -13  481.54   27.83
   0  -8 -13  523.61   32.97
   0  -8 -13  498.12   31.80
   0   8  13  456.83   31.41
   0   8  13  514.05   28.42
   0   8  13  432.51   31.60
   0  -8 -14  260.31   25.17
   0  -8 -14  240.67   27.77
   0  -8 -14  246.98   26.86
   0   8  14  232.74   27.57
   0   8  14  269.87   24.97
   0   8  14  242.43   29.78
   0  -8 -15    5.20   13.33
   0  -8 -15   15.41   15.74
   0   8  15    1.37   14.63
   0   8  15   11.19   14.31
   0   8  15   13.98   15.80
   0  -8 -16   54.04   18.14
   0  -8 -16   51.57   20.48
   0   8  16   56.25   21.20
   0   8  16   51.05   20.55
   0  -8 -17   35.83   18.86
   0  -8 -17   25.75   18.60
   0   8  17    6.76   18.27
   0   8  17   25.82   19.18
   0  -9   8    0.33   12.49
   0  -9   7   44.61   17.36
   0   9  -7   24.65   14.05
   0  -9   6   15.93   12.68
   0   9  -6   13.27   15.22
   0   9  -6   11.32   11.77
   0  -9   5    2.15   10.53
   0   9  -5    1.89   13.27
   0   9  -5    7.54   10.01
   0  -9   4  173.56   24.19
   0  -9   4  168.10   20.48
   0   9  -4  159.06   24.71
   0   9  -4  161.53   18.92
   0  -9   3  182.54   24.19
   0  -9   3  172.72   18.92
   0   9  -3  211.47   27.18
   0   9  -3  178.37   24.52
   0   9  -3  209.98   23.02
   0  -9   2    7.54    9.56
   0  -9   2   34.86   11.19
   0   9  -2    5.98   10.47
   0   9  -2   30.30   12.03
   0  -9   1  157.70   22.17
   0  -9   1  135.13   17.75
   0   9  -1  137.34   19.70
   0   9  -1  126.55   17.69
   0  -9   0  249.78   22.17
   0  -9   0  244.38   20.81
   0   9   0  178.44   20.81
   0   9   0  239.11   18.73
   0  -9  -1   76.60   15.09
   0  -9  -1   80.31   14.50
   0   9   1   70.30   14.44
   0   9   1  107.69   14.18
   0  -9  -2  126.09   18.01
   0  -9  -2  120.95   17.17
   0   9   2  123.75   18.21
   0   9   2  103.07   13.01
   0  -9  -3  432.31   26.60
   0  -9  -3  428.93   20.68
   0  -9  -3  424.96   25.69
   0   9   3  380.94   24.45
   0   9   3  395.90   18.14
   0  -9  -4   85.97   14.96
   0  -9  -4  109.31   13.66
   0  -9  -4   99.62   15.74
   0   9   4   82.98   14.63
   0  -9  -5   71.60   14.89
   0  -9  -5   72.25   11.97
   0  -9  -5   62.75   13.53
   0   9   5   37.78   11.19
   0  -9  -6   78.95   14.83
   0  -9  -6   99.36   13.40
   0  -9  -6   96.89   16.26
   0   9   6  111.59   12.62
   0   9   6   87.33   14.50
   0  -9  -7  127.33   15.48
   0  -9  -7   94.55   16.65
   0   9   7  120.89   14.11
   0   9   7  113.54   16.06
   0   9   7  112.70   13.72
   0   9   7  126.74   14.18
   0  -9  -8  283.85   20.09
   0  -9  -8  258.23   22.89
   0   9   8  268.77   18.53
   0   9   8  274.62   20.22
   0   9   8  271.82   18.79
   0   9   8  251.40   18.60
   0  -9  -9   -7.67    7.28
   0  -9  -9    4.42    9.36
   0   9   9   -1.63    8.13
   0   9   9    2.41    8.71
   0   9   9   -0.98    7.80
   0  -9 -10   86.88   16.00
   0  -9 -10   79.40   17.56
   0   9  10   82.59   15.28
   0   9  10   89.28   15.67
   0   9  10   76.54   14.83
   0  -9 -11   44.54   10.86
   0  -9 -11   38.50   13.07
   0  -9 -11   33.69   14.44
   0   9  11   34.27   13.14
   0   9  11   26.08   11.19
   0   9  11   30.24   13.53
   0  -9 -12    6.05    9.36
   0  -9 -12   -0.65   10.73
   0  -9 -12    7.22   12.03
   0   9  12   12.42   11.90
   0   9  12    8.71   10.14
   0   9  12   23.28   13.01
   0  -9 -13    7.74   11.25
   0  -9 -13    0.33   11.77
   0  -9 -13    5.85   12.29
   0   9  13    4.36   12.94
   0   9  13   15.28   11.45
   0   9  13    1.76   12.42
   0  -9 -14  196.52   22.63
   0  -9 -14  215.05   28.74
   0  -9 -14  187.61   25.62
   0   9  14  170.18   25.36
   0   9  14  226.24   23.54
   0   9  14  224.16   29.20
   0  -9 -15  -15.74   12.23
   0  -9 -15  -10.86   12.75
   0  -9 -15   -8.58   13.01
   0   9  15  -11.64   13.66
   0   9  15   21.00   16.00
   0  -9 -16   -1.63   14.70
   0  -9 -16   11.71   17.62
   0   9  16   -8.06   15.28
   0   9  16    0.13   15.09
   0  -9 -17   17.82   17.36
   0  -9 -17   13.72   17.88
   0   9  17   10.53   18.60
   0   9  17    4.36   18.73
   0 -10   7   56.45   17.62
   0  10  -7   54.88   21.72
   0  10  -7   35.96   16.52
   0 -10   6   21.13   14.83
   0  10  -6   34.79   19.70
   0  10  -6   17.36   13.07
   0 -10   5    9.43   13.07
   0  10  -5   16.13   15.61
   0  10  -5   19.38   12.62
   0 -10   4    6.31   10.92
   0  10  -4   -8.45   12.10
   0  10  -4   -0.91    9.82
   0 -10   3    7.87   10.86
   0 -10   3    6.89   10.14
   0  10  -3    4.42   11.64
   0  10  -3    7.61   12.10
   0 -10   2    7.67   10.86
   0 -10   2    2.15    9.49
   0  10  -2   11.77   12.62
   0  10  -2   10.73   11.84
   0 -10   1   67.37   15.87
   0 -10   1   81.61   16.13
   0  10  -1   75.82   18.27
   0  10  -1   65.48   14.70
   0 -10   0   -2.02    9.17
   0 -10   0    6.18    9.56
   0  10   0   -0.72   10.08
   0  10   0   10.73    9.82
   0 -10  -1   13.33   11.05
   0 -10  -1    9.36    9.75
   0  10   1    4.16    9.75
   0  10   1    4.16    7.54
   0 -10  -2   65.68   15.54
   0 -10  -2   65.55   14.63
   0  10   2   53.00   14.37
   0  10   2   51.70   10.79
   0 -10  -3    5.59    9.82
   0 -10  -3    5.27    7.54
   0 -10  -3    4.94    9.56
   0  10   3   12.03   10.99
   0  10   3    7.35    6.96
   0 -10  -4   43.05   13.98
   0 -10  -4   40.25   10.60
   0 -10  -4   25.36   11.51
   0  10   4   21.20   11.19
   0 -10  -5  176.88   20.94
   0 -10  -5  207.96   17.69
   0 -10  -5  231.70   22.57
   0  10   5  183.58   20.35
   0 -10  -6   20.22   10.92
   0 -10  -6   17.56    8.65
   0 -10  -6   18.60   10.99
   0  10   6    2.99    8.91
   0 -10  -7  177.59   17.62
   0 -10  -7  152.30   21.78
   0  10   7  164.33   15.61
   0  10   7  152.75   18.73
   0 -10  -8  148.46   17.56
   0 -10  -8  151.00   22.37
   0  10   8  125.77   15.61
   0  10   8  123.04   17.82
   0  10   8  127.78   15.93
   0 -10  -9   83.37   15.48
   0 -10  -9   74.26   17.56
   0  10   9   74.33   14.11
   0  10   9   72.90   15.22
   0  10   9   77.71   13.98
   0 -10 -10  119.65   17.69
   0 -10 -10  119.20   20.74
   0  10  10   96.50   16.58
   0  10  10  110.61   17.56
   0  10  10  104.50   16.58
   0 -10 -11  204.91   22.30
   0 -10 -11  216.42   25.95
   0  10  11  196.19   22.11
   0  10  11  219.41   22.11
   0  10  11  187.93   21.85
   0 -10 -12    9.49   12.16
   0 -10 -12    7.61   13.33
   0  10  12   16.52   13.01
   0  10  12    7.80   11.12
   0  10  12    7.28   11.71
   0 -10 -13   15.41   12.94
   0 -10 -13   17.43   14.50
   0  10  13    4.36   12.55
   0  10  13   -0.85   10.47
   0  10  13    1.30   13.14
   0 -10 -14  443.11   33.75
   0 -10 -14  423.79   35.18
   0  10  14  351.87   31.73
   0  10  14  321.24   30.37
   0  10  14  391.15   32.71
   0 -10 -15   50.01   18.66
   0 -10 -15   49.42   18.79
   0  10  15   39.80   18.86
   0  10  15   39.80   18.01
   0 -10 -16   32.38   18.34
   0 -10 -16    7.54   16.06
   0  10  16    4.49   16.97
   0  10  16   12.68   17.23
   0 -10 -17   57.23   21.00
   0  10  17   66.07   24.58
   0  10  17   47.28   21.33
   0 -11   6  144.04   26.86
   0  11  -6  143.71   28.55
   0  11  -6  129.28   22.04
   0 -11   5    0.52   12.16
   0  11  -5   11.05   17.82
   0 -11   4  -12.49    9.82
   0  11  -4   -2.67   15.02
   0 -11   3   76.41   19.31
   0  11  -3   62.04   20.55
   0 -11   2   24.84   15.09
   0 -11   2   -0.13   10.92
   0  11  -2   17.62   15.22
   0  11  -2   31.28   14.11
   0 -11   1    1.63   10.01
   0 -11   1   -4.42    9.36
   0  11  -1    4.68   12.94
   0  11  -1   -2.21   10.34
   0 -11   0   24.06   13.98
   0 -11   0   39.47   13.59
   0  11   0   26.21   16.00
   0  11   0   52.35   14.31
   0 -11  -1  152.82   23.02
   0 -11  -1  127.20   19.57
   0  11   1  171.03   23.93
   0  11   1  175.90   19.64
   0 -11  -2  239.31   25.30
   0 -11  -2  207.18   23.41
   0  11   2  209.46   27.12
   0  11   2  222.01   19.18
   0 -11  -3   15.54   11.97
   0 -11  -3   27.44   13.53
   0  11   3   14.31   12.36
   0  11   3   15.09    8.71
   0 -11  -4   21.91   11.84
   0 -11  -4   13.92    9.49
   0 -11  -4   23.15   12.23
   0  11   4   19.18   12.23
   0 -11  -5   10.53   10.73
   0 -11  -5    8.00    8.97
   0 -11  -5   21.39   11.97
   0  11   5   13.72   11.64
   0 -11  -6   39.99   14.11
   0 -11  -6   43.96   12.55
   0 -11  -6   31.67   13.20
   0  11   6   45.91   14.96
   0 -11  -7    9.43    8.91
   0 -11  -7    1.76   11.05
   0  11   7    2.60    9.75
   0 -11  -8   86.81   15.54
   0 -11  -8   76.41   17.75
   0  11   8   81.94   14.24
   0  11   8  109.18   18.01
   0 -11  -9   83.37   16.52
   0 -11  -9   67.04   18.40
   0  11   9   74.26   14.63
   0  11   9   56.90   14.96
   0  11   9   65.74   13.98
   0 -11 -10    6.96   10.40
   0 -11 -10   -7.54   11.32
   0  11  10    4.29   10.66
   0  11  10   13.07   11.84
   0  11  10    3.32    9.95
   0 -11 -11   45.98   14.63
   0 -11 -11   50.01   17.43
   0  11  11   52.15   15.35
   0  11  11   46.89   14.70
   0  11  11   51.11   14.70
   0 -11 -12    0.00   11.12
   0 -11 -12   17.17   15.41
   0  11  12   13.20   12.88
   0  11  12   18.73   12.42
   0  11  12   11.64   13.27
   0 -11 -13    8.26   13.14
   0 -11 -13   28.48   17.17
   0  11  13   25.75   15.22
   0  11  13   18.79   13.53
   0  11  13   23.74   14.11
   0 -11 -14   21.98   15.09
   0 -11 -14   29.46   17.88
   0  11  14   17.36   16.58
   0  11  14   14.05   14.89
   0 -11 -15   90.33   21.98
   0 -11 -15   91.17   23.80
   0  11  15   87.66   22.96
   0  11  15  104.44   22.96
   0 -11 -16   44.41   20.03
   0 -11 -16   18.92   18.01
   0  11  16   46.50   21.46
   0  11  16   58.14   21.39
   0 -12   4   14.70   14.05
   0  12  -4   31.73   19.51
   0 -12   3   18.21   14.89
   0  12  -3   20.48   17.43
   0 -12   2   57.94   18.14
   0  12  -2   89.15   23.22
   0 -12   1   56.32   18.14
   0 -12   1   47.99   16.06
   0  12  -1   61.78   19.12
   0  12  -1   80.96   19.12
   0 -12   0   -2.34   11.25
   0 -12   0   -0.78   11.64
   0  12   0   -5.98   12.55
   0 -12  -1  259.14   28.29
   0 -12  -1  273.25   27.18
   0  12   1  279.36   29.72
   0 -12  -2  176.88   25.10
   0 -12  -2  167.25   24.00
   0  12   2  169.66   25.04
   0 -12  -3    7.09   12.16
   0 -12  -3    3.90   11.51
   0  12   3   -1.24   12.03
   0 -12  -4   50.66   18.47
   0 -12  -4   44.15   15.67
   0  12   4   41.29   15.48
   0 -12  -5   38.69   15.41
   0 -12  -5   35.38   14.76
   0  12   5   26.86   14.05
   0 -12  -6   25.36   14.18
   0 -12  -6   14.63   12.68
   0  12   6   16.97   12.62
   0 -12  -7   36.87   15.48
   0 -12  -7   58.79   17.04
   0  12   7   49.55   15.09
   0 -12  -8  148.14   24.65
   0 -12  -8  127.07   22.37
   0  12   8  118.87   20.68
   0 -12  -9  115.17   18.86
   0 -12  -9  123.69   23.15
   0  12   9  134.55   21.46
   0  12   9  106.58   16.52
   0 -12 -10   13.66   11.38
   0 -12 -10    3.90   13.72
   0  12  10    1.56   11.77
   0  12  10    8.65   10.34
   0 -12 -11    3.32   11.12
   0 -12 -11    6.05   14.83
   0  12  11    6.63   12.94
   0  12  11   -2.28   10.66
   0 -12 -12   70.43   16.97
   0 -12 -12   37.65   17.82
   0  12  12   56.45   20.87
   0  12  12   67.37   18.40
   0  12  12   64.38   17.23
   0 -12 -13   43.11   16.13
   0 -12 -13   28.74   17.56
   0  12  13   31.93   16.52
   0  12  13   40.97   17.04
   0 -12 -14   40.45   18.01
   0 -12 -14   36.68   19.77
   0  12  14   27.18   17.23
   0  12  14   60.93   19.38
   0 -12 -15  161.73   26.60
   0 -12 -15  145.41   28.48
   0  12  15  147.10   27.31
   0  12  15  121.73   24.13
   0 -13   2    8.52   15.54
   0  13  -2   12.29   17.23
   0 -13   1   96.89   23.74
   0  13  -1   75.76   23.35
   0 -13   0    4.88   14.37
   0 -13   0   33.75   15.80
   0  13   0   41.49   18.47
   0 -13  -1    9.17   14.24
   0 -13  -1   13.01   13.72
   0  13   1    2.08   14.89
   0 -13  -2  127.00   24.32
   0 -13  -2  114.65   22.83
   0  13   2   95.01   22.04
   0 -13  -3   99.10   22.89
   0 -13  -3   82.52   19.96
   0  13   3  109.90   22.76
   0 -13  -4   -5.46   12.03
   0 -13  -4    0.07   12.36
   0  13   4   -0.98   13.66
   0 -13  -5   75.24   20.22
   0 -13  -5   57.81   17.95
   0  13   5   68.61   18.99
   0 -13  -6  131.94   23.93
   0 -13  -6  134.61   24.45
   0  13   6  110.03   21.07
   0 -13  -7   97.61   22.57
   0 -13  -7   99.62   23.09
   0  13   7   75.43   19.57
   0 -13  -8   19.25   14.37
   0  13   8   -3.64   12.03
   0 -13  -9   51.50   18.66
   0  13   9   35.38   15.48
   0 -13 -10  245.68   30.63
   0  13  10  280.28   28.68
   0 -13 -11  127.72   25.62
   0  13  11   84.02   19.83
   0  13  11   65.29   16.32
   0 -13 -12  121.15   25.36
   0  13  12  106.71   22.96
   0  13  12  112.18   20.35
   0 -13 -13   64.57   22.24
   0  13  13   73.09   18.60
   0 -13 -14   88.05   24.84
   0  13  14  128.50   22.63
   0 -14  -1    6.24   14.70
   0 -14  -1   15.28   15.67
   0  14   1   10.14   17.62
   0 -14  -2   25.95   17.17
   0 -14  -2   40.71   18.53
   0  14   2   21.85   18.14
   0 -14  -3  146.25   26.53
   0 -14  -3  181.30   27.64
   0  14   3  179.16   29.91
   0 -14  -4   55.14   20.81
   0 -14  -4   21.00   16.06
   0  14   4   53.71   20.03
   0 -14  -5    7.80   14.50
   0 -14  -5    6.11   14.31
   0  14   5    3.58   14.83
   0 -14  -6   69.65   20.81
   0 -14  -6   88.18   22.24
   0  14   6   63.34   19.96
   0 -14  -7  172.85   28.81
   0 -14  -7  126.29   24.13
   0  14   7  152.95   25.95
   0 -14  -8   -5.46   13.79
   0  14   8    0.39   14.96
   0 -14  -9    4.10   15.15
   0  14   9   12.16   15.54
   0 -14 -10  177.07   28.68
   0  14  10  180.26   27.83
   0 -14 -11  154.25   28.22
   0  14  11  171.16   27.70
   0  14  11  173.30   22.70
   0 -14 -12   14.70   18.08
   0  14  12    7.80   13.59
   0  14  13   90.98   20.42
   0 -15  -5   45.00   19.25
   0 -15  -5   29.39   17.36
   0  15   5   25.36   19.12
   0 -15  -6    3.38   16.00
   0 -15  -6    1.89   15.28
   0  15   6  -15.09   14.31
   0 -15  -7   30.63   20.29
   0 -15  -7   36.68   19.70
   0  15   7   75.50   23.22
   0 -15  -8   21.33   20.16
   0  15   8    3.25   16.65
   0 -15  -9   -5.79   16.13
   0  15   9  -12.16   15.41
  -1  14  12   -3.58   17.23
  -1  14  11   47.54   20.48
  -1  14  11   47.47   16.26
   1 -14 -11   60.54   22.17
  -1  14  10  188.26   31.21
  -1  14  10  137.60   21.00
   1 -14 -10  124.86   27.51
  -1  14   9   75.11   21.52
   1 -14  -9   70.17   20.87
  -1  14   8   13.14   16.45
   1 -14  -8    3.32   16.32
   1 -14  -8   12.49   16.97
  -1  14   7    2.28   15.67
   1 -14  -7   14.37   17.43
   1 -14  -7   22.11   17.17
  -1  14   6   59.24   21.13
   1 -14  -6   90.33   23.93
   1 -14  -6   49.23   19.70
  -1  14   5   -5.79   14.31
   1 -14  -5   16.39   16.78
   1 -14  -5   -2.73   13.92
  -1  14   4   18.60   17.17
   1 -14  -4    8.32   16.97
   1 -14  -4    0.85   15.74
  -1  14   3   93.64   24.13
   1 -14  -3  157.37   30.69
   1 -14  -3  142.80   26.99
  -1  14   2   91.89   24.84
   1 -14  -2   82.85   23.87
   1 -14  -2  110.61   25.43
  -1  13  14   58.20   19.90
  -1  13  13  199.70   29.85
  -1  13  13  243.47   29.91
   1 -13 -13  225.91   32.64
  -1  13  12   90.20   22.89
  -1  13  12   92.34   19.90
   1 -13 -12   99.49   24.52
  -1  13  11    5.92   14.96
  -1  13  11    9.10   12.62
   1 -13 -11   22.57   16.39
  -1  13  10  189.04   27.77
  -1  13  10  192.36   23.35
   1 -13 -10  189.75   30.11
  -1  13   9  468.73   36.29
  -1  13   9  447.60   28.48
   1 -13  -9  536.95   39.47
  -1  13   8   65.42   19.25
  -1  13   8   55.86   15.41
   1 -13  -8   70.62   21.00
   1 -13  -8   94.49   24.00
  -1  13   7    4.16   14.96
   1 -13  -7   -3.19   14.05
   1 -13  -7   11.77   13.92
  -1  13   6  175.51   27.57
   1 -13  -6  180.52   28.29
   1 -13  -6  144.49   23.93
  -1  13   5   43.37   16.84
   1 -13  -5   43.76   17.88
   1 -13  -5   45.46   16.52
  -1  13   4    5.40   14.70
   1 -13  -4   -3.97   13.59
   1 -13  -4   11.58   13.53
  -1  13   3   91.24   22.63
   1 -13  -3   91.43   23.48
   1 -13  -3   64.38   18.79
  -1  13   2  294.84   33.75
   1 -13  -2  313.05   33.56
   1 -13  -2  264.54   29.91
  -1  13   1   52.09   21.72
   1 -13  -1   37.78   18.86
   1 -13  -1   56.97   17.95
  -1  13   0   -6.37   15.02
   1 -13   0    8.78   15.15
   1 -13   0   15.67   14.70
  -1  13  -1   15.41   18.27
   1 -13   1   17.23   17.75
  -1  12  15   37.26   20.55
  -1  12  15    5.01   16.45
   1 -12 -15    2.08   17.95
  -1  12  14   -8.91   14.96
  -1  12  14    3.58   15.80
  -1  12  14   -8.71   13.53
   1 -12 -14   10.40   17.43
  -1  12  13   97.22   22.30
  -1  12  13   96.18   22.70
  -1  12  13   90.91   20.16
   1 -12 -13   92.80   23.41
  -1  12  12  186.57   26.40
  -1  12  12  187.15   27.64
  -1  12  12  167.97   24.00
   1 -12 -12  192.10   29.33
  -1  12  11  123.95   26.47
  -1  12  11  108.34   21.20
  -1  12  11   77.06   17.36
   1 -12 -11  100.47   23.02
  -1  12  10   30.11   15.67
  -1  12  10   22.76   12.49
   1 -12 -10   14.83   15.74
  -1  12   9   70.23   18.66
  -1  12   9   77.77   16.06
   1 -12  -9   82.46   20.81
  -1  12   8   76.60   18.86
  -1  12   8   59.70   14.37
   1 -12  -8   49.49   16.52
  -1  12   7   14.31   14.18
   1 -12  -7   17.56   13.92
   1 -12  -7   36.48   15.28
  -1  12   6   30.11   14.96
   1 -12  -6   29.72   15.35
   1 -12  -6   30.50   15.87
  -1  12   5  208.55   26.99
   1 -12  -5  229.62   28.09
   1 -12  -5  227.34   26.79
  -1  12   4   34.86   16.06
   1 -12  -4   50.92   18.01
   1 -12  -4   41.75   16.06
  -1  12   3   11.05   14.18
   1 -12  -3   -2.28   12.62
   1 -12  -3    2.08   11.97
  -1  12   2  228.45   30.69
   1 -12  -2  248.67   29.07
   1 -12  -2  220.25   26.73
  -1  12   1   67.31   20.68
   1 -12  -1   66.00   19.05
   1 -12  -1  109.70   21.00
  -1  12   0   67.31   20.55
   1 -12   0   89.55   21.20
   1 -12   0   71.73   18.08
  -1  12  -1   -2.28   14.50
   1 -12   1    5.14   12.88
   1 -12   1    5.33   13.27
  -1  12  -2   20.42   15.87
   1 -12   2   30.04   16.26
  -1  12  -3   34.73   19.64
   1 -12   3   25.17   17.23
  -1  11  16   96.18   25.49
  -1  11  16   56.97   20.87
   1 -11 -16   69.39   24.13
  -1  11  15  106.19   24.58
  -1  11  15  117.77   27.31
  -1  11  15  132.66   26.14
   1 -11 -15  125.51   26.66
  -1  11  14   77.45   21.65
  -1  11  14   58.20   19.25
  -1  11  14   67.76   21.52
   1 -11 -14   58.72   21.39
  -1  11  13   18.99   15.67
  -1  11  13    8.32   14.18
  -1  11  13   12.10   14.05
   1 -11 -13   29.91   17.23
  -1  11  12   94.55   19.18
  -1  11  12  136.37   23.15
  -1  11  12   86.81   18.60
   1 -11 -12  108.34   23.09
  -1  11  11  161.14   22.11
  -1  11  11  154.44   22.89
  -1  11  11  144.23   22.24
   1 -11 -11  157.37   24.97
  -1  11  10   40.90   14.37
  -1  11  10   38.82   14.63
  -1  11  10   23.09   12.42
   1 -11 -10   24.39   15.74
  -1  11   9   79.92   16.32
  -1  11   9   94.81   18.73
  -1  11   9   80.90   15.80
   1 -11  -9  101.32   21.39
  -1  11   8  834.91   32.38
  -1  11   8  789.65   38.11
  -1  11   8  794.98   31.67
   1 -11  -8  810.59   41.42
  -1  11   7   77.19   14.83
  -1  11   7   77.45   17.75
  -1  11   7   70.30   13.79
   1 -11  -7   77.77   18.47
   1 -11  -7   77.90   18.40
  -1  11   6  144.49   22.24
   1 -11  -6  187.74   26.14
   1 -11  -6  167.06   24.32
  -1  11   5  415.41   30.37
   1 -11  -5  425.36   31.86
   1 -11  -5  454.62   31.67
  -1  11   4   94.88   19.05
   1 -11  -4  120.11   21.07
   1 -11  -4  128.04   21.52
  -1  11   3   35.12   15.15
   1 -11  -3   32.97   13.98
   1 -11  -3   32.32   14.11
  -1  11   2   44.94   16.58
   1 -11  -2   48.77   15.80
   1 -11  -2   56.06   16.26
  -1  11   1  252.57   28.68
   1 -11  -1  230.92   26.86
   1 -11  -1  243.21   25.69
  -1  11   0  157.05   24.97
   1 -11   0  184.10   27.57
   1 -11   0  171.42   23.87
  -1  11  -1   -7.54   11.32
   1 -11   1   -7.74   10.40
   1 -11   1    4.75   11.25
  -1  11  -2   13.85   15.15
   1 -11   2   21.65   15.02
   1 -11   2    6.63   11.58
  -1  11  -3   54.75   19.90
   1 -11   3   52.22   19.18
  -1  11  -4    8.13   16.26
  -1  11  -4   29.59   14.83
   1 -11   4    3.06   13.33
  -1  11  -5   18.53   19.44
  -1  11  -5   21.39   14.70
   1 -11   5    2.73   14.63
  -1  10  16  -13.53   16.91
  -1  10  16   -7.74   16.45
   1 -10 -16   -8.13   14.63
   1 -10 -16    7.54   17.49
  -1  10  15   48.12   19.64
  -1  10  15   60.41   18.79
  -1  10  15   47.15   18.86
   1 -10 -15   62.10   19.25
   1 -10 -15   58.20   20.61
  -1  10  14  146.97   24.84
  -1  10  14  125.57   22.30
  -1  10  14  121.15   23.28
   1 -10 -14  144.30   23.09
   1 -10 -14  142.93   25.43
  -1  10  13  209.33   27.38
  -1  10  13  191.51   25.30
  -1  10  13  177.20   24.97
   1 -10 -13  153.99   22.24
   1 -10 -13  219.08   29.33
  -1  10  12    5.85   12.88
  -1  10  12    9.75   12.68
  -1  10  12    3.32   11.58
   1 -10 -12   14.18   11.64
   1 -10 -12    5.59   12.88
  -1  10  11  188.97   23.54
  -1  10  11  193.79   24.00
  -1  10  11  186.44   22.83
   1 -10 -11  165.82   19.90
   1 -10 -11  209.72   27.31
  -1  10  10  192.10   21.72
  -1  10  10  206.34   23.54
  -1  10  10  216.16   22.17
   1 -10 -10  219.15   20.09
   1 -10 -10  242.17   26.92
  -1  10   9   -1.50    9.62
  -1  10   9    1.11   10.21
  -1  10   9   13.07   10.21
   1 -10  -9   -0.07    7.87
   1 -10  -9   -2.47   10.21
  -1  10   8  167.19   18.34
  -1  10   8  167.84   21.91
  -1  10   8  151.78   18.14
   1 -10  -8  194.37   17.82
   1 -10  -8  175.06   23.09
  -1  10   7   14.63   10.01
  -1  10   7   -3.97    9.30
  -1  10   7    8.65    8.26
   1 -10  -7   -0.39   10.27
   1 -10  -7   -0.07    7.28
   1 -10  -7   -0.98    9.56
  -1  10   6  266.29   18.79
  -1  10   6  237.16   23.02
  -1  10   6  239.24   18.40
   1 -10  -6  265.38   25.36
   1 -10  -6  252.77   17.30
   1 -10  -6  234.30   23.93
  -1  10   5  184.03   16.52
  -1  10   5  216.35   22.50
   1 -10  -5  201.20   23.54
   1 -10  -5  203.15   15.61
   1 -10  -5  201.26   23.15
  -1  10   4   92.54   13.59
  -1  10   4  100.21   18.21
   1 -10  -4   97.80   18.73
   1 -10  -4  103.46   12.88
   1 -10  -4  100.80   18.66
  -1  10   3    8.06   10.99
   1 -10  -3    7.41   10.53
   1 -10  -3    1.50    9.56
  -1  10   2  129.08   15.54
  -1  10   2  100.53   18.79
   1 -10  -2  110.68   19.64
   1 -10  -2  121.86   20.29
  -1  10   1  146.84   21.46
   1 -10  -1  163.03   22.50
   1 -10  -1  190.86   21.59
  -1  10   0    8.52   11.12
   1 -10   0   18.86   12.36
   1 -10   0   34.66   13.07
  -1  10  -1   90.85   20.09
   1 -10   1  134.42   23.15
   1 -10   1  103.07   18.27
  -1  10  -2  216.03   28.61
   1 -10   2  171.03   23.67
   1 -10   2  211.21   23.09
  -1  10  -3   11.77   14.76
  -1  10  -3    7.54   10.73
   1 -10   3    4.16   12.10
   1 -10   3   -5.14   10.60
  -1  10  -4   45.13   19.44
  -1  10  -4   42.46   14.63
   1 -10   4   28.48   14.83
  -1  10  -5    3.64   16.26
  -1  10  -5    3.06   11.90
   1 -10   5   -7.54   12.42
  -1  10  -6    5.07   15.93
  -1  10  -6   11.51   14.11
   1 -10   6   20.16   15.28
  -1  10  -7   65.48   24.97
  -1   9  17   -5.01   17.56
  -1   9  17   22.63   19.31
   1  -9 -17   12.03   16.71
   1  -9 -17    1.50   16.19
  -1   9  16    5.92   17.69
  -1   9  16   -0.59   15.67
  -1   9  16    4.16   16.26
   1  -9 -16    5.46   13.92
   1  -9 -16    9.95   16.13
   1  -9 -16    6.44   15.09
  -1   9  15   23.54   16.52
  -1   9  15   13.40   14.50
  -1   9  15   36.09   18.34
   1  -9 -15   42.53   16.13
   1  -9 -15   22.96   16.19
   1  -9 -15   32.97   17.82
  -1   9  14  -13.33   12.68
  -1   9  14    1.50   12.23
  -1   9  14    4.42   14.11
   1  -9 -14    0.91   11.64
   1  -9 -14   16.65   13.59
   1  -9 -14   11.71   14.05
  -1   9  13   86.62   19.38
  -1   9  13   61.58   17.04
  -1   9  13   44.74   16.45
   1  -9 -13   80.64   15.87
   1  -9 -13   84.47   18.53
   1  -9 -13  100.60   20.81
  -1   9  12   14.18   12.16
  -1   9  12   13.98   12.55
  -1   9  12    7.41   11.64
   1  -9 -12    5.20   10.27
   1  -9 -12    8.78   10.86
   1  -9 -12   18.40   14.37
  -1   9  11   12.55   12.10
  -1   9  11   -2.93   10.14
  -1   9  11    5.07   10.73
   1  -9 -11    9.88    8.78
   1  -9 -11    4.75   10.08
   1  -9 -11   -5.79   11.45
  -1   9  10  226.89   21.65
  -1   9  10  207.77   22.17
  -1   9  10  211.73   22.04
   1  -9 -10  247.76   20.16
   1  -9 -10  235.86   25.10
  -1   9   9  177.07   18.86
  -1   9   9  181.89   21.00
  -1   9   9  180.72   19.77
   1  -9  -9  200.35   18.01
   1  -9  -9  166.28   22.70
  -1   9   8    4.68    8.78
  -1   9   8   -6.70    8.39
  -1   9   8   -2.73    7.67
   1  -9  -8   -5.66    6.70
   1  -9  -8    0.85    9.17
  -1   9   7   18.86    8.65
  -1   9   7   11.64   10.08
  -1   9   7    4.29    8.26
  -1   9   7   13.20    8.65
   1  -9  -7   10.14   10.27
   1  -9  -7    8.39    7.48
   1  -9  -7   21.78   11.25
  -1   9   6  244.12   17.43
  -1   9   6  216.61   20.74
  -1   9   6  246.40   17.88
  -1   9   6  195.22   16.45
   1  -9  -6  235.80   22.63
   1  -9  -6  262.85   16.39
   1  -9  -6  231.44   22.11
  -1   9   5  181.76   15.41
  -1   9   5  151.32   19.77
  -1   9   5  186.05   15.93
  -1   9   5  151.19   14.63
   1  -9  -5  160.75   19.77
   1  -9  -5  148.85   13.66
   1  -9  -5  160.88   19.38
  -1   9   4   34.21    9.36
  -1   9   4   29.59   11.77
   1  -9  -4   23.15   10.79
   1  -9  -4   26.21    7.93
   1  -9  -4   19.83   11.12
  -1   9   3    3.12    6.96
  -1   9   3    2.54    8.91
   1  -9  -3    3.84    8.91
   1  -9  -3   -8.00    7.28
  -1   9   2   90.91   16.65
  -1   9   2  129.93   13.14
   1  -9  -2  127.33   19.70
   1  -9  -2  144.62   19.44
  -1   9   1    0.72    9.95
   1  -9  -1   -5.92    7.09
   1  -9  -1   -1.56    8.32
  -1   9   0  159.06   15.15
  -1   9   0  144.04   21.26
   1  -9   0  168.69   22.17
   1  -9   0  159.45   19.12
  -1   9  -1  417.42   22.04
  -1   9  -1  375.48   28.48
   1  -9   1  386.34   28.35
   1  -9   1  375.02   25.23
  -1   9  -2   34.01   11.05
  -1   9  -2   36.09   14.76
  -1   9  -2   25.82   11.25
   1  -9   2   32.19   13.59
   1  -9   2   30.30   11.71
  -1   9  -3    8.13   10.08
  -1   9  -3   -6.24   10.01
  -1   9  -3    8.78   10.14
   1  -9   3    2.15   10.40
   1  -9   3    7.41    9.30
  -1   9  -4   46.82   14.05
  -1   9  -4   45.00   16.26
  -1   9  -4   45.72   13.40
   1  -9   4   24.84   13.14
   1  -9   4   45.78   13.01
  -1   9  -5   27.25   15.67
  -1   9  -5   30.30   13.53
   1  -9   5   36.16   15.61
  -1   9  -6   -3.32   15.09
  -1   9  -6    9.75   12.88
   1  -9   6  -10.27   11.45
  -1   9  -7   51.11   21.78
  -1   9  -7   37.78   16.19
   1  -9   7    2.99   13.46
  -1   9  -8   44.41   21.59
  -1   9  -8   16.97   16.39
   1  -9   8   24.06   15.93
  -1   8  17   41.75   21.52
  -1   8  17   42.85   20.48
   1  -8 -17   39.47   18.01
   1  -8 -17   38.76   19.12
  -1   8  16  120.76   26.34
  -1   8  16   89.41   21.20
  -1   8  16   49.03   19.51
   1  -8 -16   64.31   19.57
   1  -8 -16   73.42   20.81
  -1   8  15   17.82   16.97
  -1   8  15    9.95   14.18
  -1   8  15   -4.03   15.28
   1  -8 -15    2.34   12.75
   1  -8 -15  -11.25   12.68
   1  -8 -15    7.54   14.18
  -1   8  14   56.38   18.27
  -1   8  14   68.74   17.56
  -1   8  14   44.81   17.23
   1  -8 -14   83.37   17.95
   1  -8 -14   63.47   17.69
   1  -8 -14   72.51   19.12
  -1   8  13  306.48   28.22
  -1   8  13  315.72   26.73
  -1   8  13  313.11   29.72
   1  -8 -13  334.31   25.49
   1  -8 -13  351.09   27.83
   1  -8 -13  372.88   29.00
  -1   8  12   70.30   17.23
  -1   8  12   41.94   13.92
  -1   8  12   68.22   14.50
  -1   8  12   49.23   15.67
   1  -8 -12   61.71   14.18
   1  -8 -12   41.49   13.46
   1  -8 -12   42.07   14.63
  -1   8  11   -7.54    9.49
  -1   8  11   -0.13    9.69
  -1   8  11    0.65   10.53
   1  -8 -11    7.61    9.04
   1  -8 -11   24.13   11.05
   1  -8 -11   13.20   11.64
  -1   8  10  137.28   18.60
  -1   8  10  168.69   19.51
  -1   8  10  139.88   19.31
   1  -8 -10  146.84   16.00
   1  -8 -10  164.59   18.40
   1  -8 -10  178.05   22.63
  -1   8   9  339.00   22.57
  -1   8   9  409.42   25.04
  -1   8   9  351.74   23.74
   1  -8  -9  359.16   18.86
   1  -8  -9  406.63   22.37
   1  -8  -9  389.39   26.53
  -1   8   8  209.72   18.08
  -1   8   8  242.43   20.55
  -1   8   8  215.96   18.79
  -1   8   8  221.88   19.05
   1  -8  -8  246.92   17.49
   1  -8  -8  218.95   21.26
  -1   8   7    2.08    7.35
  -1   8   7    3.71    8.32
  -1   8   7    0.26    6.96
  -1   8   7    5.01    6.89
   1  -8  -7    5.07    6.57
   1  -8  -7    2.08    8.26
  -1   8   6    0.91    6.37
  -1   8   6    5.66    8.19
  -1   8   6    7.74    7.67
  -1   8   6    2.08    6.57
   1  -8  -6    3.06    8.52
   1  -8  -6    7.35    6.63
   1  -8  -6    2.47    8.06
  -1   8   5  268.05   16.06
  -1   8   5  229.68   19.57
  -1   8   5  244.83   16.45
  -1   8   5  238.07   15.80
   1  -8  -5  253.61   20.81
   1  -8  -5  249.45   14.70
   1  -8  -5  272.86   21.20
  -1   8   4   34.40    8.52
  -1   8   4   43.57   11.90
  -1   8   4   31.02    8.52
  -1   8   4   34.21    8.45
   1  -8  -4   39.67   11.64
   1  -8  -4   43.50    8.65
   1  -8  -4   33.36   11.05
  -1   8   3   55.53    9.36
  -1   8   3   50.40   12.16
   1  -8  -3   43.05   11.97
   1  -8  -3   54.88    8.65
   1  -8  -3   50.59   11.71
  -1   8   2  352.33   16.78
  -1   8   2  331.58   23.61
   1  -8  -2  368.91   24.45
   1  -8  -2  365.79   23.22
  -1   8   1  256.21   15.41
  -1   8   1  244.05   21.59
  -1   8   1  268.57   16.00
   1  -8  -1  271.30   21.98
   1  -8  -1  272.08   20.81
  -1   8   0    5.46    6.96
  -1   8   0   -2.28    7.93
  -1   8   0    3.19    6.89
   1  -8   0   -1.82    7.54
   1  -8   0    9.88    8.32
  -1   8  -1  574.66   22.89
  -1   8  -1  519.39   30.24
  -1   8  -1  556.78   23.28
  -1   8  -1  478.81   21.85
   1  -8   1  562.57   30.24
   1  -8   1  548.26   27.31
  -1   8  -2  354.86   20.61
  -1   8  -2  329.63   26.27
  -1   8  -2  351.61   21.33
  -1   8  -2  323.71   20.03
   1  -8   2  373.46   26.73
   1  -8   2  360.78   23.35
  -1   8  -3   31.67   10.79
  -1   8  -3    0.91   10.21
  -1   8  -3   25.82   10.73
   1  -8   3   41.03   13.20
   1  -8   3   36.35   11.25
  -1   8  -4   -0.13    9.23
  -1   8  -4   -4.36   10.40
  -1   8  -4    4.88    9.69
   1  -8   4    5.01   10.01
   1  -8   4    3.12    8.52
  -1   8  -5  120.04   18.40
  -1   8  -5   98.78   20.55
  -1   8  -5  106.19   18.27
   1  -8   5   92.15   18.53
   1  -8   5  109.12   17.56
  -1   8  -6   47.80   15.54
  -1   8  -6   31.28   17.69
  -1   8  -6   44.15   15.61
   1  -8   6   30.56   14.57
  -1   8  -7    6.50   14.11
  -1   8  -7   -1.43   14.89
  -1   8  -7   14.37   13.33
   1  -8   7    3.64   11.38
  -1   8  -8   10.27   15.74
  -1   8  -8   30.11   19.96
  -1   8  -8   12.94   15.15
   1  -8   8   10.53   13.72
  -1   8  -9   28.09   19.51
  -1   8  -9   14.70   18.73
  -1   8  -9   32.45   17.10
   1  -8   9   23.02   14.96
  -1   7  17  -11.45   15.93
  -1   7  17   16.32   19.57
   1  -7 -17    7.09   16.65
   1  -7 -17  -16.91   14.31
  -1   7  16   41.16   19.70
  -1   7  16   16.78   16.19
  -1   7  16   29.98   18.21
   1  -7 -16   41.94   18.21
   1  -7 -16   12.62   16.32
  -1   7  15  109.05   23.61
  -1   7  15  116.21   21.72
  -1   7  15  113.35   23.61
   1  -7 -15  107.30   21.65
   1  -7 -15  117.05   22.30
   1  -7 -15   83.76   18.21
  -1   7  14   29.00   15.67
  -1   7  14    8.39   13.79
  -1   7  14   35.31   16.00
   1  -7 -14   51.70   16.13
   1  -7 -14   36.74   15.54
   1  -7 -14   17.04   12.62
  -1   7  13   51.50   16.84
  -1   7  13   97.28   18.73
  -1   7  13   73.48   18.66
   1  -7 -13   99.30   18.73
   1  -7 -13   80.12   17.75
   1  -7 -13   82.98   16.97
  -1   7  12  219.99   23.35
  -1   7  12  202.31   21.59
  -1   7  12  222.66   17.30
  -1   7  12  206.99   25.82
   1  -7 -12  237.42   21.91
   1  -7 -12  224.55   22.57
   1  -7 -12  246.40   23.54
  -1   7  11   48.84   14.24
  -1   7  11   37.59   12.49
  -1   7  11   44.28   10.34
  -1   7  11   46.04   14.37
   1  -7 -11   35.70   12.03
   1  -7 -11   39.73   13.27
   1  -7 -11   59.57   14.24
  -1   7  10  116.14   17.36
  -1   7  10  116.47   17.04
  -1   7  10  105.54   17.04
   1  -7 -10  102.62   14.24
   1  -7 -10  100.60   15.54
   1  -7 -10  102.88   17.10
  -1   7   9   14.70    9.56
  -1   7   9   25.23   10.47
  -1   7   9    7.22    8.32
  -1   7   9    8.13    8.97
   1  -7  -9   17.23    8.65
   1  -7  -9   14.44    8.65
   1  -7  -9   22.04   10.73
  -1   7   8  266.75   18.86
  -1   7   8  272.41   20.03
  -1   7   8  265.45   18.99
  -1   7   8  251.86   19.44
   1  -7  -8  272.34   16.13
   1  -7  -8  299.33   18.47
   1  -7  -8  289.05   21.65
   1  -7  -8  232.74   17.04
  -1   7   7  106.58   13.72
  -1   7   7  118.81   15.54
  -1   7   7  104.70   13.53
  -1   7   7   81.87   12.36
   1  -7  -7  103.01   12.68
   1  -7  -7  100.60   15.28
   1  -7  -7   94.88   12.49
  -1   7   6    7.35    6.57
  -1   7   6    1.82    6.89
  -1   7   6   -3.32    5.79
  -1   7   6   -4.42    6.11
   1  -7  -6    5.40    7.48
   1  -7  -6    0.26    5.53
   1  -7  -6    3.64    7.41
   1  -7  -6    2.02    5.46
  -1   7   5   61.65    9.88
  -1   7   5   55.66   11.71
  -1   7   5   56.51    9.88
  -1   7   5   50.33    9.23
   1  -7  -5   53.52   11.64
   1  -7  -5   72.44    9.56
   1  -7  -5   41.29   10.27
   1  -7  -5   61.39    9.56
  -1   7   4  179.48   12.62
  -1   7   4  156.92   15.93
  -1   7   4  196.45   13.98
  -1   7   4  150.28   12.88
   1  -7  -4  178.24   17.56
   1  -7  -4  187.28   11.77
   1  -7  -4  182.99   17.30
  -1   7   3   32.25    7.80
  -1   7   3   24.65    9.75
  -1   7   3   36.74    8.19
  -1   7   3   32.32    7.93
   1  -7  -3   38.24   10.47
   1  -7  -3   28.74    9.36
  -1   7   2  325.15   15.02
  -1   7   2  311.94   21.26
  -1   7   2  342.38   16.13
  -1   7   2  306.68   15.74
   1  -7  -2  332.69   21.52
   1  -7  -2  336.66   20.81
  -1   7   1  221.49   13.33
  -1   7   1  179.03   18.08
  -1   7   1  228.51   14.24
  -1   7   1  226.69   13.27
   1  -7  -1  203.15   18.21
   1  -7  -1  230.66   18.01
  -1   7   0   50.79    8.71
  -1   7   0   36.81   10.99
  -1   7   0   62.10   10.08
  -1   7   0   50.46    9.04
  -1   7   0   47.15    9.43
   1  -7   0   46.24   11.25
   1  -7   0   44.22   10.86
  -1   7  -1   39.08    8.91
  -1   7  -1   44.35   12.49
  -1   7  -1   40.71    9.30
  -1   7  -1   46.11    9.62
   1  -7   1   33.42   10.73
   1  -7   1   48.51   10.92
  -1   7  -2  322.74   18.34
  -1   7  -2  327.81   24.06
  -1   7  -2  317.86   19.18
  -1   7  -2  303.36   18.86
   1  -7   2  345.17   23.87
   1  -7   2  335.55   20.74
  -1   7  -3  298.22   19.51
  -1   7  -3  260.83   23.41
  -1   7  -3  311.23   20.48
  -1   7  -3  281.77   19.64
   1  -7   3  326.51   23.93
   1  -7   3  298.61   19.96
  -1   7  -4    1.56    8.78
  -1   7  -4   -7.87    9.17
  -1   7  -4    2.34    8.45
   1  -7   4   -2.99    7.67
   1  -7   4    1.04    6.89
  -1   7  -5  359.48   24.58
  -1   7  -5  394.47   30.43
  -1   7  -5  364.03   25.10
   1  -7   5  339.65   28.55
   1  -7   5  356.62   21.65
  -1   7  -6  124.60   19.12
  -1   7  -6  107.04   20.87
  -1   7  -6  127.78   18.92
   1  -7   6  104.76   19.96
  -1   7  -7   -8.39   11.77
  -1   7  -7   -7.74   11.25
   1  -7   7    1.43   11.12
  -1   7  -8   84.60   20.42
   1  -7   8   56.64   16.65
  -1   7  -9   26.99   17.23
   1  -7   9    5.14   13.59
  -1   7 -10   56.32   22.11
   1  -7  10   26.66   16.91
  -1   6  17    4.55   17.49
   1  -6 -17   14.96   17.56
   1  -6 -17   14.24   18.60
  -1   6  16  219.80   30.56
  -1   6  16  167.45   25.75
   1  -6 -16  211.60   29.91
   1  -6 -16  264.02   34.53
  -1   6  15  112.05   23.35
  -1   6  15   86.42   19.57
  -1   6  15  106.58   23.80
   1  -6 -15   85.58   20.61
   1  -6 -15  109.05   22.11
  -1   6  14  -14.63   11.19
  -1   6  14    7.35   12.62
  -1   6  14   -0.07   13.66
   1  -6 -14    7.41   12.55
   1  -6 -14   12.94   13.98
   1  -6 -14    5.79   10.14
  -1   6  13    5.33   12.88
  -1   6  13    9.36   11.71
  -1   6  13    8.52   12.68
   1  -6 -13    9.82   12.10
   1  -6 -13    5.27   11.12
   1  -6 -13    8.32   10.40
  -1   6  12  735.48   34.99
  -1   6  12  684.95   32.19
  -1   6  12  736.19   25.82
  -1   6  12  741.85   37.13
   1  -6 -12  762.14   33.49
   1  -6 -12  736.58   34.47
   1  -6 -12  722.28   32.12
  -1   6  11  301.54   23.54
  -1   6  11  340.49   23.35
  -1   6  11  347.26   18.79
  -1   6  11  320.27   25.49
   1  -6 -11  341.66   23.15
   1  -6 -11  371.51   24.58
   1  -6 -11  333.53   23.41
  -1   6  10  305.12   22.50
  -1   6  10  304.53   21.33
  -1   6  10  323.19   17.82
  -1   6  10  289.05   23.15
   1  -6 -10  325.54   21.20
   1  -6 -10  319.16   21.72
   1  -6 -10  307.65   22.17
   1  -6 -10  291.46   33.56
  -1   6   9  170.57   17.43
  -1   6   9  182.93   17.62
  -1   6   9  166.99   17.49
  -1   6   9  180.85   18.53
   1  -6  -9  187.61   16.13
   1  -6  -9  194.24   17.30
   1  -6  -9  138.51   16.84
   1  -6  -9   90.59   13.72
  -1   6   8 1551.20   38.56
  -1   6   8 1540.47   38.76
  -1   6   8 1445.79   37.78
  -1   6   8 1453.27   38.76
   1  -6  -8 1518.10   34.47
   1  -6  -8 1596.01   36.61
   1  -6  -8 1600.69   41.49
  -1   6   7  122.58   14.44
  -1   6   7  120.50   14.89
  -1   6   7  111.00   13.53
  -1   6   7  100.80   13.79
   1  -6  -7  118.74   11.84
   1  -6  -7  112.96   12.49
   1  -6  -7  113.54   15.22
   1  -6  -7  104.83   12.42
  -1   6   6  185.14   14.37
  -1   6   6  192.29   16.26
  -1   6   6  174.21   14.37
  -1   6   6  163.61   14.57
   1  -6  -6  178.31   11.97
   1  -6  -6  180.59   12.94
   1  -6  -6  184.16   16.71
   1  -6  -6  160.88   13.33
  -1   6   5  712.85   22.11
  -1   6   5  696.92   26.01
  -1   6   5  721.69   22.96
  -1   6   5  691.26   22.76
   1  -6  -5  721.24   27.25
   1  -6  -5  741.85   20.22
   1  -6  -5  714.60   26.92
   1  -6  -5  644.31   20.55
  -1   6   4  642.94   19.96
  -1   6   4  587.02   24.00
  -1   6   4  637.61   20.74
  -1   6   4  595.08   20.09
   1  -6  -4  651.14   25.82
   1  -6  -4  633.12   17.75
   1  -6  -4  603.60   24.78
   1  -6  -4  591.05   18.40
  -1   6   3  140.72   11.19
  -1   6   3  127.78   14.70
  -1   6   3  159.19   12.29
  -1   6   3  126.61   11.77
   1  -6  -3  119.91   14.31
   1  -6  -3  137.47   14.89
  -1   6   2   10.86    5.72
  -1   6   2   18.53    8.32
  -1   6   2   13.40    6.11
  -1   6   2   20.03    6.96
   1  -6  -2   21.78    8.65
   1  -6  -2   16.84    7.67
  -1   6   1   12.29    5.46
  -1   6   1    9.95    8.19
  -1   6   1   16.13    6.24
  -1   6   1    8.26    6.05
  -1   6   1   11.84    4.88
   1  -6  -1   10.27    7.28
   1  -6  -1   14.11    7.48
  -1   6   0   63.47    8.97
  -1   6   0   54.62   11.38
  -1   6   0   67.18    9.62
  -1   6   0   61.65    9.36
  -1   6   0   69.78    9.49
   1  -6   0   64.83   11.32
   1  -6   0   65.48   11.32
  -1   6  -1   56.32    9.23
  -1   6  -1   44.81   11.45
  -1   6  -1   39.73    8.45
  -1   6  -1   44.74    9.10
   1  -6   1   40.25   10.01
   1  -6   1   47.93   10.40
  -1   6  -2  236.19   15.41
  -1   6  -2  210.82   19.44
  -1   6  -2  256.54   16.52
  -1   6  -2  243.92   16.84
   1  -6   2  248.35   19.25
   1  -6   2  240.48   16.65
  -1   6  -3  143.39   14.31
  -1   6  -3  135.98   18.21
  -1   6  -3  137.02   15.02
  -1   6  -3  137.47   15.09
   1  -6   3  153.27   16.91
   1  -6   3  146.45   14.31
  -1   6  -4   37.78   10.27
  -1   6  -4   30.69   11.64
  -1   6  -4   41.49   11.19
  -1   6  -4   34.79   10.34
   1  -6   4   44.94   12.49
   1  -6   4   29.78    8.91
  -1   6  -5   38.89   11.71
   1  -6   5   16.97    9.43
   1  -6   5   22.17    8.65
  -1   6  -6   79.27   15.28
   1  -6   6   73.09   16.52
   1  -6   6   81.03   12.62
  -1   6  -7   88.70   18.21
   1  -6   7   56.90   16.00
  -1   6  -8   24.84   14.50
   1  -6   8   19.90   13.33
  -1   6  -9    2.15   13.66
   1  -6   9   -7.74   12.29
  -1   6 -10    1.24   15.87
   1  -6  10    0.20   13.07
  -1   6 -11   54.56   22.04
   1  -6  11    7.74   15.80
  -1   5  17    3.84   16.65
   1  -5 -17   -6.44   15.74
   1  -5 -17   12.16   19.31
  -1   5  16    1.95   13.92
   1  -5 -16    3.90   14.31
   1  -5 -16   -0.13   16.00
  -1   5  15   64.83   19.96
  -1   5  15   69.91   18.92
   1  -5 -15   82.33   20.74
   1  -5 -15   45.91   18.27
  -1   5  14  231.18   27.05
  -1   5  14  273.32   27.12
  -1   5  14  244.83   29.13
   1  -5 -14  265.06   27.44
   1  -5 -14  309.80   29.85
  -1   5  13  533.30   32.84
  -1   5  13  605.68   32.25
  -1   5  13  616.28   28.81
  -1   5  13  573.62   35.57
   1  -5 -13  570.50   32.84
   1  -5 -13  585.78   34.47
   1  -5 -13  615.89   28.22
  -1   5  12  217.46   23.02
  -1   5  12  238.46   22.37
  -1   5  12  236.58   17.43
  -1   5  12  249.65   25.62
   1  -5 -12  228.25   22.17
   1  -5 -12  274.03   24.58
   1  -5 -12  259.73   20.74
  -1   5  11  287.88   22.89
  -1   5  11  309.80   22.57
  -1   5  11  340.10   18.47
  -1   5  11  261.55   24.19
   1  -5 -11  350.64   23.87
   1  -5 -11  342.90   24.39
   1  -5 -11  316.04   21.00
   1  -5 -11  270.13   25.36
  -1   5  10  197.10   19.05
  -1   5  10  205.10   18.21
  -1   5  10  203.28   14.83
  -1   5  10  184.49   19.51
  -1   5  10  184.68   20.22
   1  -5 -10  196.39   18.14
   1  -5 -10  220.06   19.44
   1  -5 -10  174.73   17.17
   1  -5 -10  166.54   18.34
  -1   5   9   47.15   11.58
  -1   5   9   56.64   11.45
  -1   5   9   47.54    9.30
  -1   5   9   38.30   10.60
  -1   5   9   46.50   11.64
   1  -5  -9   49.10   10.92
   1  -5  -9   67.76   13.01
   1  -5  -9   57.88   11.58
   1  -5  -9   47.15   11.19
  -1   5   8   31.60    9.88
  -1   5   8   39.73   10.34
  -1   5   8   26.53    9.30
  -1   5   8   24.06    9.49
   1  -5  -8   24.78    8.45
   1  -5  -8   21.72    8.39
   1  -5  -8   34.92    9.49
   1  -5  -8   29.98    9.10
  -1   5   7 1058.48   30.11
  -1   5   7 1066.80   30.69
  -1   5   7 1013.28   29.91
  -1   5   7  978.23   30.37
   1  -5  -7 1019.53   27.44
   1  -5  -7 1077.99   28.22
   1  -5  -7 1021.54   30.82
   1  -5  -7    2.73    3.71
  -1   5   6   55.99   10.08
  -1   5   6   48.90   10.27
  -1   5   6   53.78    9.69
  -1   5   6   47.99    9.82
   1  -5  -6   57.10    9.04
   1  -5  -6   56.97    9.17
   1  -5  -6   55.60   10.40
   1  -5  -6   43.24    8.39
  -1   5   5    3.38    5.92
  -1   5   5    5.33    6.63
  -1   5   5    4.68    5.66
  -1   5   5    9.56    6.37
   1  -5  -5    0.98    4.68
   1  -5  -5    9.23    6.57
   1  -5  -5    0.39    4.55
   1  -5  -5    2.15    6.05
   1  -5  -5    6.50    5.79
  -1   5   4    5.14    5.59
  -1   5   4    1.63    4.62
  -1   5   4    0.20    6.44
  -1   5   4    3.64    5.79
  -1   5   4    9.17    5.59
   1  -5  -4    6.31    4.29
   1  -5  -4    2.73    4.36
   1  -5  -4    3.19    5.98
   1  -5  -4    3.84    4.55
   1  -5  -4    0.20    5.33
   1  -5  -4    0.91    4.55
  -1   5   3  151.91   10.73
  -1   5   3  109.64   12.88
  -1   5   3  145.93   11.58
  -1   5   3  133.50   11.38
   1  -5  -3  137.15   13.53
   1  -5  -3  156.39   13.98
   1  -5  -3  132.20   10.21
  -1   5   2   59.05    7.87
  -1   5   2   62.82   10.92
  -1   5   2   63.14    8.52
  -1   5   2   54.56    8.19
   1  -5  -2   53.97   10.01
   1  -5  -2   60.22   10.21
   1  -5  -2   62.69    8.26
  -1   5   1  140.92   10.08
  -1   5   1  112.11   13.66
  -1   5   1  132.46   10.86
  -1   5   1  124.86   11.05
  -1   5   1  134.81    8.91
   1  -5  -1  141.70   13.53
   1  -5  -1  121.93   12.68
   1  -5  -1  124.86    9.49
   1  -5  -1  132.85    9.04
  -1   5   0    8.84    5.40
  -1   5   0   10.40    5.33
  -1   5   0    1.50    5.98
  -1   5   0    8.06    5.66
  -1   5   0    8.45    5.66
   1  -5   0    1.82    6.44
   1  -5   0    2.34    5.72
   1  -5   0    5.66    4.94
  -1   5  -1   77.90    9.49
  -1   5  -1   65.16   11.90
  -1   5  -1   68.93    9.62
  -1   5  -1   56.58    9.36
   1  -5   1   63.79   11.19
   1  -5   1   57.49    9.62
   1  -5   1   83.82    9.75
  -1   5  -2   97.54   11.38
  -1   5  -2   84.21   13.27
  -1   5  -2  105.87   12.03
  -1   5  -2   90.98   11.71
   1  -5   2   96.83   13.40
   1  -5   2   86.42   11.12
   1  -5   2   88.37   10.47
  -1   5  -3  258.49   16.39
  -1   5  -3  268.77   20.22
  -1   5  -3  296.34   17.49
  -1   5  -3  276.50   17.43
   1  -5   3  315.07   20.09
   1  -5   3  309.47   17.04
   1  -5   3  294.32   15.80
  -1   5  -4  131.16   14.50
  -1   5  -4  152.23   15.22
   1  -5   4  141.50   11.25
   1  -5   4  134.35   15.93
   1  -5   4  136.56   12.88
   1  -5   4  125.64   12.88
  -1   5  -5   21.85    9.17
  -1   5  -5   17.30    9.36
   1  -5   5   21.20    7.02
   1  -5   5    4.81    9.56
   1  -5   5   14.11    7.35
  -1   5  -6  131.23   17.04
  -1   5  -6  101.64   15.87
   1  -5   6  126.42   13.01
   1  -5   6  101.97   16.84
   1  -5   6  114.52   12.81
  -1   5  -7    0.91    9.36
  -1   5  -7   -1.69    8.84
   1  -5   7    8.39    7.41
   1  -5   7    2.41    9.30
   1  -5   7   -2.93    6.31
  -1   5  -8   11.97   12.16
  -1   5  -8    1.11   10.34
   1  -5   8   12.81    8.78
   1  -5   8   -4.03   12.94
  -1   5  -9   28.22   16.13
  -1   5  -9   32.06   15.41
   1  -5   9   21.52   11.38
   1  -5   9    2.93   15.02
  -1   5 -10   17.30   15.87
  -1   5 -10    3.58   12.49
   1  -5  10    5.01    9.62
   1  -5  10  -18.21   13.14
  -1   5 -11  147.03   26.27
  -1   5 -11   94.23   22.37
   1  -5  11   94.36   22.96
  -1   5 -12   60.87   22.17
  -1   5 -12   35.96   18.79
   1  -5  12   42.01   21.78
  -1   4  17   11.51   17.69
   1  -4 -17   29.91   20.16
   1  -4 -17   17.56   19.70
  -1   4  16    6.89   14.63
   1  -4 -16  -14.83   13.85
  -1   4  15   28.35   15.87
   1  -4 -15   52.35   19.38
  -1   4  14   11.90   13.14
  -1   4  14   -0.85   12.29
  -1   4  14   17.95   14.89
   1  -4 -14    2.93   13.14
  -1   4  13   13.59   13.07
  -1   4  13   23.02   13.14
  -1   4  13   23.87   10.73
  -1   4  13   21.65   14.44
   1  -4 -13   15.09   13.59
  -1   4  12  161.53   21.98
  -1   4  12  153.01   20.22
  -1   4  12  154.18   15.93
  -1   4  12  137.02   21.46
   1  -4 -12  176.49   22.11
   1  -4 -12  142.93   15.87
   1  -4 -12  128.63   25.04
  -1   4  11    4.42    9.43
  -1   4  11    5.01    9.43
  -1   4  11    1.17    7.15
  -1   4  11   13.27   10.60
   1  -4 -11    4.55    9.49
   1  -4 -11    5.33    7.22
   1  -4 -11    4.68    9.56
  -1   4  10   55.99   12.75
  -1   4  10   69.45   13.33
  -1   4  10   56.97    9.95
  -1   4  10   63.27   14.11
   1  -4 -10   64.38   13.07
   1  -4 -10   71.99   12.16
   1  -4 -10   59.57   12.88
  -1   4   9  132.53   15.74
  -1   4   9  136.24   15.48
  -1   4   9  133.11   12.16
  -1   4   9  131.16   16.26
  -1   4   9  121.54   17.30
   1  -4  -9  136.11   15.09
   1  -4  -9  130.45   13.92
   1  -4  -9  131.68   15.80
  -1   4   8   23.61    8.65
  -1   4   8   27.64    9.23
  -1   4   8   32.84    7.35
  -1   4   8   24.00    9.17
  -1   4   8   21.98    9.23
   1  -4  -8   17.75    8.00
   1  -4  -8   26.34    7.87
   1  -4  -8   10.73    7.35
  -1   4   7  223.37   16.13
  -1   4   7  225.46   16.06
  -1   4   7  222.59   16.39
  -1   4   7  230.59   17.49
   1  -4  -7  209.00   15.15
   1  -4  -7  240.09   15.74
   1  -4  -7  234.36   15.74
   1  -4  -7  226.43   16.19
  -1   4   6   22.50    7.54
  -1   4   6   25.75    8.06
  -1   4   6   25.36    7.61
  -1   4   6   17.10    7.61
   1  -4  -6   20.29    7.28
   1  -4  -6   24.45    7.09
   1  -4  -6   20.48    7.22
   1  -4  -6   18.79    6.76
  -1   4   5   25.69    7.15
  -1   4   5   20.94    7.54
  -1   4   5   21.39    6.57
  -1   4   5   17.69    7.09
   1  -4  -5   25.82    6.89
   1  -4  -5   19.25    5.98
   1  -4  -5   23.87    7.35
   1  -4  -5    0.98    2.15
  -1   4   4  370.67   15.35
  -1   4   4  384.39   17.36
  -1   4   4  357.07   15.54
  -1   4   4  344.39   15.48
   1  -4  -4  372.88   13.85
   1  -4  -4  371.32   17.23
   1  -4  -4  374.83   13.01
   1  -4  -4  385.30   17.56
   1  -4  -4  359.61   14.89
  -1   4   3   15.22    5.53
  -1   4   3   16.84    7.09
  -1   4   3   21.20    6.24
  -1   4   3   21.20    6.31
   1  -4  -3   13.59    4.49
   1  -4  -3   21.07    5.14
   1  -4  -3    9.56    5.79
   1  -4  -3   19.25    7.09
   1  -4  -3   12.16    5.46
  -1   4   2   98.26    8.84
  -1   4   2   95.59   11.38
  -1   4   2  109.70    9.75
  -1   4   2   96.50    9.75
   1  -4  -2   89.22   10.86
   1  -4  -2  113.22   11.32
   1  -4  -2   90.91    8.58
  -1   4   1    1.37    4.42
  -1   4   1    6.18    6.18
  -1   4   1   -0.13    4.68
  -1   4   1    0.07    4.75
   1  -4  -1    1.89    4.94
   1  -4  -1   -3.97    4.55
   1  -4  -1   -2.54    4.29
  -1   4   0   59.50    7.67
  -1   4   0   43.37    8.52
  -1   4   0   64.70    8.13
  -1   4   0   47.47    7.41
   1  -4   0   58.92    9.49
   1  -4   0   53.19    8.91
   1  -4   0   62.30    7.87
   1  -4   0   53.65    7.35
  -1   4  -1  105.93    9.95
  -1   4  -1  118.42    8.19
  -1   4  -1  107.95   12.88
  -1   4  -1  116.27   10.60
  -1   4  -1   98.19   10.92
   1  -4   1  123.56   12.42
   1  -4   1   93.90   10.53
   1  -4   1  103.14    9.69
  -1   4  -2  123.36   11.38
  -1   4  -2  116.99   14.31
  -1   4  -2  117.44   11.58
  -1   4  -2  112.31   12.03
   1  -4   2  109.64    8.91
   1  -4   2  113.02   13.20
   1  -4   2  117.83   11.38
   1  -4   2  125.44   10.66
  -1   4  -3   23.48    7.35
  -1   4  -3   27.51    7.80
   1  -4   3   29.91    6.50
   1  -4   3   11.84    7.93
   1  -4   3   28.74    7.35
   1  -4   3   25.82    7.15
  -1   4  -4    9.10    7.02
  -1   4  -4   15.67    7.93
   1  -4   4   22.24    6.37
   1  -4   4   25.17    9.23
   1  -4   4    7.61    5.92
   1  -4   4   19.38    7.22
  -1   4  -5  256.08   17.88
  -1   4  -5  210.11   17.10
  -1   4  -5  225.65   17.43
   1  -4   5  254.39   14.89
   1  -4   5  252.05   19.25
   1  -4   5  260.38   19.90
   1  -4   5  224.68   13.98
   1  -4   5  205.30   15.61
  -1   4  -6   -0.52    8.06
  -1   4  -6    3.32    7.87
  -1   4  -6   -7.35    7.28
   1  -4   6   -1.37    5.59
   1  -4   6    2.80    7.54
   1  -4   6    9.62    9.30
   1  -4   6   -3.64    5.01
   1  -4   6   -4.29    5.85
  -1   4  -7   20.55   10.47
  -1   4  -7   26.01   10.99
   1  -4   7   23.54    8.91
   1  -4   7   33.16   11.71
   1  -4   7   32.71   12.36
   1  -4   7   22.70    6.96
  -1   4  -8  116.34   18.40
  -1   4  -8  110.61   18.21
   1  -4   8  134.48   16.00
   1  -4   8  114.32   18.99
   1  -4   8  131.88   19.96
  -1   4  -9   64.12   17.04
  -1   4  -9   70.62   17.69
   1  -4   9  106.32   16.45
   1  -4   9   35.64   16.45
   1  -4   9   73.29   17.49
  -1   4 -10   12.75   14.37
  -1   4 -10  -13.92   10.34
   1  -4  10    5.27    9.23
   1  -4  10  -25.30   11.84
   1  -4  10    7.09   12.75
  -1   4 -11   58.07   19.51
  -1   4 -11   55.93   18.47
   1  -4  11   58.20   15.41
   1  -4  11   35.51   17.56
  -1   4 -12   89.68   23.28
  -1   4 -12   55.14   19.64
   1  -4  12   84.67   18.01
   1  -4  12   84.08   22.89
  -1   4 -13   31.67   20.87
  -1   4 -13   31.99   18.79
   1  -4  13   -2.15   18.60
  -1   3  17   24.32   17.95
   1  -3 -17    6.18   18.60
  -1   3  16   -9.88   13.40
   1  -3 -16   -3.84   15.48
  -1   3  15   18.73   14.96
   1  -3 -15   36.42   16.78
  -1   3  14   17.30   13.46
   1  -3 -14    2.02   12.94
  -1   3  13   15.02   12.29
  -1   3  13   11.58    9.95
  -1   3  13    8.32   12.29
   1  -3 -13   -4.75   11.32
  -1   3  12  290.03   24.78
  -1   3  12  306.09   24.58
  -1   3  12  314.94   19.96
  -1   3  12  286.65   26.47
   1  -3 -12  323.58   25.69
   1  -3 -12  313.51   26.40
  -1   3  11   86.36   15.61
  -1   3  11   84.02   15.87
  -1   3  11   78.88   12.03
  -1   3  11   85.19   16.52
   1  -3 -11   87.92   16.84
   1  -3 -11   70.23   10.79
   1  -3 -11   86.03   16.97
  -1   3  10   16.58    9.36
  -1   3  10   35.12   11.19
  -1   3  10   31.86    8.52
  -1   3  10   25.95   11.19
   1  -3 -10   27.57   10.53
   1  -3 -10   38.30    8.65
   1  -3 -10   22.83   10.60
  -1   3   9  128.11   15.48
  -1   3   9  128.82   16.19
  -1   3   9  115.30   11.97
  -1   3   9  118.55   16.39
   1  -3  -9  135.26   15.48
   1  -3  -9  126.55   12.10
   1  -3  -9  123.36   16.39
  -1   3   8  240.61   17.43
  -1   3   8  252.44   17.43
  -1   3   8  238.33   13.92
  -1   3   8  250.23   24.00
  -1   3   8  225.85   18.40
   1  -3  -8  246.14   17.23
   1  -3  -8  232.02   14.18
   1  -3  -8  227.34   17.62
  -1   3   7    5.33    6.96
  -1   3   7    2.73    6.24
  -1   3   7    1.17    5.14
  -1   3   7    2.41    6.83
  -1   3   7    1.56    6.89
   1  -3  -7    4.94    6.44
   1  -3  -7    5.72    5.66
   1  -3  -7   -0.20    6.24
  -1   3   6    5.07    6.24
  -1   3   6    8.58    6.44
  -1   3   6    2.15    5.98
  -1   3   6   12.42    7.35
   1  -3  -6   14.11    6.57
   1  -3  -6    7.80    5.53
   1  -3  -6    5.53    6.50
  -1   3   5  162.83   12.36
  -1   3   5  178.83   13.20
  -1   3   5  159.45   12.62
  -1   3   5  159.32   13.01
   1  -3  -5  169.92   12.16
   1  -3  -5  174.02   11.84
   1  -3  -5  155.09   12.36
  -1   3   4   -3.25    4.81
  -1   3   4    4.03    5.53
  -1   3   4    4.23    4.94
  -1   3   4    2.73    5.40
   1  -3  -4    3.71    4.75
   1  -3  -4    1.95    4.42
   1  -3  -4    0.33    4.81
   1  -3  -4    1.11    3.25
  -1   3   3   19.25    5.66
  -1   3   3   18.53    6.70
  -1   3   3   13.72    5.53
  -1   3   3   14.31    5.72
   1  -3  -3   14.63    4.68
   1  -3  -3   18.53    5.33
   1  -3  -3    9.82    5.07
   1  -3  -3   21.59    4.55
   1  -3  -3    8.39    5.14
   1  -3  -3    0.13    2.34
  -1   3   2  104.37    8.19
  -1   3   2  101.32    8.52
  -1   3   2  105.93   10.47
  -1   3   2  105.41    9.17
  -1   3   2   93.51    9.43
   1  -3  -2  105.48    7.74
   1  -3  -2  111.46    7.93
   1  -3  -2  106.65    9.88
   1  -3  -2  114.32   10.21
   1  -3  -2   97.02    8.39
  -1   3   1  443.56   12.75
  -1   3   1  430.30   13.20
  -1   3   1  392.65   15.80
  -1   3   1  438.49   13.92
  -1   3   1  359.48   13.33
   1  -3  -1  451.95   11.77
   1  -3  -1  399.47   11.58
   1  -3  -1  465.48   16.32
   1  -3  -1  406.56   14.37
   1  -3  -1  436.02   15.87
   1  -3  -1  409.55   13.20
  -1   3   0   52.74    6.89
  -1   3   0   58.46    7.28
  -1   3   0   53.52    6.37
  -1   3   0   38.63    7.41
  -1   3   0   46.95    6.89
  -1   3   0   41.88    6.63
   1  -3   0   49.62    6.05
   1  -3   0   57.42    6.50
   1  -3   0   52.61    7.87
   1  -3   0   61.39    7.74
   1  -3   0   70.43    8.84
   1  -3   0   55.53    7.02
   1  -3   0   58.72    6.63
  -1   3  -1  904.16   19.90
  -1   3  -1  912.88   17.04
  -1   3  -1  839.72   23.48
  -1   3  -1  902.73   20.74
  -1   3  -1  845.18   20.61
   1  -3   1  936.61   18.01
   1  -3   1  864.95   17.56
   1  -3   1  941.04   24.32
   1  -3   1  856.11   17.04
   1  -3   1  893.43   21.52
   1  -3   1  883.29   19.96
  -1   3  -2  665.05   19.18
  -1   3  -2  623.37   22.04
  -1   3  -2  671.36   19.96
  -1   3  -2  583.51   19.38
   1  -3   2  706.02   17.62
   1  -3   2  636.96   17.04
   1  -3   2  712.33   22.83
   1  -3   2  662.91   19.05
   1  -3   2  646.26   18.92
  -1   3  -3   56.84    9.04
  -1   3  -3   60.09    9.36
   1  -3   3   67.96    8.78
   1  -3   3   57.55   10.34
   1  -3   3   53.84    8.32
   1  -3   3   58.46    8.84
  -1   3  -4  500.40   20.35
  -1   3  -4  497.60   20.94
  -1   3  -4  514.45   20.87
   1  -3   4  534.99   18.92
   1  -3   4  488.37   29.20
   1  -3   4  508.53   21.98
   1  -3   4  422.23   19.18
   1  -3   4  259.60   14.76
  -1   3  -5 1338.10   33.88
  -1   3  -5 1199.72   33.29
  -1   3  -5 1332.32   34.21
   1  -3   5 1377.38   31.28
   1  -3   5 1424.59   37.72
   1  -3   5 1335.44   35.44
   1  -3   5 1329.06   27.05
   1  -3   5    5.98    3.19
  -1   3  -6   78.88   12.88
  -1   3  -6   44.22   10.99
  -1   3  -6   78.43   12.94
   1  -3   6   77.51   11.32
   1  -3   6   64.77   12.29
   1  -3   6   78.49   13.14
   1  -3   6   68.48    9.10
   1  -3   6    1.63    3.64
  -1   3  -7   18.40    9.23
  -1   3  -7   15.67    9.23
  -1   3  -7   13.20    8.65
   1  -3   7    7.80    7.09
   1  -3   7   12.68    8.52
   1  -3   7   10.60    9.23
   1  -3   7   15.61    6.05
   1  -3   7    9.95    7.02
  -1   3  -8  161.60   19.25
  -1   3  -8  201.33   20.94
   1  -3   8  198.79   17.62
   1  -3   8  198.27   20.61
   1  -3   8  189.95   19.70
   1  -3   8  205.62   13.01
  -1   3  -9  207.70   22.44
  -1   3  -9  188.91   22.83
   1  -3   9  199.12   19.18
   1  -3   9  195.61   22.63
   1  -3   9  193.72   21.46
  -1   3 -10   13.40   12.68
  -1   3 -10    3.97   11.32
   1  -3  10    9.69   10.47
   1  -3  10   -7.22   11.64
   1  -3  10   19.38   12.75
  -1   3 -11   -6.11   13.14
  -1   3 -11   -2.86   11.45
   1  -3  11   -7.87    9.10
   1  -3  11  -24.84   11.71
   1  -3  11   -7.22   12.10
  -1   3 -12   63.79   19.77
  -1   3 -12   53.19   18.73
   1  -3  12   66.07   17.49
   1  -3  12   22.17   16.58
  -1   3 -13   12.81   18.34
  -1   3 -13   -3.71   14.50
   1  -3  13    4.62   12.55
   1  -3  13    2.28   17.82
  -1   3 -14   32.97   20.68
  -1   3 -14    4.88   17.95
   1  -3  14   26.14   15.87
   1  -3  14   -7.67   18.21
  -1   2  17   17.82   17.36
   1  -2 -17   11.90   18.79
  -1   2  16   -6.50   14.31
   1  -2 -16    6.57   17.30
  -1   2  15   25.62   15.35
   1  -2 -15   -1.11   15.87
  -1   2  14    4.55   12.55
   1  -2 -14    3.45   13.46
  -1   2  13    1.37   11.05
  -1   2  13    4.49   10.21
   1  -2 -13   11.71   12.42
   1  -2 -13   16.39   12.88
  -1   2  12  566.21   31.41
  -1   2  12  623.43   27.31
  -1   2  12  546.63   33.23
   1  -2 -12  633.32   33.88
   1  -2 -12  595.80   33.82
  -1   2  11   21.52   11.12
  -1   2  11   41.75   10.86
  -1   2  11   21.13   11.58
   1  -2 -11   58.92   14.83
   1  -2 -11   34.86   12.68
  -1   2  10    2.08    8.13
  -1   2  10    5.72    8.65
  -1   2  10   -2.86    6.50
  -1   2  10    1.56    8.91
   1  -2 -10  -11.84    6.11
   1  -2 -10   -2.08    8.32
  -1   2   9  324.10   20.81
  -1   2   9  316.95   20.35
  -1   2   9  334.51   17.43
  -1   2   9  322.28   22.24
   1  -2  -9  318.64   20.87
   1  -2  -9  321.70   14.50
   1  -2  -9  309.02   21.52
  -1   2   8  354.99   20.35
  -1   2   8  404.03   20.81
  -1   2   8  364.10   16.84
  -1   2   8  342.83   21.39
   1  -2  -8  372.94   20.74
   1  -2  -8  377.17   15.02
   1  -2  -8  348.23   21.07
  -1   2   7  127.72   13.72
  -1   2   7  117.12   13.33
  -1   2   7  148.79   11.64
  -1   2   7  116.14   14.18
   1  -2  -7  127.78   13.59
   1  -2  -7  122.25   10.14
   1  -2  -7  116.79   13.72
  -1   2   6   56.19   10.08
  -1   2   6   62.23   10.27
  -1   2   6   58.79    8.19
  -1   2   6   55.27    9.88
  -1   2   6   37.85    9.10
   1  -2  -6   49.75    9.23
   1  -2  -6   54.23    7.61
   1  -2  -6   59.76   10.60
  -1   2   5    1.56    5.33
  -1   2   5    3.32    5.40
  -1   2   5    0.33    4.23
  -1   2   5    1.37    4.42
  -1   2   5    0.98    5.40
  -1   2   5    0.72    5.92
  -1   2   5    3.12    4.10
   1  -2  -5    7.87    5.59
   1  -2  -5   -2.21    3.97
   1  -2  -5    1.69    5.53
  -1   2   4  164.07   11.38
  -1   2   4  174.34   11.77
  -1   2   4  161.86    9.82
  -1   2   4  172.52   11.71
  -1   2   4  144.17   11.64
  -1   2   4  154.70    8.00
   1  -2  -4  167.64   11.19
   1  -2  -4  170.96   10.40
   1  -2  -4  160.43   11.51
   1  -2  -4  156.33   11.05
  -1   2   3  228.45   11.38
  -1   2   3  236.45   10.79
  -1   2   3  239.96   12.29
  -1   2   3  226.43   10.86
  -1   2   3  251.66   12.16
  -1   2   3  235.41   12.03
   1  -2  -3  252.38   11.05
   1  -2  -3  245.81   11.45
   1  -2  -3  249.58   12.29
   1  -2  -3  253.35   11.77
   1  -2  -3  231.83   11.58
   1  -2  -3  214.27   11.05
  -1   2   2   58.01    7.02
  -1   2   2   61.71    7.02
  -1   2   2   55.93    6.50
  -1   2   2   64.05    7.54
  -1   2   2   72.96    8.13
  -1   2   2   77.45    7.61
  -1   2   2   72.38    7.67
  -1   2   2   62.49    7.28
   1  -2  -2   57.16    6.70
   1  -2  -2   65.22    7.35
   1  -2  -2   72.96    8.13
   1  -2  -2   72.64    8.26
   1  -2  -2   64.38    7.80
   1  -2  -2   -0.65    1.69
   1  -2  -2   67.57    7.28
  -1   2   1    3.77    3.51
  -1   2   1    8.00    4.10
  -1   2   1   -0.39    3.58
  -1   2   1    3.84    3.90
  -1   2   1    5.46    4.81
  -1   2   1    3.90    3.71
  -1   2   1    0.07    4.10
  -1   2   1    5.59    4.55
   1  -2  -1    7.93    3.77
   1  -2  -1    5.40    3.71
   1  -2  -1    6.83    4.16
   1  -2  -1    7.74    4.42
   1  -2  -1   -0.78    3.64
   1  -2  -1    8.71    4.29
   1  -2  -1   -0.07    1.56
   1  -2  -1    3.12    3.77
  -1   2   0  907.16   16.71
  -1   2   0  866.97   16.78
  -1   2   0  879.71   18.79
  -1   2   0  924.06   16.58
  -1   2   0  768.51   18.40
  -1   2   0  915.09   18.60
  -1   2   0  877.96   17.62
  -1   2   0  777.16   16.91
   1  -2   0  878.02   15.80
   1  -2   0  810.52   15.48
   1  -2   0  932.65   19.64
   1  -2   0  859.81   16.39
   1  -2   0  781.52   18.08
   1  -2   0  908.26   19.12
   1  -2   0  762.47   16.26
  -1   2  -1  746.60   16.71
  -1   2  -1  692.23   16.52
  -1   2  -1  699.84   13.40
  -1   2  -1  641.90   18.08
  -1   2  -1  715.12   16.78
  -1   2  -1  718.64   17.43
  -1   2  -1  638.85   16.91
   1  -2   1  735.28   15.87
   1  -2   1  689.05   15.61
   1  -2   1  798.10   19.83
   1  -2   1  713.63   13.92
   1  -2   1  740.94   17.62
  -1   2  -2  880.49   20.35
  -1   2  -2  907.03   21.26
   1  -2   2  930.96   19.64
   1  -2   2  849.21   18.92
   1  -2   2  962.63   23.35
   1  -2   2  928.09   19.77
   1  -2   2    2.08    1.76
  -1   2  -3  453.71   17.04
  -1   2  -3  390.50   16.65
  -1   2  -3  463.01   17.69
   1  -2   3  466.06   16.06
   1  -2   3  450.26   18.21
   1  -2   3  468.60   15.09
   1  -2   3    0.59    2.54
  -1   2  -4  149.18   13.01
  -1   2  -4  146.97   13.66
  -1   2  -4  133.44   13.01
   1  -2   4  176.88   12.29
   1  -2   4  143.13   13.14
   1  -2   4  147.36   12.75
   1  -2   4  168.56   10.92
   1  -2   4   80.25    9.69
  -1   2  -5  862.35   26.66
  -1   2  -5  828.67   27.38
  -1   2  -5  856.76   27.18
   1  -2   5  886.87   25.56
   1  -2   5  696.07   31.60
   1  -2   5  863.59   26.40
   1  -2   5 1150.75   24.58
   1  -2   5  853.44   26.47
  -1   2  -6  860.98   29.07
  -1   2  -6  856.17   29.78
  -1   2  -6  881.27   29.52
   1  -2   6  917.10   27.83
   1  -2   6  557.43   24.84
   1  -2   6  897.47   28.22
   1  -2   6  912.16   21.78
   1  -2   6  892.59   29.33
  -1   2  -7   94.16   14.89
  -1   2  -7   68.61   13.72
  -1   2  -7   77.71   12.94
   1  -2   7   74.59   12.23
   1  -2   7   31.86    9.30
   1  -2   7   84.02   13.33
   1  -2   7   82.33    9.82
   1  -2   7   98.06   14.57
  -1   2  -8    0.26    8.32
  -1   2  -8   13.98    9.75
  -1   2  -8    2.34    8.45
   1  -2   8    8.45    7.48
   1  -2   8   -2.86    8.65
   1  -2   8   12.23    8.78
   1  -2   8    6.57    8.39
  -1   2  -9    3.51    9.82
  -1   2  -9    3.51    9.56
   1  -2   9   -1.17    7.67
   1  -2   9    0.85    7.74
   1  -2   9   -0.26    8.13
  -1   2 -10   28.35   13.66
  -1   2 -10   18.60   12.49
   1  -2  10   16.06   10.66
   1  -2  10    7.22   10.60
   1  -2  10   23.67   11.97
  -1   2 -11   77.84   19.31
  -1   2 -11   68.22   18.47
   1  -2  11   57.88   14.96
   1  -2  11   34.01   14.50
   1  -2  11   81.42   16.97
  -1   2 -12    5.27   15.09
  -1   2 -12    2.86   12.88
   1  -2  12    6.70   11.25
   1  -2  12  -15.67   12.16
   1  -2  12   -0.33   12.10
  -1   2 -13   57.68   21.33
  -1   2 -13   55.47   20.61
   1  -2  13   52.15   16.78
   1  -2  13   33.88   17.23
   1  -2  13   59.31   18.40
  -1   2 -14  184.81   30.50
  -1   2 -14  129.54   28.22
   1  -2  14  127.20   23.28
   1  -2  14   56.77   26.40
  -1   2 -15    4.49   20.42
   1  -2  15    8.06   15.02
   1  -2  15  -18.27   19.25
  -1   1  16   36.16   17.95
   1  -1 -16   31.02   19.64
  -1   1  15   24.91   15.41
   1  -1 -15   29.26   18.79
  -1   1  14    9.69   13.53
  -1   1  14   16.26   12.42
   1  -1 -14    2.73   14.44
   1  -1 -14    9.23   12.55
  -1   1  13   -8.78    9.62
  -1   1  13    7.41   10.92
   1  -1 -13    8.19   13.20
   1  -1 -13   -1.11   10.53
  -1   1  12  230.40   23.54
  -1   1  12  229.42   21.00
   1  -1 -12  241.26   25.17
   1  -1 -12  233.71   25.17
  -1   1  11  509.89   28.42
  -1   1  11  546.63   26.01
  -1   1  11  514.45   30.50
   1  -1 -11  600.74   31.60
   1  -1 -11  603.79   32.25
  -1   1  10  167.06   17.75
  -1   1  10  196.71   16.78
  -1   1  10  149.63   19.12
   1  -1 -10  164.78   18.53
   1  -1 -10  165.30   20.55
  -1   1   9   -2.02    7.22
  -1   1   9    2.47    6.76
  -1   1   9    0.33    8.32
   1  -1  -9    1.56    7.74
   1  -1  -9   -3.51    7.74
  -1   1   8  223.90   17.36
  -1   1   8  239.18   17.75
  -1   1   8  233.52   15.15
  -1   1   8  229.29   18.73
   1  -1  -8  219.60   17.17
   1  -1  -8  247.96   18.73
  -1   1   7  107.56   13.20
  -1   1   7  136.37   14.05
  -1   1   7  130.19   11.77
  -1   1   7  110.35    7.93
  -1   1   7  111.33   14.18
   1  -1  -7  140.27   14.18
   1  -1  -7  123.56    8.32
   1  -1  -7  130.58   14.70
  -1   1   6   86.62   11.12
  -1   1   6   93.06   11.58
  -1   1   6   82.00    9.88
  -1   1   6   87.98    7.15
  -1   1   6   97.48   12.88
   1  -1  -6   94.81   11.71
   1  -1  -6   93.32    7.48
   1  -1  -6   93.32   12.55
   1  -1  -6   87.66   11.45
  -1   1   5    6.31    5.85
  -1   1   5   -0.78    5.66
  -1   1   5    0.13    4.49
  -1   1   5    5.46    3.32
  -1   1   5    7.74    5.85
  -1   1   5    6.31    5.85
   1  -1  -5    0.33    5.66
   1  -1  -5   -0.46    3.32
   1  -1  -5    3.32    5.79
   1  -1  -5    4.29    5.07
  -1   1   4  385.23   15.15
  -1   1   4  382.50   13.59
  -1   1   4  399.54   15.41
  -1   1   4  396.68   13.66
  -1   1   4  386.21   11.25
  -1   1   4  393.43   15.74
  -1   1   4  366.89   15.61
  -1   1   4  380.75   12.94
   1  -1  -4  389.72   15.09
   1  -1  -4  425.36   14.63
   1  -1  -4  398.76   11.77
   1  -1  -4  384.65   15.80
   1  -1  -4  380.42   15.15
   1  -1  -4  411.83   13.66
  -1   1   3  394.60   13.72
  -1   1   3  376.78   12.62
  -1   1   3  410.53   14.24
  -1   1   3  387.83   12.62
  -1   1   3  388.87   11.12
  -1   1   3  388.22   14.05
  -1   1   3  355.97   13.72
  -1   1   3  375.93   10.66
   1  -1  -3  363.19   12.75
   1  -1  -3  388.48   13.46
   1  -1  -3  408.90   13.53
   1  -1  -3  385.62   13.20
   1  -1  -3  408.90   11.58
   1  -1  -3  395.12   14.24
   1  -1  -3  374.83   13.53
   1  -1  -3  392.52   11.19
  -1   1   2  322.80   10.79
  -1   1   2  318.64   10.99
  -1   1   2  315.72    8.97
  -1   1   2  337.50   10.99
  -1   1   2  324.56   11.58
  -1   1   2  310.51    9.88
  -1   1   2  316.43   11.45
  -1   1   2  298.48   11.25
   1  -1  -2  322.80   10.73
   1  -1  -2  330.35    9.17
   1  -1  -2  366.18   11.71
   1  -1  -2  338.41   11.19
   1  -1  -2  332.56   10.21
   1  -1  -2  304.34   11.25
   1  -1  -2  285.09   10.73
  -1   1   1  462.29   11.12
  -1   1   1  419.44   10.86
  -1   1   1  439.34   10.01
  -1   1   1  493.12   11.84
  -1   1   1  425.03   11.58
  -1   1   1  481.80   11.64
  -1   1   1  404.55   11.25
  -1   1   1  387.70   11.25
   1  -1  -1  474.26   11.32
   1  -1  -1  439.79   10.86
   1  -1  -1  449.22   10.08
   1  -1  -1  504.69   12.16
   1  -1  -1  449.94   11.71
   1  -1  -1  521.21   12.29
   1  -1  -1  216.87    8.52
   1  -1  -1  415.21   11.12
  -1   1   0  666.03   13.01
  -1   1   0  620.38   12.94
  -1   1   0  681.76   13.33
  -1   1   0  601.13   11.90
  -1   1   0  574.40   13.07
  -1   1   0  603.34   13.20
  -1   1   0  562.70   13.01
   1  -1   0  689.11   13.20
   1  -1   0  614.65   12.62
   1  -1   0  732.03   13.85
   1  -1   0  736.52   13.40
   1  -1   0  588.25   12.88
   1  -1   0  735.22   14.57
   1  -1   0    0.52    2.41
   1  -1   0  582.92   12.88
  -1   1  -1   81.42    7.15
  -1   1  -1   79.08    7.41
  -1   1  -1   58.27    6.44
  -1   1  -1   15.09    3.25
  -1   1  -1   68.87    7.15
  -1   1  -1   78.95    7.48
  -1   1  -1   59.70    7.41
   1  -1   1   73.74    6.83
   1  -1   1   72.77    6.96
   1  -1   1   88.76    7.35
   1  -1   1   69.84    5.53
   1  -1   1   65.74    6.44
   1  -1   1   21.07    4.36
   1  -1   1   64.96    7.09
  -1   1  -2  266.75   11.51
  -1   1  -2  228.06   11.51
  -1   1  -2   -0.98    3.64
  -1   1  -2  233.65   10.99
  -1   1  -2  255.69   12.16
   1  -1   2  260.90   11.38
   1  -1   2  251.86   11.25
   1  -1   2  177.66   10.47
   1  -1   2  230.92   11.58
   1  -1   2  235.41   11.38
  -1   1  -3   99.17   10.08
  -1   1  -3   84.47   12.55
  -1   1  -3  104.83   10.73
  -1   1  -3  108.40   10.47
   1  -1   3  110.55    9.69
   1  -1   3   19.05    5.59
   1  -1   3  102.88   10.01
  -1   1  -4  152.88   12.36
  -1   1  -4  138.06   12.42
  -1   1  -4  156.20   12.81
   1  -1   4  153.27   11.71
   1  -1   4    1.56    4.75
   1  -1   4  153.60   11.32
   1  -1   4  149.57   12.42
  -1   1  -5  123.75   13.07
  -1   1  -5  126.22   13.98
  -1   1  -5  139.88   13.33
   1  -1   5  109.64   11.90
   1  -1   5    0.00    4.42
   1  -1   5  140.27   11.97
   1  -1   5  130.90   12.88
  -1   1  -6  853.77   27.77
  -1   1  -6  798.30   28.09
  -1   1  -6  837.25   27.96
   1  -1   6  855.39   26.60
   1  -1   6  830.49   24.71
   1  -1   6  840.18   27.77
  -1   1  -7  160.04   16.19
  -1   1  -7  133.44   16.19
  -1   1  -7  138.90   15.48
   1  -1   7  147.42   14.70
   1  -1   7    5.07    6.18
   1  -1   7  159.97   14.18
   1  -1   7  157.70   15.74
  -1   1  -8  160.43   17.17
  -1   1  -8  147.36   18.01
  -1   1  -8  150.41   16.97
   1  -1   8  155.87   15.74
   1  -1   8   -0.07    6.18
   1  -1   8  169.53   15.15
   1  -1   8  160.04   17.10
  -1   1  -9    8.13    9.56
  -1   1  -9   -6.63    8.13
   1  -1   9    2.73    8.19
   1  -1   9   23.67   11.58
   1  -1   9   -5.07    6.89
   1  -1   9    1.82    8.00
  -1   1 -10   73.81   16.32
  -1   1 -10   58.53   14.89
   1  -1  10   60.28   14.11
   1  -1  10    4.62    8.78
   1  -1  10   74.00   13.72
  -1   1 -11   90.98   18.73
  -1   1 -11   76.60   17.95
   1  -1  11   59.31   14.96
   1  -1  11  -14.63   11.77
   1  -1  11   79.79   15.28
  -1   1 -12   80.18   19.64
  -1   1 -12   48.58   16.45
   1  -1  12   64.70   16.00
   1  -1  12    2.15   12.36
   1  -1  12   50.98   14.57
  -1   1 -13  247.57   30.69
  -1   1 -13  231.24   30.43
   1  -1  13  246.33   26.01
   1  -1  13   82.20   21.98
   1  -1  13  204.26   24.19
  -1   1 -14  229.94   32.97
  -1   1 -14  175.06   27.64
   1  -1  14  196.58   27.25
   1  -1  14   73.55   20.94
  -1   1 -15   40.19   21.98
   1  -1  15    2.41   14.50
   1  -1  15   18.14   20.22
  -1   0  16   11.12   14.96
  -1   0  16    7.09   14.70
   1   0 -16   36.48   22.83
  -1   0  15  173.24   26.99
  -1   0  15   13.85   12.10
   1   0 -15  231.31   33.95
  -1   0  14   54.56   17.69
  -1   0  14   27.77   13.98
  -1   0  14   77.38   18.01
   1   0 -14   86.36   21.98
   1   0 -14   84.28   21.33
  -1   0  13   14.63   12.29
  -1   0  13   14.18   12.68
   1   0 -13   26.47   16.71
   1   0 -13   12.68   13.66
  -1   0  12    5.85   10.47
  -1   0  12   10.21   11.71
   1   0 -12   -3.77   11.32
   1   0 -12   -1.37    9.95
  -1   0  11  529.21   29.13
  -1   0  11  523.68   26.92
   1   0 -11  573.10   31.93
   1   0 -11  541.76   31.54
  -1   0  10   21.91   10.14
  -1   0  10   12.68    9.36
  -1   0  10   18.92   10.47
   1   0 -10   30.24   11.77
   1   0 -10   33.56   11.97
  -1   0   9   20.09    9.49
  -1   0   9   20.03    9.17
  -1   0   9   24.00   10.40
   1   0  -9   21.39    9.56
   1   0  -9   32.38   11.19
  -1   0   8    8.65    7.48
  -1   0   8   14.70    7.74
  -1   0   8   20.48    9.23
   1   0  -8   10.08    7.93
   1   0  -8   19.96    9.43
   1   0  -8   22.96    8.78
  -1   0   7   66.65   11.45
  -1   0   7   85.90   11.38
  -1   0   7   73.55   12.29
   1   0  -7   74.98   12.29
   1   0  -7   76.93   12.75
   1   0  -7   82.20   12.42
  -1   0   6  202.24   14.70
  -1   0   6  244.70   14.57
  -1   0   6  233.26   16.32
   1   0  -6  264.28   16.39
   1   0  -6  248.28   16.65
   1   0  -6  244.70   15.80
   1   0  -6  261.03   16.00
  -1   0   5   -0.78    5.14
  -1   0   5    5.66    3.84
  -1   0   5    5.98    6.05
  -1   0   5   -0.59    5.07
  -1   0   5   -1.63    5.59
   1   0  -5   -5.85    4.75
   1   0  -5    0.85    4.16
   1   0  -5    2.47    5.72
   1   0  -5   -3.12    4.75
   1   0  -5   -2.86    5.07
  -1   0   4 1536.44   27.38
  -1   0   4 1558.55   22.70
  -1   0   4 1559.98   29.07
  -1   0   4 1574.87   26.79
  -1   0   4 1570.91   29.20
  -1   0   4 1476.88   28.42
   1   0  -4 1614.61   28.55
   1   0  -4 1735.76   24.19
   1   0  -4 1516.87   28.61
   1   0  -4 1517.84   28.29
   1   0  -4 1609.08   27.90
  -1   0   3 2166.90   28.35
  -1   0   3 2230.89   25.10
  -1   0   3 2260.80   30.37
  -1   0   3 2267.56   28.55
  -1   0   3 2188.42   29.59
  -1   0   3 2063.50   29.07
  -1   0   3 2165.21   27.57
   1   0  -3 2215.15   28.74
   1   0  -3 2313.99   29.72
   1   0  -3 2364.72   26.01
   1   0  -3 2156.56   29.26
   1   0  -3 2204.75   27.83
   1   0  -3 2159.68   29.85
   1   0  -3 2172.10   29.52
   1   0  -3 2294.81   28.55
  -1   0   2  356.75   10.79
  -1   0   2  332.10   10.73
  -1   0   2  327.10    9.69
  -1   0   2  349.86   11.38
  -1   0   2  353.69   11.05
  -1   0   2  332.10   11.32
  -1   0   2  288.92   10.66
  -1   0   2  337.44   10.01
   1   0  -2  345.30   10.73
   1   0  -2  415.93   10.86
   1   0  -2  334.31   10.86
   1   0  -2  362.41   10.92
   1   0  -2  376.00    8.32
   1   0  -2  344.52   11.64
   1   0  -2  336.07   11.05
   1   0  -2  360.07   10.47
  -1   0   1  644.76   11.84
  -1   0   1  611.92   11.71
  -1   0   1  650.81   12.36
  -1   0   1  538.31   11.38
  -1   0   1  499.03   11.05
   1   0  -1  513.01   10.66
   1   0  -1  627.99   11.77
   1   0  -1  444.28   10.14
   1   0  -1  653.22   12.10
   1   0  -1  630.78   12.55
  -1   0   0   62.36    4.62
  -1   0   0   13.92    2.80
  -1   0   0   10.86    2.15
  -1   0   0   -0.20    1.37
  -1   0   0    3.90    2.08
  -1   0   0   47.86    4.36
  -1   0   0    0.20    2.02
  -1   0   0   26.21    3.71
   1   0   0   16.65    2.86
   1   0   0   45.59    4.03
   1   0   0   -0.33    1.17
   1   0   0   55.01    4.03
   1   0   0   24.06    3.32
   1   0   0    3.58    1.89
   1   0   0   75.24    5.46
   1   0   0   -0.78    1.76
  -1   0  -1 2604.09   24.19
  -1   0  -1 2390.73   23.54
  -1   0  -1 1399.04   15.74
  -1   0  -1 2698.12   22.44
  -1   0  -1 2232.97   18.53
  -1   0  -1 2221.52   23.35
  -1   0  -1 2210.86   23.54
   1   0   1 2605.45   24.39
   1   0   1 2427.86   23.41
   1   0   1 2525.01   20.81
   1   0   1 2099.07   19.96
   1   0   1 2235.76   18.40
   1   0   1 2511.88   24.91
   1   0   1 2319.33   23.67
  -1   0  -2  148.98    8.52
  -1   0  -2  147.75    9.04
  -1   0  -2  161.53    7.09
  -1   0  -2  157.24    9.30
   1   0   2  153.14    8.78
   1   0   2  145.93    8.78
   1   0   2  160.23    7.22
   1   0   2  136.37    8.91
   1   0   2  143.39    9.30
  -1   0  -3 1032.14   21.72
  -1   0  -3 1014.13   15.67
  -1   0  -3  956.12   16.84
  -1   0  -3  930.63   21.59
  -1   0  -3 1025.83   22.17
   1   0   3 1053.28   21.52
   1   0   3 1063.55   16.19
   1   0   3  968.54   21.59
   1   0   3 1032.27   22.37
  -1   0  -4  233.00   13.53
  -1   0  -4  236.38   10.53
  -1   0  -4  224.55   14.31
  -1   0  -4  225.65   13.72
   1   0   4  225.13   12.75
   1   0   4  252.77    9.69
   1   0   4  218.17   10.40
   1   0   4  216.81   13.40
   1   0   4  236.51   13.79
  -1   0  -5  116.14   12.23
  -1   0  -5  108.34   10.01
  -1   0  -5  102.94   12.23
  -1   0  -5  111.46   12.16
   1   0   5  119.59   11.45
   1   0   5  120.95    9.75
   1   0   5  109.96   11.97
  -1   0  -6   82.46   12.16
  -1   0  -6   65.29   11.38
  -1   0  -6   70.04   11.25
   1   0   6   76.47   10.99
   1   0   6   76.41    9.30
   1   0   6   76.21   11.51
  -1   0  -7   77.77   12.62
  -1   0  -7   75.95   12.81
  -1   0  -7  105.22   16.39
   1   0   7  102.68   13.53
   1   0   7   92.47   10.79
   1   0   7   81.03   12.68
  -1   0  -8  135.07   16.06
  -1   0  -8  145.34   17.23
   1   0   8  134.42   14.89
   1   0   8  148.14   13.27
   1   0   8  159.71   16.78
  -1   0  -9  276.57   21.33
  -1   0  -9  260.64   21.85
   1   0   9  255.56   19.44
   1   0   9  264.54   17.23
   1   0   9  226.30   20.09
  -1   0 -10   -8.58    8.39
  -1   0 -10   -5.33    8.91
   1   0  10   -1.04    7.54
   1   0  10   -9.43    6.83
   1   0  10   -1.37    8.19
  -1   0 -11  110.94   19.18
  -1   0 -11  129.28   20.22
   1   0  11  122.97   19.31
   1   0  11  149.18   17.30
  -1   0 -12  348.04   29.85
  -1   0 -12  310.38   28.94
   1   0  12  332.62   26.47
   1   0  12  336.07   23.09
  -1   0 -13   18.66   15.74
  -1   0 -13   19.64   16.26
   1   0  13   29.52   14.63
   1   0  13   21.78   13.85
   1   0  13   26.01   17.23
  -1   0 -14   78.10   23.54
  -1   0 -14   44.94   22.37
   1   0  14   63.01   19.05
   1   0  14   -5.14   11.25
  -1   0 -15  299.65   35.77
   1   0  15  230.92   28.87
   1   0  15    7.28   16.71
  -1   0 -16   86.62   26.73
   1   0  16   57.62   20.68
   1   0  16   19.44   19.83
  -1  -1  16   93.71   22.63
  -1  -1  16   23.02   18.79
   1   1 -16  122.19   28.87
  -1  -1  15   18.08   14.50
  -1  -1  15  -29.26   18.60
   1   1 -15  -16.19   17.17
   1   1 -15   11.84   17.23
  -1  -1  14   27.57   14.50
  -1  -1  14    8.19   12.68
  -1  -1  14   18.08   15.28
   1   1 -14   15.87   17.36
   1   1 -14   15.87   16.45
  -1  -1  13   -5.66   10.99
  -1  -1  13    2.08   11.97
  -1  -1  13    6.18   12.62
   1   1 -13   24.65   16.19
   1   1 -13    7.74   13.40
  -1  -1  12  266.62   24.19
  -1  -1  12    2.73    8.91
  -1  -1  12  276.63   25.43
   1   1 -12  280.80   28.35
   1   1 -12  320.01   28.94
  -1  -1  11   66.33   14.76
  -1  -1  11   -2.86    7.28
  -1  -1  11   79.79   16.26
   1   1 -11   80.64   18.08
   1   1 -11   76.41   16.97
  -1  -1  10  123.56   17.36
  -1  -1  10    1.95    7.15
  -1  -1  10  117.77   16.84
   1   1 -10  126.61   18.47
   1   1 -10  147.62   20.03
  -1  -1   9   26.86   10.14
  -1  -1   9   -4.94    5.72
  -1  -1   9   25.36   10.14
  -1  -1   9   26.34   11.05
   1   1  -9   23.48   10.60
   1   1  -9   21.52   10.14
   1   1  -9   28.61   10.73
  -1  -1   8   34.08    9.69
  -1  -1   8    6.24    5.59
  -1  -1   8   44.35   10.66
  -1  -1   8   38.37   10.92
   1   1  -8   43.31   11.19
   1   1  -8   43.18   11.58
   1   1  -8   44.15   11.05
  -1  -1   7  218.17   15.74
  -1  -1   7  228.32   16.58
  -1  -1   7  223.31   17.43
   1   1  -7  211.21   16.78
   1   1  -7  237.42   17.95
   1   1  -7  251.53   17.23
   1   1  -7  235.93   17.49
  -1  -1   6  428.28   18.86
  -1  -1   6  456.76   19.96
  -1  -1   6  429.71   20.09
   1   1  -6  451.69   20.22
   1   1  -6  441.68   20.68
   1   1  -6  463.59   20.35
   1   1  -6  455.53   21.07
  -1  -1   5   28.94    7.35
  -1  -1   5   27.38    7.61
  -1  -1   5   24.58    7.28
   1   1  -5   27.96    7.87
   1   1  -5   30.82    8.13
   1   1  -5   31.34    7.48
   1   1  -5   35.51    8.65
  -1  -1   4  243.92   12.68
  -1  -1   4  258.17   13.66
  -1  -1   4  139.49   10.79
   1   1  -4  281.25   13.85
   1   1  -4  290.29    9.82
   1   1  -4  250.75   13.72
   1   1  -4  256.08   13.46
   1   1  -4  276.63   14.76
  -1  -1   3   30.11    6.05
  -1  -1   3   -4.42    2.86
  -1  -1   3    7.67    3.45
  -1  -1   3   27.83    6.70
  -1  -1   3    2.15    2.34
   1   1  -3   34.73    7.35
   1   1  -3   28.68    6.18
   1   1  -3   47.99    5.59
   1   1  -3   37.59    6.89
   1   1  -3   32.06    6.37
   1   1  -3   28.74    6.50
  -1  -1   2   45.39    5.40
  -1  -1   2   51.63    5.92
  -1  -1   2   35.90    4.42
  -1  -1   2   23.61    4.03
  -1  -1   2   56.25    7.02
  -1  -1   2   48.77    5.98
  -1  -1   2    2.34    1.63
  -1  -1   2   62.95    7.35
   1   1  -2   53.00    6.31
   1   1  -2   37.39    4.55
   1   1  -2   54.30    6.63
   1   1  -2   52.09    6.63
   1   1  -2   58.40    6.70
   1   1  -2   50.85    6.05
   1   1  -2   49.94    6.57
  -1  -1   1   10.27    2.73
  -1  -1   1    9.82    2.86
  -1  -1   1   13.14    3.45
  -1  -1   1   10.66    3.58
  -1  -1   1   11.97    3.71
  -1  -1   1    6.76    3.19
  -1  -1   1    3.77    2.08
   1   1  -1   14.18    3.12
   1   1  -1   11.58    2.99
   1   1  -1   15.15    4.10
   1   1  -1    8.45    2.34
   1   1  -1   11.64    3.38
   1   1  -1   12.29    3.64
   1   1  -1   11.12    3.38
   1   1  -1    8.58    2.80
   1   1  -1   11.64    3.90
  -1  -1   0  133.44    4.88
  -1  -1   0  108.08    4.62
  -1  -1   0   68.74    5.33
  -1  -1   0  133.50    6.18
  -1  -1   0  117.77    5.14
  -1  -1   0  115.23    5.85
  -1  -1   0  118.03    5.33
   1   1   0    5.33    1.89
   1   1   0   23.48    2.73
   1   1   0  120.56    6.50
   1   1   0   35.57    3.84
   1   1   0   23.09    2.86
   1   1   0   59.96    4.29
   1   1   0  105.28    5.14
   1   1   0    0.00    1.63
  -1  -1  -1 2858.61   21.46
  -1  -1  -1 2605.26   20.74
  -1  -1  -1 1962.25   20.74
  -1  -1  -1 2896.33   25.17
  -1  -1  -1 2838.39   19.05
  -1  -1  -1 2604.74   21.91
  -1  -1  -1    0.39    0.59
   1   1   1 2249.94   19.31
   1   1   1 2828.18   24.65
   1   1   1 2806.98   24.91
   1   1   1 2769.13   22.83
  -1  -1  -2  766.82   14.31
  -1  -1  -2  736.91   14.44
  -1  -1  -2  801.16   15.93
  -1  -1  -2  750.89   14.31
  -1  -1  -2  775.80   15.28
   1   1   2  768.32   14.70
   1   1   2  754.40   14.57
   1   1   2  762.73   15.35
   1   1   2  781.71   14.76
   1   1   2  724.16   14.76
   1   1   2  748.48   15.35
  -1  -1  -3   96.31    8.39
  -1  -1  -3   90.85    8.84
  -1  -1  -3   92.08    9.17
  -1  -1  -3   83.04    9.17
  -1  -1  -3   83.89    9.04
   1   1   3   99.17    8.78
   1   1   3   89.09    8.58
   1   1   3   94.62    7.93
   1   1   3   90.26    9.04
   1   1   3   80.70    9.04
  -1  -1  -4  315.52   14.18
  -1  -1  -4  341.40   15.54
  -1  -1  -4  319.42    8.84
  -1  -1  -4  323.71   15.22
  -1  -1  -4  313.44   14.50
   1   1   4  325.28   14.24
   1   1   4  338.93   12.29
   1   1   4  301.15   14.31
   1   1   4  303.04   14.50
  -1  -1  -5 1237.18   27.70
  -1  -1  -5 1169.03   21.33
  -1  -1  -5 1164.28   18.01
  -1  -1  -5 1151.99   28.09
  -1  -1  -5 1233.34   28.42
   1   1   5 1188.54   27.18
   1   1   5 1198.42   22.04
   1   1   5 1193.93   18.53
   1   1   5 1167.66   27.77
   1   1   5 1161.81   27.83
  -1  -1  -6  143.65   13.40
  -1  -1  -6  145.86    8.84
  -1  -1  -6  138.12   14.11
   1   1   6  162.05   13.46
   1   1   6  160.36    9.49
   1   1   6  135.59   13.72
  -1  -1  -7  418.27   20.94
  -1  -1  -7  424.77   21.91
   1   1   7  394.08   20.03
   1   1   7  427.24   15.02
   1   1   7  432.38   21.85
  -1  -1  -8  625.06   26.27
  -1  -1  -8  575.64   26.47
   1   1   8  594.69   25.30
   1   1   8  570.96   18.66
   1   1   8  582.27   18.73
   1   1   8  575.77   26.34
  -1  -1  -9  307.13   21.72
  -1  -1  -9  300.30   22.24
   1   1   9  291.66   20.42
   1   1   9  321.57   15.67
   1   1   9  317.47   16.13
   1   1   9  345.63   22.70
  -1  -1 -10    2.86    8.84
  -1  -1 -10   11.25   10.08
   1   1  10   -4.62    8.00
   1   1  10   -1.76    7.15
   1   1  10    7.54    6.89
   1   1  10   12.16    9.56
  -1  -1 -11   52.02   14.96
  -1  -1 -11   32.19   13.01
   1   1  11   41.10   13.20
   1   1  11   30.69    9.75
   1   1  11   44.61   13.59
  -1  -1 -12  246.33   25.69
  -1  -1 -12  224.68   25.75
   1   1  12  241.52   23.80
   1   1  12  224.68   18.47
  -1  -1 -13   89.22   20.29
  -1  -1 -13   99.17   20.48
   1   1  13   91.56   19.31
  -1  -1 -14   21.59   16.71
   1   1  14    6.76   12.81
  -1  -1 -15   26.60   18.27
   1   1  15   13.14   14.63
   1   1  15   17.30   13.66
  -1  -1 -16   33.75   20.74
   1   1  16   22.57   16.19
   1   1  16   47.93   19.64
  -1  -2  15   15.67   15.22
  -1  -2  15   -8.45   13.53
   1   2 -15   -3.12   18.53
   1   2 -15   25.04   18.73
  -1  -2  14   -0.33   11.71
  -1  -2  14    5.14   13.72
  -1  -2  14   -7.67   14.11
   1   2 -14    4.42   16.32
   1   2 -14   12.75   16.97
  -1  -2  13   10.73   11.97
  -1  -2  13   -8.91   11.51
  -1  -2  13   -3.25   13.40
   1   2 -13   10.01   15.15
   1   2 -13   -0.26   13.53
  -1  -2  12   30.04   12.23
  -1  -2  12  -11.90   12.62
  -1  -2  12   13.33   13.46
   1   2 -12   31.02   16.00
   1   2 -12   27.05   14.50
  -1  -2  11   14.31   10.01
  -1  -2  11   13.01   16.84
  -1  -2  11   15.80   12.81
   1   2 -11   12.81   13.07
   1   2 -11   16.52   12.03
  -1  -2  10  104.18   16.39
  -1  -2  10   40.51   12.88
  -1  -2  10  139.62   19.96
   1   2 -10  125.57   19.77
   1   2 -10  109.38   18.21
  -1  -2   9  403.25   22.76
  -1  -2   9  165.11   16.71
  -1  -2   9  399.86   24.58
   1   2  -9  377.82   24.78
   1   2  -9  430.75   26.21
  -1  -2   8   81.42   12.88
  -1  -2   8   17.04    7.74
  -1  -2   8   74.72   13.66
  -1  -2   8   65.87   12.75
   1   2  -8   83.43   14.50
   1   2  -8   74.46   13.79
   1   2  -8   61.39   11.84
  -1  -2   7   15.54    7.35
  -1  -2   7    4.49    5.79
  -1  -2   7   14.31    8.39
  -1  -2   7   11.38    7.35
   1   2  -7   21.26    8.71
   1   2  -7   22.04    9.23
   1   2  -7   12.03    7.28
   1   2  -7   20.03    8.71
  -1  -2   6  138.38   12.62
  -1  -2   6   69.06   10.47
  -1  -2   6  138.06   14.44
  -1  -2   6   10.47    5.20
   1   2  -6  151.13   14.18
   1   2  -6  143.00   14.44
   1   2  -6  121.80   12.81
   1   2  -6  153.66   15.22
  -1  -2   5  363.38   16.06
  -1  -2   5  261.68   14.18
  -1  -2   5  398.11   19.18
  -1  -2   5    3.19    2.73
   1   2  -5  388.74   17.82
   1   2  -5  361.56   18.08
   1   2  -5  382.63   17.49
   1   2  -5  401.94   19.70
  -1  -2   4   49.03    7.61
  -1  -2   4   43.05    7.09
  -1  -2   4   43.05    9.04
  -1  -2   4   33.29    6.70
   1   2  -4   42.66    7.74
   1   2  -4   38.43    8.00
   1   2  -4   38.63    7.54
   1   2  -4   45.33    8.45
  -1  -2   3   60.80    6.89
  -1  -2   3   65.81    7.41
  -1  -2   3   72.57    7.74
  -1  -2   3   74.33   10.01
  -1  -2   3   67.11    7.93
   1   2  -3   76.34    8.58
   1   2  -3   -2.02    2.15
   1   2  -3   75.37    8.78
   1   2  -3   65.61    7.80
   1   2  -3   81.68   10.01
  -1  -2   2  157.24    7.35
  -1  -2   2  153.53    7.48
  -1  -2   2  174.34    8.78
  -1  -2   2  144.82   11.05
  -1  -2   2  158.15    8.97
   1   2  -2  166.86    8.45
   1   2  -2  168.75    8.65
   1   2  -2  145.47    7.35
   1   2  -2   96.24    5.92
   1   2  -2  140.46    8.97
   1   2  -2  149.11    8.78
   1   2  -2  153.73   11.05
  -1  -2   1  128.69    7.09
  -1  -2   1  120.69    7.15
  -1  -2   1  112.24    9.04
   1   2  -1  139.29    6.70
   1   2  -1  129.86    9.23
   1   2  -1  116.99    6.83
   1   2  -1  122.51    8.65
   1   2  -1  113.15    6.24
  -1  -2   0   44.94    5.14
  -1  -2   0   46.24    6.05
  -1  -2   0   50.59    5.79
  -1  -2   0   51.31    6.11
   1   2   0   51.11    4.94
   1   2   0   59.83    6.63
   1   2   0   49.42    5.40
   1   2   0   47.54    5.66
   1   2   0   46.69    5.07
  -1  -2  -1 1190.36   19.25
  -1  -2  -1 1162.00   18.47
  -1  -2  -1 1156.15   15.48
   1   2   1 1229.11   17.04
   1   2   1 1257.79   19.51
   1   2   1 1215.91   18.92
   1   2   1 1152.32   15.15
   1   2   1 1178.65   18.21
  -1  -2  -2  835.62   12.42
  -1  -2  -2  822.10   12.75
  -1  -2  -2  880.56   18.01
  -1  -2  -2  836.21   14.18
   1   2   2  880.17   13.66
   1   2   2  855.72   13.59
   1   2   2  901.63   17.82
   1   2   2  842.13   17.43
   1   2   2  799.47   14.11
   1   2   2  820.41   14.50
  -1  -2  -3  288.21   10.47
  -1  -2  -3  280.47   10.99
  -1  -2  -3  298.35   13.20
  -1  -2  -3    0.07    0.98
  -1  -2  -3  278.84   11.51
   1   2   3  289.44   11.12
   1   2   3  283.14   11.12
   1   2   3  282.81   12.42
   1   2   3  280.47   11.51
   1   2   3  270.85   11.38
   1   2   3  263.76   11.51
  -1  -2  -4  539.87   16.52
  -1  -2  -4  604.71   18.92
  -1  -2  -4  482.06   16.45
   1   2   4  548.65   16.71
   1   2   4  518.48   16.97
   1   2   4  497.41   16.97
  -1  -2  -5  867.94   22.63
  -1  -2  -5  944.81   25.10
  -1  -2  -5  844.66   16.32
  -1  -2  -5  841.22   23.35
   1   2   5  867.23   22.89
   1   2   5  833.54   23.02
   1   2   5  857.15   23.74
  -1  -2  -6 1068.23   27.38
  -1  -2  -6 1214.55   30.76
  -1  -2  -6 1089.69   22.24
  -1  -2  -6 1055.23   28.55
   1   2   6 1100.62   28.03
   1   2   6 1059.39   28.35
   1   2   6 1034.16   28.48
  -1  -2  -7  317.28   18.27
  -1  -2  -7  347.52   19.96
  -1  -2  -7  292.11   18.66
   1   2   7  302.71   17.95
   1   2   7  308.17   18.73
   1   2   7  291.46   18.86
  -1  -2  -8  264.41   18.53
  -1  -2  -8  250.04   10.92
  -1  -2  -8  270.07   19.12
   1   2   8  251.34   18.01
   1   2   8  230.72   18.60
  -1  -2  -9  423.40   23.48
  -1  -2  -9  369.11   23.35
   1   2   9  368.52   22.04
   1   2   9  375.15   14.70
   1   2   9  343.74   22.83
  -1  -2 -10  248.22   21.07
  -1  -2 -10  193.33   20.29
   1   2  10  235.80   20.03
   1   2  10  248.61   14.18
   1   2  10  227.54   21.07
  -1  -2 -11    3.12    9.82
  -1  -2 -11    7.41   10.21
   1   2  11    3.25    8.65
   1   2  11   -2.41    6.31
   1   2  11    6.70    9.82
  -1  -2 -12   43.83   14.50
  -1  -2 -12   49.36   15.35
   1   2  12   34.14   12.88
   1   2  12   41.16   11.05
   1   2  12   40.38   10.01
   1   2  12   54.75   15.15
  -1  -2 -13    5.85   12.42
  -1  -2 -13    5.85   14.31
   1   2  13    7.35   11.58
  -1  -2 -14    3.38   13.46
   1   2  14   -4.62   11.64
  -1  -2 -15    4.94   15.67
  -1  -2 -15   23.28   21.91
   1   2  15   14.70   14.44
  -1  -2 -16   79.40   25.62
  -1  -2 -16   41.10   24.65
   1   2  16   42.27   17.82
  -1  -2 -17   12.42   20.29
  -1  -2 -17   -2.41   24.32
   1   2  17    6.70   17.36
  -1  -3  14   47.08   16.84
  -1  -3  14    1.37   16.26
  -1  -3  14   48.32   20.48
   1   3 -14   48.32   21.65
   1   3 -14   49.75   20.74
  -1  -3  13    3.97   11.58
  -1  -3  13  -21.26   10.99
  -1  -3  13   21.20   16.00
   1   3 -13    3.12   16.06
   1   3 -13   -6.11   14.70
  -1  -3  12   25.62   12.55
  -1  -3  12    1.82   15.35
  -1  -3  12   12.55   14.31
   1   3 -12   40.77   17.75
   1   3 -12   25.49   15.15
  -1  -3  11  218.56   21.13
  -1  -3  11  196.84   23.80
  -1  -3  11  211.60   26.08
   1   3 -11  216.81   26.08
   1   3 -11  215.12   25.56
  -1  -3  10   10.60    9.49
  -1  -3  10    6.31   12.03
  -1  -3  10   20.94   12.55
   1   3 -10    1.24   10.73
   1   3 -10   12.16   10.92
  -1  -3   9  435.30   23.15
  -1  -3   9  418.59   24.91
  -1  -3   9  441.61   27.64
   1   3  -9  491.10   28.29
   1   3  -9  477.77   28.29
  -1  -3   8  584.16   24.39
  -1  -3   8  569.72   27.83
  -1  -3   8  616.67   29.52
   1   3  -8  613.94   28.42
   1   3  -8  613.68   28.68
   1   3  -8  585.85   33.10
  -1  -3   7   89.41   12.03
  -1  -3   7   81.55   12.29
  -1  -3   7  117.96   16.13
  -1  -3   7   43.31    9.36
   1   3  -7   90.52   13.79
   1   3  -7  104.24   14.70
   1   3  -7   79.99   12.81
   1   3  -7   92.21   14.76
  -1  -3   6    8.91    6.18
  -1  -3   6    5.79    6.37
  -1  -3   6    0.65    7.09
  -1  -3   6    5.01    5.98
   1   3  -6    3.12    6.63
   1   3  -6    4.36    6.63
   1   3  -6    5.53    6.18
   1   3  -6    6.11    7.02
  -1  -3   5  185.53   12.03
  -1  -3   5  170.12   14.50
  -1  -3   5  205.10   16.78
  -1  -3   5  177.33   13.40
   1   3  -5  197.56   14.18
   1   3  -5  206.60   14.89
   1   3  -5  176.10   13.46
   1   3  -5  209.85   16.65
  -1  -3   4  227.93   11.51
  -1  -3   4  248.35   13.98
  -1  -3   4  242.88   16.71
  -1  -3   4  220.38   13.27
   1   3  -4  230.79   13.40
   1   3  -4  212.45   13.85
   1   3  -4  211.15   13.14
   1   3  -4  256.73   16.84
  -1  -3   3  170.70   11.25
  -1  -3   3  157.50   13.53
  -1  -3   3  145.60   10.21
   1   3  -3  155.29   10.34
   1   3  -3  143.91   10.60
   1   3  -3  140.59   10.14
   1   3  -3  164.07   13.40
  -1  -3   2  538.25   16.13
  -1  -3   2  504.50   18.79
  -1  -3   2  467.82   12.23
   1   3  -2  509.89   12.94
   1   3  -2  519.58   13.20
   1   3  -2  508.40   12.62
   1   3  -2  478.68   13.85
   1   3  -2  501.57   13.98
   1   3  -2  580.38   19.64
  -1  -3   1  206.86   10.66
  -1  -3   1  180.52   11.97
  -1  -3   1  175.45    9.04
   1   3  -1  229.03    9.95
   1   3  -1  196.00    9.10
   1   3  -1  187.22    8.97
   1   3  -1  200.35   11.97
  -1  -3   0   46.24    6.18
  -1  -3   0   57.62    8.39
  -1  -3   0   50.01    7.48
  -1  -3   0   41.68    5.98
   1   3   0   49.75    6.11
   1   3   0   53.45    7.48
   1   3   0   54.43    6.76
   1   3   0   46.37    6.83
   1   3   0   49.75    6.24
  -1  -3  -1  115.17    8.65
  -1  -3  -1  108.47    9.49
  -1  -3  -1  102.75    8.39
  -1  -3  -1  108.34    8.84
   1   3   1  108.01    7.74
   1   3   1  105.61    8.97
   1   3   1  101.58    7.28
   1   3   1  112.31    8.26
  -1  -3  -2 4848.11   43.44
  -1  -3  -2 4587.93   33.10
  -1  -3  -2 4568.03   43.11
   1   3   2 4808.51   41.88
   1   3   2 5024.41   43.76
   1   3   2 4219.54   30.04
   1   3   2 4649.25   32.90
   1   3   2 5184.05   54.17
  -1  -3  -4   30.24    5.40
  -1  -3  -4   32.06    6.05
  -1  -3  -4   31.21    7.35
  -1  -3  -4   32.58    6.83
  -1  -3  -4   26.08    5.72
   1   3   4   38.37    6.37
   1   3   4   35.38    6.50
   1   3   4   29.39    6.76
  -1  -3  -5   93.38   10.14
  -1  -3  -5   98.84   12.03
  -1  -3  -5    8.19    4.16
   1   3   5   94.55   10.08
   1   3   5  100.53    7.15
   1   3   5   94.36   10.40
   1   3   5   98.39   11.25
  -1  -3  -6  617.00   20.68
  -1  -3  -6  677.80   23.67
  -1  -3  -6  624.99   15.67
  -1  -3  -6  592.94   21.26
   1   3   6  599.57   20.94
   1   3   6  624.34   15.80
   1   3   6  583.31   21.39
   1   3   6  572.32   21.65
  -1  -3  -7    9.82    6.83
  -1  -3  -7    2.99    6.70
  -1  -3  -7    4.55    6.83
   1   3   7   -2.15    5.92
   1   3   7   -0.52    4.49
   1   3   7    6.63    6.96
   1   3   7   -2.28    6.57
  -1  -3  -8    5.98    7.22
  -1  -3  -8    2.67    7.54
  -1  -3  -8    7.61    7.67
   1   3   8    3.51    7.22
   1   3   8   -4.55    6.44
   1   3   8   -3.19    6.89
  -1  -3  -9   33.29   10.14
  -1  -3  -9   23.87   10.79
  -1  -3  -9   12.49    9.04
   1   3   9   30.43    9.82
   1   3   9   24.65   10.01
  -1  -3 -10  124.08   17.43
  -1  -3 -10  135.59   20.42
  -1  -3 -10   88.76   15.54
   1   3  10  109.12   15.87
   1   3  10  106.58   16.58
  -1  -3 -11  190.47   20.42
  -1  -3 -11  213.62   22.76
  -1  -3 -11  184.10   20.94
   1   3  11  159.91   18.92
   1   3  11  173.11   20.87
  -1  -3 -12    3.32   10.73
  -1  -3 -12   -9.17   11.64
  -1  -3 -12    1.43   10.34
   1   3  12    2.73   10.01
   1   3  12   -0.85   10.73
  -1  -3 -13   17.56   13.46
  -1  -3 -13    9.69   14.11
   1   3  13    4.16   10.92
   1   3  13   12.29   12.81
  -1  -3 -14   10.73   13.85
  -1  -3 -14   -6.57   16.06
   1   3  14  -11.51   11.90
  -1  -3 -15   -0.39   14.76
  -1  -3 -15  -22.24   15.87
   1   3  15   -6.05   12.10
  -1  -3 -16   54.10   21.52
  -1  -3 -16   43.76   22.70
   1   3  16   32.77   16.91
  -1  -3 -17   23.93   20.22
  -1  -3 -17   30.76   24.58
   1   3  17   28.16   19.18
  -1  -4  14    4.81   15.80
  -1  -4  14    3.77   19.57
   1   4 -14    7.15   20.94
   1   4 -14   14.89   18.60
  -1  -4  13   -8.13   18.01
  -1  -4  13   25.23   19.18
   1   4 -13   14.76   18.79
   1   4 -13   27.44   17.62
  -1  -4  12    7.80   10.86
  -1  -4  12   14.31   12.55
  -1  -4  12    6.63   15.09
   1   4 -12   -8.71   14.05
   1   4 -12   16.32   14.89
  -1  -4  11  157.44   19.51
  -1  -4  11  165.50   22.89
  -1  -4  11  167.91   24.58
   1   4 -11  231.44   28.94
   1   4 -11  221.88   28.35
  -1  -4  10   -0.78    8.06
  -1  -4  10    4.88   10.01
  -1  -4  10    2.93   12.03
   1   4 -10    2.15   11.58
   1   4 -10    5.20   11.05
  -1  -4   9  146.38   15.87
  -1  -4   9  165.82   20.03
  -1  -4   9  190.34   23.35
   1   4  -9  172.46   20.94
   1   4  -9  181.63   22.63
  -1  -4   8  251.92   17.36
  -1  -4   8  257.39   20.48
  -1  -4   8  280.99   24.06
   1   4  -8  263.63   21.59
   1   4  -8  262.39   21.85
   1   4  -8  277.02   23.93
  -1  -4   7    4.68    6.05
  -1  -4   7   -8.45    9.49
  -1  -4   7    2.47    8.71
   1   4  -7    6.70    8.06
   1   4  -7    9.88    8.52
   1   4  -7    4.88    7.28
   1   4  -7   10.27    9.88
  -1  -4   6   46.63    8.65
  -1  -4   6   55.34   10.66
  -1  -4   6   46.17   11.84
  -1  -4   6   51.63   10.27
   1   4  -6   54.04   11.38
   1   4  -6   55.01   11.38
   1   4  -6   43.96   10.01
   1   4  -6   55.47   12.55
  -1  -4   5   11.12    6.76
  -1  -4   5    7.22    7.74
  -1  -4   5   11.64    6.37
   1   4  -5    7.22    6.37
   1   4  -5    7.09    6.89
   1   4  -5   14.31    6.57
   1   4  -5    6.50    7.22
  -1  -4   4   60.22    9.95
  -1  -4   4   54.62   11.38
  -1  -4   4   62.88    8.91
   1   4  -4   57.10    9.17
   1   4  -4   50.27    8.91
   1   4  -4   59.83    9.10
   1   4  -4   56.97   10.99
  -1  -4   3   10.53    5.98
  -1  -4   3   11.90    7.48
  -1  -4   3   13.59    4.49
   1   4  -3   21.39    5.92
   1   4  -3   16.19    4.68
   1   4  -3   14.57    5.98
   1   4  -3   13.92    5.33
   1   4  -3    6.70    6.76
  -1  -4   2  166.80   12.10
  -1  -4   2  154.57   13.59
  -1  -4   2  145.08    9.56
   1   4  -2  154.64    9.56
   1   4  -2  161.66   13.27
  -1  -4   1  946.37   22.83
  -1  -4   1  925.23   25.23
  -1  -4   1  866.06   19.83
   1   4  -1  981.03   19.44
   1   4  -1  951.64   24.00
   1   4  -1  972.18   24.71
  -1  -4   0   89.55    9.62
  -1  -4   0   90.52   10.47
  -1  -4   0   85.06   10.34
  -1  -4   0   80.83    8.91
   1   4   0   90.46    8.26
   1   4   0   80.18    9.69
  -1  -4  -1 3134.08   38.63
  -1  -4  -1 3294.24   39.86
  -1  -4  -1 3019.56   37.39
  -1  -4  -1 2967.41   37.65
  -1  -4  -2 2433.26   34.73
  -1  -4  -2 2530.80   34.92
  -1  -4  -2 2431.96   30.63
  -1  -4  -2 2374.73   35.12
   1   4   2 2268.08   28.68
   1   4   2 2420.45   30.04
  -1  -4  -3  392.00   16.26
  -1  -4  -3  356.88   11.90
  -1  -4  -3  396.29   12.36
  -1  -4  -3  366.63   16.00
   1   4   3  371.77   11.90
   1   4   3  384.91   11.71
  -1  -4  -4  156.79   12.55
  -1  -4  -4  145.01    8.58
  -1  -4  -4  130.77   12.10
  -1  -4  -4  141.57    9.82
   1   4   4  153.99    9.43
   1   4   4  148.40    9.10
   1   4   4  132.59    7.87
   1   4   4  140.85    7.15
   1   4   4  151.13    9.88
   1   4   4  142.74   10.21
  -1  -4  -5   12.81    4.81
  -1  -4  -5   12.16    5.59
  -1  -4  -5   12.94    7.28
  -1  -4  -5   10.34    4.42
  -1  -4  -5    9.04    5.79
  -1  -4  -5    3.84    5.27
   1   4   5   11.64    5.53
   1   4   5   13.72    4.10
   1   4   5    9.23    5.79
   1   4   5    4.36    5.92
  -1  -4  -6  186.31   12.49
  -1  -4  -6  184.36   15.15
  -1  -4  -6  181.11   10.01
  -1  -4  -6  179.94   13.85
   1   4   6  162.25   12.55
   1   4   6  182.41    9.88
   1   4   6  141.18   12.81
   1   4   6  159.97   13.98
  -1  -4  -7  681.44   22.70
  -1  -4  -7  732.81   26.40
  -1  -4  -7  524.46   21.33
   1   4   7  666.09   23.41
   1   4   7  704.52   18.47
   1   4   7  657.90   23.93
   1   4   7  641.97   24.26
  -1  -4  -8   72.77   11.71
  -1  -4  -8   68.87   12.94
  -1  -4  -8   56.97   10.92
   1   4   8   70.43   11.58
   1   4   8   60.35    8.71
   1   4   8   55.60   10.92
   1   4   8   50.33   11.05
  -1  -4  -9   13.98    8.52
  -1  -4  -9   10.53    8.58
  -1  -4  -9   13.79    8.52
   1   4   9   14.37    8.84
   1   4   9   11.58    6.83
   1   4   9   21.39    9.56
   1   4   9   11.84    8.65
  -1  -4 -10   16.13    9.43
  -1  -4 -10    1.76    9.49
  -1  -4 -10    4.68    8.58
   1   4  10   13.33    8.84
   1   4  10   12.75   10.60
  -1  -4 -11    3.12    9.10
  -1  -4 -11   10.73   10.47
  -1  -4 -11    9.69   10.34
   1   4  11   -4.36    8.84
   1   4  11    8.39   10.14
  -1  -4 -12   88.18   16.91
  -1  -4 -12  103.53   20.87
   1   4  12   88.89   17.23
   1   4  12   68.41   16.78
  -1  -4 -13   15.41   12.62
  -1  -4 -13   24.97   14.70
   1   4  13   18.27   12.94
   1   4  13   16.13   12.88
  -1  -4 -14   98.91   20.68
  -1  -4 -14  120.04   23.54
   1   4  14   63.60   17.30
   1   4  14   98.39   20.74
  -1  -4 -15   27.18   17.75
  -1  -4 -15   62.10   21.59
   1   4  15   49.16   18.60
  -1  -4 -16    8.97   16.97
  -1  -4 -16   -4.36   18.27
   1   4  16    1.82   15.41
  -1  -4 -17   20.55   19.96
  -1  -4 -17   -5.72   22.30
   1   4  17   26.47   18.47
  -1  -5  13    9.23   14.11
  -1  -5  13    0.72   18.66
   1   5 -13    4.29   18.40
   1   5 -13   11.90   17.43
  -1  -5  12   -0.59   13.79
  -1  -5  12  -19.25   14.70
   1   5 -12    0.39   16.13
   1   5 -12   -3.84   14.96
  -1  -5  11    3.71   11.19
  -1  -5  11   18.47   16.58
   1   5 -11   13.98   16.00
   1   5 -11   32.32   14.57
  -1  -5  10    1.30   10.53
  -1  -5  10    6.11   13.79
   1   5 -10    3.45   13.33
   1   5 -10   23.87   13.98
  -1  -5   9   52.02   11.19
  -1  -5   9   53.78   13.66
  -1  -5   9   40.19   15.74
   1   5  -9   79.60   17.69
   1   5  -9   51.18   14.89
  -1  -5   8   11.97    7.67
  -1  -5   8    9.17    9.30
  -1  -5   8   10.60   12.16
   1   5  -8    9.43   10.27
   1   5  -8    6.44    9.43
   1   5  -8   15.87   11.32
  -1  -5   7  154.57   16.97
  -1  -5   7  146.58   20.94
   1   5  -7  154.51   17.43
   1   5  -7  154.44   18.01
   1   5  -7  169.60   20.74
  -1  -5   6   70.62   13.66
  -1  -5   6   73.16   15.28
   1   5  -6   79.08   12.81
   1   5  -6   78.82   13.14
   1   5  -6   59.89   11.32
   1   5  -6   74.65   15.15
  -1  -5   5    5.85    6.31
  -1  -5   5    1.82    8.45
  -1  -5   5    2.47    5.85
   1   5  -5    4.62    6.50
   1   5  -5    0.65    6.37
   1   5  -5    4.55    6.31
   1   5  -5    6.76    8.06
  -1  -5   4    7.61    6.31
  -1  -5   4    5.98    8.13
  -1  -5   4    3.58    4.36
   1   5  -4    8.78    6.05
   1   5  -4    5.79    5.92
   1   5  -4   -2.47    5.59
   1   5  -4    2.28    6.96
  -1  -5   3  190.08   14.70
  -1  -5   3  188.84   17.04
  -1  -5   3  166.54   11.05
   1   5  -3  176.16   11.58
   1   5  -3  169.99   11.97
   1   5  -3  171.03   11.71
   1   5  -3  147.42   14.89
  -1  -5   2  218.43   15.87
  -1  -5   2  231.83   17.23
  -1  -5   2  212.52   12.62
   1   5  -2  224.74   11.19
   1   5  -2  241.84   16.58
  -1  -5   1   16.97    6.50
  -1  -5   1   16.32    7.35
  -1  -5   1   18.53    6.18
   1   5  -1   29.98    6.44
   1   5  -1   15.74    7.09
  -1  -5   0   24.52    6.96
  -1  -5   0   23.09    7.87
  -1  -5   0   19.12    7.61
  -1  -5   0   22.17    6.57
   1   5   0   20.55    6.96
  -1  -5  -1  690.48   21.91
  -1  -5  -1  766.89   22.63
  -1  -5  -1  695.49   21.91
  -1  -5  -1  697.83   21.59
   1   5   1  716.69   20.74
  -1  -5  -2  159.91   12.81
  -1  -5  -2  149.37   12.49
  -1  -5  -2  151.58   11.77
  -1  -5  -2  163.16   12.94
   1   5   2  153.92   10.66
  -1  -5  -3 1046.32   26.99
  -1  -5  -3 1025.44   25.56
  -1  -5  -3 1002.29   22.24
  -1  -5  -3  958.53   26.14
   1   5   3  961.58   21.39
  -1  -5  -4 1346.30   29.72
  -1  -5  -4 1226.97   30.11
   1   5   4 1229.37   23.15
   1   5   4 1240.88   21.98
  -1  -5  -5  254.00   16.26
  -1  -5  -5  213.30   13.59
  -1  -5  -5  245.68   16.13
  -1  -5  -5  250.10   12.49
   1   5   5  262.59   12.55
   1   5   5  231.76   11.51
   1   5   5  243.60   10.01
   1   5   5  240.09   12.68
   1   5   5  247.44   13.53
  -1  -5  -6   23.87    6.18
  -1  -5  -6   16.19    7.87
  -1  -5  -6   21.13    7.80
  -1  -5  -6   17.36    6.31
   1   5   6   26.40    7.28
   1   5   6   19.31    5.33
   1   5   6   18.14    6.63
   1   5   6   11.45    6.89
  -1  -5  -7  694.90   21.39
  -1  -5  -7  714.54   26.40
  -1  -5  -7  696.27   25.49
  -1  -5  -7  646.13   22.57
   1   5   7  691.52   23.28
   1   5   7  709.60   19.05
   1   5   7  626.16   23.02
   1   5   7  630.07   23.61
  -1  -5  -8  416.06   19.44
  -1  -5  -8  477.05   23.80
  -1  -5  -8  414.63   21.20
  -1  -5  -8    1.69    3.64
   1   5   8  438.95   21.07
   1   5   8  443.82   16.84
   1   5   8  377.75   20.42
   1   5   8  416.45   21.85
  -1  -5  -9  115.04   14.76
  -1  -5  -9  117.44   15.93
  -1  -5  -9  129.99   16.06
   1   5   9   97.93   14.37
   1   5   9  106.13   11.71
   1   5   9   91.95   13.66
   1   5   9  101.12   15.09
  -1  -5 -10    3.97    8.58
  -1  -5 -10    1.82    9.23
  -1  -5 -10    1.30    7.61
   1   5  10    0.46    8.06
   1   5  10    5.66    6.50
   1   5  10   -3.32    8.52
   1   5  10   -5.07    7.67
  -1  -5 -11  318.77   22.57
  -1  -5 -11  333.99   25.56
  -1  -5 -11  278.13   26.08
   1   5  11  301.54   23.02
   1   5  11  298.81   18.73
   1   5  11  303.23   24.32
  -1  -5 -12  450.52   27.64
  -1  -5 -12  533.82   32.32
   1   5  12  495.52   29.39
   1   5  12  456.37   29.91
  -1  -5 -13   16.06   12.68
  -1  -5 -13   -0.33   12.42
   1   5  13   10.47   12.55
   1   5  13    2.28   12.42
  -1  -5 -14  314.94   28.61
  -1  -5 -14  313.77   31.60
   1   5  14  298.55   28.61
   1   5  14  306.16   30.17
  -1  -5 -15   82.85   20.94
  -1  -5 -15   93.90   23.48
   1   5  15   75.82   19.83
   1   5  15   84.08   21.39
  -1  -5 -16   22.44   17.75
  -1  -5 -16   32.84   21.91
   1   5  16   30.95   19.31
  -1  -5 -17   15.61   18.01
  -1  -5 -17   11.84   20.29
   1   5  17   22.63   18.73
  -1  -6  12    2.28   12.68
  -1  -6  12   -0.13   17.56
   1   6 -12    6.05   17.30
   1   6 -12   -4.42   13.79
  -1  -6  11   -4.16   11.71
  -1  -6  11    3.64   17.43
   1   6 -11   -0.07   15.28
   1   6 -11  -10.79   11.90
  -1  -6  10   62.75   15.93
  -1  -6  10   94.55   23.28
   1   6 -10   82.46   19.90
   1   6 -10   71.14   17.82
  -1  -6   9    8.06   10.40
  -1  -6   9   32.06   16.71
   1   6  -9   32.38   13.92
   1   6  -9   35.31   13.20
  -1  -6   8  119.85   18.99
  -1  -6   8  146.84   23.09
   1   6  -8  123.30   19.64
   1   6  -8  112.05   18.14
  -1  -6   7  161.92   20.42
  -1  -6   7  164.85   22.96
   1   6  -7  151.65   18.53
   1   6  -7  156.52   19.05
   1   6  -7  190.01   24.06
  -1  -6   6    4.03    7.93
  -1  -6   6   -1.89   10.14
   1   6  -6    7.61    8.39
   1   6  -6    5.79    8.32
   1   6  -6   21.20   11.38
  -1  -6   5    0.07    6.89
  -1  -6   5    2.93    9.10
   1   6  -5   10.21    6.96
   1   6  -5    2.41    6.96
   1   6  -5    2.54    7.02
   1   6  -5    0.52    8.13
  -1  -6   4   58.92   11.84
  -1  -6   4   67.44   14.24
  -1  -6   4   55.53    8.71
   1   6  -4   66.85   10.40
   1   6  -4   55.27   10.21
   1   6  -4   52.02   10.14
   1   6  -4   60.41   12.75
  -1  -6   3  109.18   13.59
  -1  -6   3   97.74   15.41
  -1  -6   3   86.36   10.47
   1   6  -3  114.45   10.66
   1   6  -3  111.07   15.74
  -1  -6   2  357.20   19.77
  -1  -6   2  332.43   21.46
  -1  -6   2  296.86   15.74
   1   6  -2  353.30   20.29
  -1  -6   1    1.95    5.53
  -1  -6   1    0.07    6.63
  -1  -6   1   -1.17    5.40
   1   6  -1    6.57    5.53
   1   6  -1   -1.04    5.72
  -1  -6   0  344.78   18.92
  -1  -6   0  332.30   19.44
  -1  -6   0  333.99   17.30
   1   6   0  364.81   18.21
  -1  -6  -1  227.47   16.13
  -1  -6  -1  198.08   15.54
  -1  -6  -1  212.32   16.00
  -1  -6  -1  189.82   14.89
   1   6   1  185.07   14.76
   1   6   1  211.99   14.37
  -1  -6  -2 2984.31   47.80
  -1  -6  -2 3077.83   45.39
  -1  -6  -2 2873.57   44.74
  -1  -6  -2 2793.13   45.85
   1   6   2 2703.78   42.53
  -1  -6  -3   27.12    8.58
  -1  -6  -3   19.31    8.26
  -1  -6  -3   28.16    7.41
  -1  -6  -3   23.80    7.74
   1   6   3   26.73    6.70
  -1  -6  -4 2945.23   45.20
  -1  -6  -4 2784.87   47.86
   1   6   4 2727.19   38.89
  -1  -6  -5 2099.07   39.93
  -1  -6  -5 1935.85   41.42
   1   6   5 1850.01   31.80
   1   6   5 1883.05   29.78
   1   6   5 1882.72   30.17
  -1  -6  -6 1003.98   29.59
  -1  -6  -6  911.90   29.78
  -1  -6  -6  856.17   22.17
   1   6   6  945.20   23.48
   1   6   6  908.00   22.37
   1   6   6  879.06   18.99
   1   6   6  858.51   23.48
   1   6   6  796.54   23.15
  -1  -6  -7   29.00    6.76
  -1  -6  -7   28.48    9.36
  -1  -6  -7   19.90    8.26
  -1  -6  -7   21.59    6.96
   1   6   7   16.91    7.02
   1   6   7   27.12    6.83
   1   6   7   18.01    7.35
   1   6   7   19.18    8.06
  -1  -6  -8  762.86   23.28
  -1  -6  -8  837.83   30.30
  -1  -6  -8  708.62   28.09
  -1  -6  -8  711.87   24.97
   1   6   8  748.16   26.01
   1   6   8  755.90   21.91
   1   6   8  700.69   25.95
   1   6   8  722.80   26.79
  -1  -6  -9  697.89   24.65
  -1  -6  -9  753.88   30.69
  -1  -6  -9  707.06   28.87
  -1  -6  -9  371.84   19.70
   1   6   9  715.64   27.64
   1   6   9  724.29   22.57
   1   6   9  646.52   27.12
   1   6   9  661.80   28.09
  -1  -6 -10   21.39    9.62
  -1  -6 -10   35.05   12.23
  -1  -6 -10   21.33    9.82
  -1  -6 -10   11.64    7.67
   1   6  10   32.90   11.51
   1   6  10   26.99    8.26
   1   6  10   17.36   10.14
   1   6  10   26.99   11.05
  -1  -6 -11   16.97   10.27
  -1  -6 -11    6.89    9.82
   1   6  11   15.09    9.88
   1   6  11   13.20    8.19
   1   6  11   -4.16    9.43
  -1  -6 -12  214.08   21.46
  -1  -6 -12  274.55   25.30
   1   6  12  246.98   23.61
   1   6  12  243.21   18.92
   1   6  12  226.24   23.80
  -1  -6 -13  485.44   29.91
  -1  -6 -13  514.64   33.88
   1   6  13  453.84   30.95
   1   6  13  467.62   25.23
   1   6  13  474.26   32.58
  -1  -6 -14  174.93   24.32
  -1  -6 -14  179.55   26.34
   1   6  14  179.22   26.21
   1   6  14  163.94   24.78
  -1  -6 -15  142.80   24.06
  -1  -6 -15  128.89   25.30
   1   6  15  142.74   24.71
   1   6  15   89.35   21.39
  -1  -6 -16  229.75   30.76
  -1  -6 -16  179.42   29.91
   1   6  16  159.32   27.05
   1   6  16  173.11   29.39
  -1  -6 -17   29.98   19.38
  -1  -6 -17   -4.36   19.77
   1   6  17   35.83   19.77
  -1  -7  11   32.06   15.02
  -1  -7  11   46.69   22.04
   1   7 -11   43.50   21.52
   1   7 -11   17.56   15.22
  -1  -7  10   10.40   12.29
  -1  -7  10   12.75   17.75
   1   7 -10   18.14   15.74
   1   7 -10   17.49   14.63
  -1  -7   9   58.53   16.45
  -1  -7   9   91.43   22.76
   1   7  -9   72.18   18.01
   1   7  -9   41.88   15.48
  -1  -7   8   36.29   13.72
  -1  -7   8   69.13   20.22
   1   7  -8   78.23   17.56
   1   7  -8   52.74   14.70
  -1  -7   7    3.77    9.30
  -1  -7   7   -5.92   11.84
   1   7  -7    7.67   10.27
   1   7  -7   11.97   10.47
   1   7  -7   -0.07   11.58
  -1  -7   6  348.36   26.47
  -1  -7   6  412.15   31.02
   1   7  -6  376.19   23.48
   1   7  -6  357.66   23.41
   1   7  -6  392.39   29.39
  -1  -7   5  536.36   28.03
  -1  -7   5  528.30   32.19
  -1  -7   5  478.74   19.57
   1   7  -5  474.65   23.41
   1   7  -5  479.07   23.61
   1   7  -5  492.01   30.89
   1   7  -5  477.70   29.65
  -1  -7   4   50.98   11.71
  -1  -7   4   48.58   14.44
  -1  -7   4   39.86    8.91
   1   7  -4   49.55   10.34
   1   7  -4   46.63   10.14
   1   7  -4   47.47   10.21
   1   7  -4   42.85   12.49
  -1  -7   3   -1.63    6.63
  -1  -7   3    0.52    8.52
  -1  -7   3    5.79    6.44
   1   7  -3   -2.28    7.02
  -1  -7   2  134.09   16.84
  -1  -7   2  114.58   17.36
  -1  -7   2   96.63   12.42
   1   7  -2  116.66   11.19
   1   7  -2  102.42   14.89
  -1  -7   1  454.49   23.02
  -1  -7   1  446.36   24.45
  -1  -7   1  411.31   20.16
   1   7  -1  410.59   17.82
   1   7  -1  437.26   22.11
  -1  -7   0   42.14   10.14
  -1  -7   0   41.16   10.79
  -1  -7   0   38.95    9.17
   1   7   0   46.04    9.75
  -1  -7  -1    5.46    6.76
  -1  -7  -1    7.02    7.22
  -1  -7  -1    5.53    7.02
  -1  -7  -1    5.66    6.44
   1   7   1   10.40    7.22
   1   7   1   -1.17    5.20
  -1  -7  -2 2206.44   45.07
  -1  -7  -2 2246.95   41.81
  -1  -7  -2 2106.42   42.66
  -1  -7  -2 2049.07   42.85
   1   7   2 1956.33   40.51
   1   7   2 2156.36   38.43
  -1  -7  -3   56.45   11.32
  -1  -7  -3   61.39   10.92
  -1  -7  -3   49.42   11.38
   1   7   3   47.80    9.23
  -1  -7  -4   14.18    7.93
  -1  -7  -4   17.49    7.87
  -1  -7  -4   17.95    8.13
   1   7   4    9.04    5.85
  -1  -7  -5  222.92   16.32
  -1  -7  -5  218.43   17.69
   1   7   5  178.83   12.88
  -1  -7  -6   45.59   10.47
  -1  -7  -6   43.05   10.27
   1   7   6   31.93    7.22
   1   7   6   35.64    7.41
   1   7   6   30.37    7.15
   1   7   6   35.12    7.74
  -1  -7  -7   10.01    8.19
  -1  -7  -7    4.81    7.28
  -1  -7  -7    6.37    6.44
   1   7   7    7.41    6.83
   1   7   7   14.18    5.85
   1   7   7    9.69    6.57
   1   7   7   16.00    7.54
  -1  -7  -8    5.46    8.91
  -1  -7  -8   17.88    9.17
  -1  -7  -8    9.10    7.02
   1   7   8    4.94    7.28
   1   7   8   14.11    6.63
   1   7   8   16.39    7.87
   1   7   8   11.64    8.06
  -1  -7  -9  199.51   14.83
  -1  -7  -9  233.19   20.42
  -1  -7  -9  185.33   18.53
  -1  -7  -9  147.29   15.41
   1   7   9  198.27   17.23
   1   7   9  188.71   14.37
   1   7   9  146.97   16.52
   1   7   9  160.04   17.10
  -1  -7 -10  166.28   15.93
  -1  -7 -10  168.17   19.83
  -1  -7 -10  169.99   19.12
   1   7  10  157.63   17.82
   1   7  10  155.74   14.24
   1   7  10  172.26   19.25
  -1  -7 -11   17.88    9.75
  -1  -7 -11   23.35   11.84
  -1  -7 -11   24.13   11.19
   1   7  11   21.33   11.77
   1   7  11   16.71    8.78
   1   7  11    3.38    9.69
  -1  -7 -12  135.52   18.60
  -1  -7 -12  120.43   19.57
   1   7  12  126.55   19.57
   1   7  12  132.79   16.45
   1   7  12  110.42   19.12
  -1  -7 -13  196.84   22.17
  -1  -7 -13  215.83   26.66
   1   7  13  150.61   22.24
   1   7  13  182.86   19.05
   1   7  13  173.69   24.06
  -1  -7 -14  149.63   21.98
  -1  -7 -14  180.46   26.92
   1   7  14  146.38   23.74
   1   7  14  131.36   23.15
  -1  -7 -15  141.18   23.61
  -1  -7 -15  146.97   25.82
   1   7  15  113.74   23.15
   1   7  15  114.52   23.28
  -1  -7 -16   64.51   20.81
  -1  -7 -16   73.48   22.04
   1   7  16   42.59   19.51
   1   7  16   47.73   20.29
  -1  -7 -17  -13.72   15.48
  -1  -7 -17   23.87   20.35
   1   7  17    7.93   17.36
  -1  -8  10    6.18   12.23
  -1  -8  10   17.95   19.77
   1   8 -10    7.61   12.88
  -1  -8   9   73.61   18.73
  -1  -8   9  102.55   24.91
   1   8  -9   79.01   18.92
  -1  -8   8  113.22   19.90
  -1  -8   8  138.58   25.62
   1   8  -8  184.88   28.87
   1   8  -8  119.20   20.09
  -1  -8   7   -5.92   10.01
  -1  -8   7    5.85   14.83
   1   8  -7    9.82   11.51
   1   8  -7    4.75   10.27
   1   8  -7    9.36   13.07
  -1  -8   6   82.26   17.23
  -1  -8   6  110.09   22.44
   1   8  -6   83.17   15.74
   1   8  -6   95.27   15.93
   1   8  -6   73.87   18.66
  -1  -8   5  368.52   26.08
  -1  -8   5  381.07   30.69
   1   8  -5  349.01   21.98
   1   8  -5  349.66   21.91
   1   8  -5  387.51   29.59
  -1  -8   4  192.62   20.35
  -1  -8   4  192.68   23.54
  -1  -8   4  194.50   16.45
   1   8  -4  193.59   16.52
   1   8  -4  184.36   22.17
  -1  -8   3  161.73   18.34
  -1  -8   3  153.92   21.46
  -1  -8   3  146.71   15.22
   1   8  -3  148.07   19.51
  -1  -8   2  153.01   17.43
  -1  -8   2  143.71   20.48
  -1  -8   2  141.57   15.28
   1   8  -2  123.82   12.55
   1   8  -2  139.03   17.23
  -1  -8   1  585.00   27.77
  -1  -8   1  576.35   29.59
  -1  -8   1  518.54   24.00
   1   8  -1  551.97   21.59
   1   8  -1  513.92   25.43
  -1  -8   0    0.65    7.02
  -1  -8   0    0.59    8.00
  -1  -8   0    2.15    6.44
   1   8   0    1.76    7.87
   1   8   0   -2.41    5.85
  -1  -8  -1   11.32    7.54
  -1  -8  -1   -6.63    6.37
  -1  -8  -1    5.01    8.13
  -1  -8  -1    4.16    7.02
   1   8   1    3.19    7.61
   1   8   1    7.80    6.57
  -1  -8  -2  551.71   26.14
  -1  -8  -2  572.19   24.13
  -1  -8  -2  579.34   26.21
  -1  -8  -2  549.04   25.36
   1   8   2  510.54   24.32
   1   8   2  548.20   22.11
  -1  -8  -3  280.54   20.22
  -1  -8  -3  283.66   18.27
  -1  -8  -3  267.92   19.64
   1   8   3  266.29   18.14
   1   8   3  289.64   16.32
  -1  -8  -4    7.41    8.00
  -1  -8  -4    1.24    6.83
  -1  -8  -4    5.53    6.83
   1   8   4   -3.38    5.53
  -1  -8  -5  133.24   14.70
  -1  -8  -5  124.47   17.04
   1   8   5  124.34   12.94
  -1  -8  -6  148.66   15.74
  -1  -8  -6  174.60   17.62
   1   8   6  142.09   13.33
  -1  -8  -7  122.38   16.39
  -1  -8  -7  106.91   16.39
   1   8   7  102.16   12.03
   1   8   7  116.79   12.55
   1   8   7  102.81   12.16
   1   8   7  100.80   12.36
  -1  -8  -8   25.10    9.95
  -1  -8  -8    7.80    8.52
   1   8   8   17.30    8.13
   1   8   8   24.91    7.87
   1   8   8   27.83    8.97
   1   8   8   23.35    8.91
  -1  -8  -9  110.87   16.58
  -1  -8  -9   96.57   16.19
   1   8   9   91.04   13.79
   1   8   9  105.54   13.01
   1   8   9   97.80   14.31
   1   8   9   76.67   13.27
  -1  -8 -10  492.86   21.00
  -1  -8 -10  493.83   28.48
  -1  -8 -10  447.33   27.77
   1   8  10  495.13   25.62
   1   8  10  460.15   21.72
   1   8  10  420.28   25.30
  -1  -8 -11  220.38   18.21
  -1  -8 -11  206.47   22.63
  -1  -8 -11  226.69   22.70
   1   8  11  225.65   21.59
   1   8  11  235.28   17.69
   1   8  11  194.50   21.65
  -1  -8 -12   12.42   10.47
  -1  -8 -12   13.98   12.16
  -1  -8 -12    5.07   10.79
   1   8  12    6.63   10.79
   1   8  12    7.02    8.26
   1   8  12    6.83   10.79
  -1  -8 -13    8.97   11.25
  -1  -8 -13   32.84   15.74
   1   8  13   19.83   13.72
   1   8  13   11.64   10.01
   1   8  13   15.35   13.59
  -1  -8 -14  116.01   19.96
  -1  -8 -14  179.03   26.79
   1   8  14  153.53   24.78
   1   8  14  103.92   21.26
  -1  -8 -15   -5.07   13.07
  -1  -8 -15    9.36   16.97
   1   8  15    6.76   14.50
   1   8  15    0.65   13.92
  -1  -8 -16   36.61   17.75
  -1  -8 -16   16.52   17.69
   1   8  16   28.87   18.86
   1   8  16   31.54   18.47
  -1  -8 -17   -2.93   15.41
  -1  -8 -17  -13.72   16.39
   1   8  17    5.92   18.53
   1   8  17   -5.07   15.87
  -1  -9   9   16.45   14.76
  -1  -9   9   25.23   20.09
   1   9  -9    8.91   13.85
  -1  -9   8  107.69   21.91
  -1  -9   8  157.11   29.26
   1   9  -8   91.69   18.34
  -1  -9   7  144.49   22.70
  -1  -9   7  135.91   26.92
   1   9  -7  154.57   21.13
  -1  -9   6    8.78   10.79
  -1  -9   6   19.83   16.39
   1   9  -6    8.71   10.14
   1   9  -6   22.83   14.57
  -1  -9   5   26.34   12.55
  -1  -9   5   47.73   17.69
   1   9  -5   36.55   15.15
  -1  -9   4   93.84   18.14
  -1  -9   4  125.96   23.02
   1   9  -4  121.54   21.52
  -1  -9   3  256.99   23.22
  -1  -9   3  239.18   25.62
  -1  -9   3  279.23   20.29
   1   9  -3  251.40   24.32
  -1  -9   2    5.85    8.78
  -1  -9   2   13.72   11.97
  -1  -9   2    0.39    7.74
   1   9  -2    6.50    7.74
   1   9  -2   14.57   10.53
  -1  -9   1  170.25   19.18
  -1  -9   1  203.74   22.63
  -1  -9   1  201.72   18.60
   1   9  -1  168.62   15.61
   1   9  -1  173.30   22.04
   1   9  -1  183.19   19.25
  -1  -9   0  267.20   21.98
  -1  -9   0  281.77   23.93
  -1  -9   0  251.21   20.16
   1   9   0  247.37   22.24
   1   9   0  278.71   20.35
  -1  -9  -1    5.40    8.00
  -1  -9  -1  -10.14    6.96
  -1  -9  -1   -3.71    7.15
   1   9   1   -0.59    8.39
   1   9   1    2.21    6.31
  -1  -9  -2   -2.60    7.48
  -1  -9  -2   -0.20    7.48
  -1  -9  -2   -2.21    7.02
   1   9   2    6.76    8.19
   1   9   2   -0.78    5.92
  -1  -9  -3  449.48   26.01
  -1  -9  -3  449.55   23.09
  -1  -9  -3  431.60   25.04
   1   9   3  346.54   21.98
   1   9   3  402.99   20.09
  -1  -9  -4  197.43   19.64
  -1  -9  -4  215.44   17.82
  -1  -9  -4  205.49   19.38
   1   9   4  166.86   16.65
   1   9   4  198.27   14.83
  -1  -9  -5    6.57    8.45
  -1  -9  -5    4.55    7.41
  -1  -9  -5   -0.85    7.28
   1   9   5    2.73    6.76
  -1  -9  -6  148.98   16.58
  -1  -9  -6  150.80   18.27
   1   9   6  142.54   14.70
  -1  -9  -7  181.82   18.01
  -1  -9  -7  141.83   19.12
   1   9   7  168.69   13.92
   1   9   7  148.20   14.70
  -1  -9  -8   75.30   13.66
  -1  -9  -8   71.40   14.50
   1   9   8   76.41   11.97
   1   9   8   78.88   12.55
   1   9   8   74.07   11.90
   1   9   8   34.99    9.75
  -1  -9  -9  128.11   18.40
  -1  -9  -9  162.51   22.24
   1   9   9  137.54   16.13
   1   9   9  132.66   15.09
   1   9   9  124.27   16.13
   1   9   9  118.81   15.93
  -1  -9 -10    7.67   10.40
  -1  -9 -10   11.45   11.12
   1   9  10   17.56   10.34
   1   9  10    5.72    8.19
   1   9  10   16.39   10.34
  -1  -9 -11    5.27   10.92
  -1  -9 -11   -2.28    9.82
   1   9  11    3.32   10.14
   1   9  11   13.92    8.58
   1   9  11    5.20   10.60
  -1  -9 -12   63.01   13.14
  -1  -9 -12   85.45   18.21
  -1  -9 -12   44.15   15.15
   1   9  12   85.64   17.04
   1   9  12   69.26   13.66
   1   9  12   74.39   16.91
  -1  -9 -13   93.64   15.87
  -1  -9 -13   77.58   18.86
  -1  -9 -13   86.36   19.44
   1   9  13   95.14   20.61
   1   9  13   83.63   18.47
  -1  -9 -14   85.25   17.36
  -1  -9 -14   53.58   19.38
   1   9  14   63.27   19.25
   1   9  14   66.26   18.53
  -1  -9 -15   30.69   15.28
  -1  -9 -15   35.90   18.73
   1   9  15   41.49   19.38
   1   9  15   35.25   17.17
  -1  -9 -16   14.70   15.28
  -1  -9 -16   10.73   17.10
   1   9  16   17.23   18.01
   1   9  16   13.14   16.00
  -1  -9 -17   12.62   16.26
  -1  -9 -17   -8.19   17.49
   1   9  17   24.13   19.96
   1   9  17   -1.95   16.58
  -1 -10   7   20.81   14.50
  -1 -10   7   16.26   17.56
  -1 -10   6    0.39   10.86
  -1 -10   6    8.00   16.45
   1  10  -6   -1.56   14.31
  -1 -10   5   95.40   20.29
  -1 -10   5  119.00   24.71
   1  10  -5  113.67   22.44
  -1 -10   4   74.52   17.75
  -1 -10   4   65.22   19.38
   1  10  -4   81.22   19.90
  -1 -10   3   26.27   12.88
  -1 -10   3   25.17   14.24
  -1 -10   3   24.91   15.48
   1  10  -3   14.89   13.07
   1  10  -3   25.75   14.05
  -1 -10   2   89.35   17.69
  -1 -10   2  122.19   21.98
  -1 -10   2  110.42   16.91
   1  10  -2  101.84   20.94
   1  10  -2  111.07   19.18
  -1 -10   1    3.64    9.69
  -1 -10   1    0.59   11.19
  -1 -10   1    8.58    9.17
   1  10  -1    3.45    8.52
   1  10  -1    1.11   10.60
   1  10  -1   -5.07    8.84
  -1 -10   0    3.97    9.56
  -1 -10   0   -5.27    9.95
  -1 -10   0    9.43    9.56
   1  10   0    4.88    8.45
   1  10   0    9.82   10.40
   1  10   0   14.37    9.62
  -1 -10  -1  101.90   16.84
  -1 -10  -1  103.59   17.56
   1  10   1  108.60   18.92
   1  10   1   92.28   14.18
  -1 -10  -2   83.04   15.41
  -1 -10  -2   95.85   15.41
  -1 -10  -2   83.63   15.48
   1  10   2   76.34   15.22
   1  10   2   76.34   12.81
  -1 -10  -3  318.38   24.58
  -1 -10  -3  326.64   22.24
  -1 -10  -3  332.56   24.45
   1  10   3  320.72   23.67
   1  10   3  316.37   19.90
  -1 -10  -4  265.77   23.35
  -1 -10  -4  295.30   21.52
  -1 -10  -4  287.69   23.48
   1  10   4  241.19   20.94
   1  10   4  269.42   18.01
  -1 -10  -5    2.67    8.91
  -1 -10  -5    3.64    8.65
  -1 -10  -5    4.16    9.10
   1  10   5    7.61    8.91
   1  10   5    9.04    7.02
  -1 -10  -6   26.66   10.66
  -1 -10  -6   36.03   12.23
   1  10   6   40.64   11.25
  -1 -10  -7  129.34   17.95
  -1 -10  -7   96.70   16.84
   1  10   7   91.43   14.37
  -1 -10  -8  338.35   23.67
  -1 -10  -8  317.28   26.27
   1  10   8  295.30   18.73
   1  10   8  304.21   20.68
   1  10   8  269.48   17.75
  -1 -10  -9   81.61   15.93
  -1 -10  -9   80.31   17.82
   1  10   9   73.16   13.46
   1  10   9   68.35   13.46
   1  10   9   79.34   13.79
  -1 -10 -10   29.98   12.68
  -1 -10 -10   18.60   12.81
   1  10  10   46.50   12.23
   1  10  10   38.04   11.84
  -1 -10 -11  118.48   19.51
  -1 -10 -11   86.10   18.79
   1  10  11   93.90   16.84
   1  10  11   83.82   14.70
   1  10  11  107.56   18.40
  -1 -10 -12   36.09   14.96
  -1 -10 -12   36.42   15.41
   1  10  12   37.07   14.44
   1  10  12   36.81   11.90
   1  10  12   31.21   14.31
  -1 -10 -13   16.65   13.66
  -1 -10 -13   22.70   15.80
   1  10  13   47.08   16.91
   1  10  13   50.14   16.39
  -1 -10 -14   -7.15   13.01
  -1 -10 -14   -6.70   13.46
   1  10  14   13.40   14.89
   1  10  14   16.19   13.59
  -1 -10 -15  229.23   30.24
   1  10  15  238.85   30.69
   1  10  15  227.28   29.26
  -1 -10 -16   21.72   17.56
   1  10  16   15.93   18.21
   1  10  16   28.29   17.75
  -1 -10 -17   -8.65   17.17
   1  10  17    7.54   18.99
   1  10  17   -2.15   17.36
  -1 -11   6    6.76   12.42
   1  11  -6   18.86   16.45
  -1 -11   5   10.34   13.53
  -1 -11   5   14.63   18.34
   1  11  -5   25.30   18.01
   1  11  -5   41.03   18.66
  -1 -11   4   17.49   13.92
  -1 -11   4   13.27   17.62
   1  11  -4   21.91   17.62
   1  11  -4    9.17   14.89
  -1 -11   3   16.00   12.36
   1  11  -3   14.50   14.50
   1  11  -3    7.74   13.98
  -1 -11   2  348.10   28.81
  -1 -11   2  393.95   27.51
   1  11  -2  327.03   31.34
   1  11  -2  408.90   31.54
  -1 -11   1  383.74   29.65
  -1 -11   1  403.51   27.57
   1  11  -1  330.15   30.50
   1  11  -1  429.58   29.91
  -1 -11   0   14.24   12.42
  -1 -11   0   13.01   11.25
   1  11   0   20.61   11.12
   1  11   0    9.10   11.71
   1  11   0   15.09   11.19
  -1 -11  -1  142.74   20.74
  -1 -11  -1  148.33   20.29
   1  11   1  116.73   20.61
   1  11   1  129.02   18.60
  -1 -11  -2  357.20   27.90
  -1 -11  -2  377.95   27.18
   1  11   2  341.47   27.38
   1  11   2  322.93   22.50
  -1 -11  -3   17.69   11.25
  -1 -11  -3   16.13   10.73
  -1 -11  -3   42.92   13.79
   1  11   3   18.27   11.58
   1  11   3   36.48   10.92
  -1 -11  -4  145.99   20.87
  -1 -11  -4  179.42   20.29
  -1 -11  -4  178.50   21.91
   1  11   4  165.04   21.39
   1  11   4  141.11   16.91
  -1 -11  -5  864.30   39.28
  -1 -11  -5  890.64   34.47
  -1 -11  -5  850.78   38.82
   1  11   5  799.99   34.66
   1  11   5  796.35   28.55
  -1 -11  -6  360.85   24.65
  -1 -11  -6  352.46   28.22
   1  11   6  325.41   24.52
   1  11   6  356.88   20.61
  -1 -11  -7   27.64   11.45
  -1 -11  -7   40.25   14.18
   1  11   7   29.78   11.32
  -1 -11  -8  189.62   20.94
  -1 -11  -8  216.48   24.26
   1  11   8  220.19   20.55
  -1 -11  -9   81.29   16.19
  -1 -11  -9   66.85   17.36
   1  11   9   64.12   13.59
   1  11   9   72.05   13.98
   1  11   9   56.06   12.49
  -1 -11 -10   61.58   15.80
  -1 -11 -10   34.08   14.96
   1  11  10   46.69   12.88
   1  11  10   53.84   13.72
   1  11  10   64.51   13.72
  -1 -11 -11    0.65   11.19
  -1 -11 -11    8.78   12.94
   1  11  11    8.84   11.51
   1  11  11   10.92    9.88
   1  11  11   10.01   11.25
  -1 -11 -12  264.28   27.05
  -1 -11 -12  262.52   29.65
   1  11  12  241.45   24.84
   1  11  12  208.68   24.26
  -1 -11 -13   63.60   18.21
  -1 -11 -13   75.56   20.22
   1  11  13   92.86   21.20
   1  11  13   93.71   19.83
  -1 -11 -14   28.74   16.39
  -1 -11 -14    0.91   15.67
   1  11  14   24.78   16.58
   1  11  14    7.93   13.79
  -1 -11 -15  223.11   30.11
   1  11  15  189.69   29.20
   1  11  15  189.56   28.16
  -1 -11 -16   72.83   22.83
   1  11  16   97.41   25.30
   1  11  16   69.32   22.37
  -1 -12   4    7.48   13.01
   1  12  -4   26.60   18.99
   1  12  -4   23.48   17.62
  -1 -12   3   11.90   13.27
   1  12  -3    3.90   14.50
   1  12  -3   -8.45   14.24
  -1 -12   2  188.39   27.70
   1  12  -2  172.13   27.96
   1  12  -2  167.12   25.62
  -1 -12   1  255.56   28.16
  -1 -12   1  321.89   27.90
   1  12  -1  285.15   31.99
   1  12  -1  295.56   28.74
  -1 -12   0   96.18   20.35
  -1 -12   0   84.86   17.69
   1  12   0   67.70   19.38
   1  12   0   71.92   17.43
  -1 -12  -1   18.53   14.11
  -1 -12  -1   31.93   14.44
   1  12   1   25.88   12.68
   1  12   1   10.86   13.85
   1  12   1   20.48   11.58
  -1 -12  -2  173.63   23.93
  -1 -12  -2  173.11   24.19
   1  12   2  165.76   24.06
   1  12   2  143.45   19.38
  -1 -12  -3  122.38   21.26
  -1 -12  -3  136.04   21.65
   1  12   3  107.88   20.16
   1  12   3  135.26   18.47
  -1 -12  -4   36.03   13.92
  -1 -12  -4   45.98   14.31
  -1 -12  -4   55.40   15.74
   1  12   4   40.12   15.28
   1  12   4   36.48   11.25
  -1 -12  -5  215.51   25.10
  -1 -12  -5  193.92   21.65
  -1 -12  -5  217.13   25.56
   1  12   5  202.37   23.35
   1  12   5  182.28   20.16
  -1 -12  -6   78.75   18.53
  -1 -12  -6   81.94   16.97
  -1 -12  -6   71.27   17.30
   1  12   6   72.38   17.04
  -1 -12  -7    5.46   10.73
  -1 -12  -7   16.91   12.75
   1  12   7   18.79   11.51
  -1 -12  -8   28.61   12.16
  -1 -12  -8   12.36   13.40
   1  12   8   21.52   11.84
  -1 -12  -9   22.89   12.29
  -1 -12  -9   28.48   15.22
   1  12   9   15.74   11.25
  -1 -12 -10  244.83   24.71
  -1 -12 -10  247.96   28.68
   1  12  10  227.80   22.50
   1  12  10  227.02   21.13
  -1 -12 -11   -4.03   11.90
  -1 -12 -11    7.87   14.05
   1  12  11   -3.64   11.19
   1  12  11    7.61   11.05
  -1 -12 -12   35.57   14.96
  -1 -12 -12   52.74   18.60
   1  12  12   46.04   15.54
  -1 -12 -13  104.11   21.46
  -1 -12 -13   97.02   22.63
   1  12  13  107.49   25.04
   1  12  13  109.90   20.35
  -1 -12 -14   71.14   21.00
  -1 -12 -14   71.73   21.65
   1  12  14   70.04   21.46
   1  12  14   55.27   17.82
  -1 -12 -15   24.91   17.04
  -1 -12 -15   16.78   17.88
   1  12  15   10.92   18.08
   1  12  15   35.51   17.23
  -1 -12 -16   60.15   21.72
   1  12  16  105.74   26.60
   1  12  16   69.13   22.17
  -1 -13   2   13.14   14.57
   1  13  -2    7.09   16.84
   1  13  -2   27.38   18.34
  -1 -13   1  124.79   24.58
   1  13  -1  105.87   24.71
   1  13  -1  109.12   22.70
  -1 -13   0  170.70   25.23
  -1 -13   0  169.01   24.13
   1  13   0  165.95   28.35
   1  13   0  200.68   32.51
  -1 -13  -1   11.38   13.07
  -1 -13  -1    4.03   13.14
   1  13   1  -10.86   11.77
  -1 -13  -2   59.96   17.75
  -1 -13  -2   64.64   18.99
   1  13   2   72.77   17.43
   1  13   2   54.49   19.83
  -1 -13  -3  229.49   27.70
  -1 -13  -3  271.43   29.13
   1  13   3  200.61   27.31
  -1 -13  -4   40.32   16.00
  -1 -13  -4   49.55   16.78
   1  13   4   43.83   16.45
  -1 -13  -5   49.94   16.91
  -1 -13  -5   64.70   16.19
  -1 -13  -5   63.14   17.82
   1  13   5   65.94   18.08
  -1 -13  -6  315.65   31.21
  -1 -13  -6  329.70   26.53
  -1 -13  -6  346.15   31.41
   1  13   6  296.73   28.03
  -1 -13  -7  229.49   24.78
  -1 -13  -7  229.03   28.22
   1  13   7  175.58   23.80
  -1 -13  -8   -4.88   11.71
  -1 -13  -8    7.48   13.72
   1  13   8   -0.72   11.58
  -1 -13  -9   56.51   16.84
  -1 -13  -9   71.79   19.70
   1  13   9   71.27   16.91
  -1 -13 -10  198.40   24.78
  -1 -13 -10  222.07   30.63
   1  13  10  204.71   24.26
  -1 -13 -11  100.67   20.68
  -1 -13 -11  122.38   24.26
   1  13  11  120.76   18.86
  -1 -13 -12   -0.33   14.11
  -1 -13 -12   -2.02   14.44
   1  13  12    1.37   11.58
  -1 -13 -13  131.55   24.00
  -1 -13 -13  113.61   25.04
   1  13  13  132.14   22.17
  -1 -13 -14    5.79   15.87
  -1 -13 -14   25.36   19.12
   1  13  14   16.45   15.48
  -1 -13 -15   78.62   22.83
   1  13  15   73.16   20.87
  -1 -14   0  108.73   24.78
   1  14   0  149.70   28.48
  -1 -14  -1   19.57   16.39
  -1 -14  -1   21.52   16.13
   1  14   1   17.49   16.91
  -1 -14  -2    7.35   13.72
  -1 -14  -2    3.71   13.40
   1  14   2    5.27   15.61
  -1 -14  -3   57.03   18.47
  -1 -14  -3   58.66   19.64
   1  14   3   75.43   21.98
  -1 -14  -4   47.73   17.75
  -1 -14  -4   29.72   17.17
   1  14   4   55.79   18.34
  -1 -14  -5   -5.85   11.64
  -1 -14  -5    1.30   13.27
   1  14   5   -1.17   13.79
  -1 -14  -6   39.54   16.84
  -1 -14  -6   42.53   17.10
   1  14   6   45.39   17.62
  -1 -14  -7   98.52   22.30
   1  14   7  111.39   21.91
  -1 -14  -8   55.47   19.44
   1  14   8   66.98   19.64
  -1 -14  -9    3.51   14.31
   1  14   9   -1.17   12.81
  -1 -14 -10   15.35   14.76
  -1 -14 -11   92.41   23.87
  -1 -14 -12  159.71   28.87
   1  14  12  113.93   20.22
  -1 -14 -13    8.32   16.58
   1  14  13   26.47   15.80
  -1 -15  -4    5.59   16.00
  -1 -15  -4    7.22   15.35
   1  15   4   40.19   19.05
  -1 -15  -5   -0.13   14.11
  -1 -15  -5    7.87   15.93
   1  15   5   -0.85   15.61
  -1 -15  -6   -5.85   14.50
  -1 -15  -6   20.48   17.49
   1  15   6   10.08   16.52
  -1 -15  -7   84.02   23.22
   1  15   7   62.36   20.35
  -1 -15  -8  113.28   25.36
   1  15   8   77.06   21.26
  -1 -15  -9   29.20   18.34
  -1 -15 -10   38.50   19.38
  -2  14   9  103.07   26.92
  -2  14   9   90.91   20.03
   2 -14  -9   96.96   24.58
  -2  14   8  -12.16   16.32
  -2  14   8    4.23   13.01
   2 -14  -8    9.95   18.08
   2 -14  -8    2.15   16.65
  -2  14   7  131.88   26.92
  -2  14   7  159.32   22.63
   2 -14  -7  171.29   31.47
   2 -14  -7  138.97   27.44
  -2  14   6  108.92   25.69
   2 -14  -6  182.15   30.89
   2 -14  -6  141.50   28.42
  -2  14   5   31.80   18.66
   2 -14  -5   53.26   21.52
   2 -14  -5   52.09   19.51
  -2  13  12   76.21   23.02
  -2  13  12   67.31   19.57
   2 -13 -12   93.38   25.82
  -2  13  11   -8.65   15.93
  -2  13  11   22.89   15.54
   2 -13 -11    5.14   17.17
  -2  13  10   61.45   22.89
  -2  13  10   36.09   16.84
   2 -13 -10   49.03   20.09
  -2  13   9  154.38   26.60
  -2  13   9  122.58   20.35
   2 -13  -9  112.57   24.84
  -2  13   8   56.77   20.03
  -2  13   8   93.64   18.34
   2 -13  -8   57.62   21.65
   2 -13  -8   89.28   22.63
  -2  13   7   19.83   17.95
  -2  13   7    6.96   12.49
   2 -13  -7   13.46   17.95
   2 -13  -7    5.92   14.37
  -2  13   6  152.82   26.53
  -2  13   6  173.56   22.24
   2 -13  -6  188.26   30.24
   2 -13  -6  147.68   25.75
  -2  13   5  126.81   26.34
  -2  13   5  124.14   19.44
   2 -13  -5  109.51   24.78
   2 -13  -5  141.11   26.79
  -2  13   4    2.08   14.63
   2 -13  -4   13.53   16.84
   2 -13  -4   11.12   14.44
  -2  13   3   13.92   16.84
   2 -13  -3    8.65   16.58
   2 -13  -3    8.45   14.76
  -2  13   2   54.82   21.46
   2 -13  -2   48.97   20.74
   2 -13  -2   43.50   18.21
  -2  13   1   23.41   19.51
   2 -13  -1   11.84   17.69
   2 -13  -1   14.18   15.80
  -2  12  14  -15.15   16.00
  -2  12  14   10.66   17.95
  -2  12  14  -15.80   13.66
   2 -12 -14   -8.58   18.01
  -2  12  13   25.88   17.43
  -2  12  13   19.44   18.40
  -2  12  13   34.92   17.56
   2 -12 -13   15.41   18.73
  -2  12  12   40.77   18.53
  -2  12  12   35.31   19.38
  -2  12  12   17.49   15.35
   2 -12 -12   -6.89   14.83
  -2  12  11  132.98   22.76
  -2  12  11  185.07   28.68
  -2  12  11  188.06   26.08
   2 -12 -11  150.93   27.77
  -2  12  10   58.59   22.11
  -2  12  10   63.40   19.51
  -2  12  10   70.43   17.82
   2 -12 -10   73.03   22.76
  -2  12   9  114.97   23.28
  -2  12   9  110.09   19.77
   2 -12  -9  134.09   25.23
  -2  12   8  385.62   34.01
  -2  12   8  380.16   27.44
   2 -12  -8  436.28   36.48
   2 -12  -8  393.62   35.25
  -2  12   7   65.94   18.47
  -2  12   7  101.64   18.01
   2 -12  -7   87.01   21.59
   2 -12  -7   85.90   21.20
  -2  12   6   19.57   15.41
  -2  12   6    2.28   10.53
   2 -12  -6   32.64   17.10
   2 -12  -6   22.04   14.57
  -2  12   5  111.72   23.80
  -2  12   5  131.10   18.40
   2 -12  -5  105.80   23.54
   2 -12  -5  120.76   23.54
  -2  12   4  114.13   24.39
  -2  12   4   92.99   16.26
   2 -12  -4  136.56   26.14
   2 -12  -4  105.74   21.85
  -2  12   3   46.37   17.95
   2 -12  -3   52.09   18.60
   2 -12  -3   70.36   19.44
  -2  12   2   25.69   18.14
   2 -12  -2    2.86   13.33
   2 -12  -2   15.22   14.31
  -2  12   1  127.46   25.49
   2 -12  -1  135.85   26.60
   2 -12  -1  161.53   25.56
  -2  12   0   44.15   20.42
   2 -12   0   17.23   17.36
   2 -12   0   40.97   16.52
  -2  12  -1   35.77   20.48
  -2  12  -1   28.03   13.92
   2 -12   1   15.93   15.93
   2 -12   1   27.64   16.39
  -2  12  -2   18.73   18.60
  -2  12  -2    9.10   13.53
   2 -12   2    6.70   17.43
  -2  11  15   27.05   20.29
  -2  11  15   23.61   19.12
  -2  11  15   -1.50   16.06
   2 -11 -15   13.40   19.77
  -2  11  14  -16.00   14.83
  -2  11  14   -2.15   15.61
  -2  11  14   10.34   16.26
   2 -11 -14   12.10   18.86
  -2  11  13    8.71   16.00
  -2  11  13    0.72   15.15
  -2  11  13   11.12   14.96
   2 -11 -13    1.04   16.13
  -2  11  12    3.51   14.05
  -2  11  12   -6.63   15.09
  -2  11  12   26.60   14.83
   2 -11 -12   -2.34   15.15
  -2  11  11   84.21   19.57
  -2  11  11   94.88   21.98
  -2  11  11   87.85   19.31
   2 -11 -11  123.49   23.74
  -2  11  10   -4.49   12.16
  -2  11  10   30.17   14.89
  -2  11  10    2.67   12.16
   2 -11 -10   -4.94   12.94
  -2  11   9    5.79   12.29
  -2  11   9   14.44   14.76
  -2  11   9   15.80   11.90
   2 -11  -9   23.28   15.48
  -2  11   8   35.83   13.46
  -2  11   8   16.13   14.44
  -2  11   8   34.21   13.14
   2 -11  -8   24.45   15.74
   2 -11  -8   36.68   16.58
  -2  11   7   98.26   17.69
  -2  11   7   88.76   19.64
  -2  11   7   93.19   16.97
   2 -11  -7   99.10   21.33
   2 -11  -7  100.01   21.07
  -2  11   6    4.81   10.92
  -2  11   6   19.70   13.07
  -2  11   6   13.40   10.47
   2 -11  -6   32.90   14.96
   2 -11  -6    9.36   12.29
  -2  11   5   83.76   26.34
  -2  11   5   78.10   19.05
  -2  11   5   73.68   14.57
   2 -11  -5   85.90   20.22
   2 -11  -5   55.34   17.10
  -2  11   4   83.95   19.44
  -2  11   4  117.96   17.10
   2 -11  -4  194.63   28.74
   2 -11  -4  122.38   21.72
  -2  11   3   -7.22   11.38
  -2  11   3   11.05   10.14
   2 -11  -3   -4.29   12.55
   2 -11  -3   11.84   12.55
  -2  11   2    6.89   13.14
  -2  11   2    3.45   10.21
   2 -11  -2   15.93   13.46
   2 -11  -2    2.86   11.58
  -2  11   1   27.57   16.06
  -2  11   1   45.52   13.53
   2 -11  -1   34.01   16.00
   2 -11  -1   37.98   15.54
  -2  11   0   37.26   16.06
  -2  11   0   53.78   14.76
   2 -11   0   81.81   21.20
   2 -11   0   57.62   17.82
  -2  11  -1  103.79   24.45
  -2  11  -1   69.06   16.06
   2 -11   1   69.52   22.17
   2 -11   1  112.57   21.65
  -2  11  -2   -0.13   14.76
  -2  11  -2    2.08   12.29
   2 -11   2    8.00   14.96
   2 -11   2   -4.88   12.42
  -2  11  -3   71.14   23.15
  -2  11  -3   70.23   17.56
   2 -11   3   84.41   22.50
  -2  11  -4   96.24   26.79
  -2  11  -4   83.11   19.25
   2 -11   4  101.97   23.61
  -2  10  16   40.84   21.72
  -2  10  16   46.04   21.72
  -2  10  16   23.80   19.70
   2 -10 -16   32.45   21.20
  -2  10  15   -2.15   16.91
  -2  10  15    9.88   16.84
  -2  10  15    4.10   16.13
   2 -10 -15   12.75   16.84
  -2  10  14   55.86   19.90
  -2  10  14   35.70   19.05
  -2  10  14   64.44   20.16
   2 -10 -14   59.37   20.68
  -2  10  13    7.41   14.96
  -2  10  13   14.11   15.48
  -2  10  13   -2.34   13.27
   2 -10 -13   14.76   15.87
  -2  10  12   40.25   16.78
  -2  10  12   70.10   18.86
  -2  10  12   18.60   14.57
   2 -10 -12   53.45   18.01
  -2  10  11  198.27   24.52
  -2  10  11  220.84   28.16
  -2  10  11  205.10   24.97
   2 -10 -11  234.36   29.98
  -2  10  10  183.25   23.28
  -2  10  10  172.78   25.62
  -2  10  10  166.54   22.24
   2 -10 -10  206.73   28.03
  -2  10   9   45.46   14.31
  -2  10   9   43.89   16.00
  -2  10   9   28.16   13.01
   2 -10  -9   38.24   15.15
  -2  10   8   20.42   11.45
  -2  10   8    8.84   12.49
  -2  10   8   14.70   10.60
   2 -10  -8   -1.56   11.45
   2 -10  -8   35.90   15.02
  -2  10   7  162.25   19.70
  -2  10   7  149.44   22.89
  -2  10   7  161.53   19.44
   2 -10  -7  146.51   22.96
   2 -10  -7  162.83   24.06
  -2  10   6    6.83   10.01
  -2  10   6    5.46   11.45
  -2  10   6   25.56   11.19
   2 -10  -6   15.74   11.90
   2 -10  -6   18.99   12.03
  -2  10   5    3.64    9.62
  -2  10   5  -10.86    8.91
  -2  10   5    5.72    8.84
   2 -10  -5    8.00   10.79
   2 -10  -5   -6.05    9.04
  -2  10   4   12.29   10.40
  -2  10   4   18.21   12.36
  -2  10   4   10.73    9.30
   2 -10  -4   21.52   13.14
   2 -10  -4    3.32    9.75
  -2  10   3    0.07    8.97
  -2  10   3   -4.23   11.19
  -2  10   3    3.90    9.10
   2 -10  -3    3.12   10.86
   2 -10  -3   -4.62    9.75
  -2  10   2  179.22   19.12
  -2  10   2  164.07   24.65
  -2  10   2  187.22   19.18
   2 -10  -2  177.92   25.56
   2 -10  -2  203.35   23.74
  -2  10   1   91.50   15.80
  -2  10   1   78.03   18.47
  -2  10   1   98.84   16.52
   2 -10  -1   83.63   18.21
   2 -10  -1   95.46   19.12
  -2  10   0    6.05   13.14
  -2  10   0    5.46   12.94
  -2  10   0   12.16   10.53
   2 -10   0   -3.06   10.73
   2 -10   0   17.04   11.84
  -2  10  -1   13.53   13.72
  -2  10  -1   25.49   12.16
   2 -10   1   41.81   17.95
   2 -10   1   26.08   13.40
  -2  10  -2    9.49   14.76
  -2  10  -2    8.97   11.05
   2 -10   2   15.28   14.37
   2 -10   2   16.19   12.23
  -2  10  -3   29.07   16.71
  -2  10  -3   10.53   11.90
   2 -10   3    2.86   13.79
   2 -10   3   11.51   11.90
  -2  10  -4  202.05   31.93
  -2  10  -4  176.81   23.61
   2 -10   4  205.10   29.98
  -2  10  -5   34.01   18.79
  -2  10  -5   35.57   16.71
   2 -10   5   33.69   17.49
  -2  10  -6   -2.28   17.49
  -2  10  -6  -20.94   13.46
   2 -10   6   -5.20   14.05
  -2   9  16    0.33   16.52
  -2   9  16   13.46   17.43
  -2   9  16    1.56   16.97
   2  -9 -16   -4.88   13.66
   2  -9 -16    1.30   15.22
   2  -9 -16    5.92   16.78
  -2   9  15   32.45   18.66
  -2   9  15   -2.60   14.89
  -2   9  15   26.01   17.69
   2  -9 -15   12.88   14.70
   2  -9 -15   10.92   14.44
   2  -9 -15   16.39   17.30
  -2   9  14   30.69   17.56
  -2   9  14   27.70   17.10
  -2   9  14   39.28   17.30
   2  -9 -14   29.59   14.24
   2  -9 -14   52.15   16.58
   2  -9 -14   65.55   20.29
  -2   9  13   43.05   16.84
  -2   9  13   56.64   18.79
  -2   9  13   41.88   16.39
   2  -9 -13   67.57   16.19
   2  -9 -13   51.44   14.83
   2  -9 -13   63.73   19.90
  -2   9  12   10.47   13.40
  -2   9  12    5.20   13.85
  -2   9  12    1.56   12.88
   2  -9 -12   13.46   10.79
   2  -9 -12    9.17   10.86
   2  -9 -12   10.47   13.79
  -2   9  11   39.47   14.24
  -2   9  11   24.65   13.72
  -2   9  11   32.71   14.31
   2  -9 -11   35.38   11.97
   2  -9 -11   27.05   11.51
   2  -9 -11   21.98   13.98
  -2   9  10  271.11   24.58
  -2   9  10  254.59   26.53
  -2   9  10  243.21   24.65
   2  -9 -10  258.10   19.31
   2  -9 -10  291.59   20.09
   2  -9 -10  264.47   27.25
  -2   9   9  260.51   23.02
  -2   9   9  269.87   25.75
  -2   9   9  285.67   24.19
   2  -9  -9  283.92   18.34
   2  -9  -9  272.73   19.05
   2  -9  -9  295.04   27.96
  -2   9   8  103.33   16.65
  -2   9   8  114.52   20.16
  -2   9   8  105.93   16.78
   2  -9  -8  127.91   18.60
   2  -9  -8  129.93   21.13
  -2   9   7   78.82   15.02
  -2   9   7   81.03   16.78
  -2   9   7   71.34   13.79
   2  -9  -7   75.89   16.65
   2  -9  -7   86.88   17.69
  -2   9   6  194.96   18.66
  -2   9   6  172.46   23.02
  -2   9   6  161.60   17.95
   2  -9  -6  185.92   22.24
   2  -9  -6  208.09   23.35
  -2   9   5  173.24   17.75
  -2   9   5  131.10   20.42
  -2   9   5  146.12   17.43
   2  -9  -5  163.03   22.24
   2  -9  -5  149.18   20.48
  -2   9   4   33.10   11.38
  -2   9   4   38.89   13.59
  -2   9   4   41.94   11.51
   2  -9  -4   37.85   13.14
   2  -9  -4   44.15   13.59
  -2   9   3  196.91   18.01
  -2   9   3  182.99   22.76
  -2   9   3  189.95   18.34
   2  -9  -3  246.72   24.19
   2  -9  -3  219.93   23.15
  -2   9   2   60.02   12.75
  -2   9   2   33.75   13.79
  -2   9   2   45.00   12.16
   2  -9  -2   54.95   15.93
   2  -9  -2   41.10   14.11
  -2   9   1   29.85   10.60
  -2   9   1    7.93   11.12
  -2   9   1   13.07    9.30
   2  -9  -1   21.20   12.42
   2  -9  -1   13.40   10.92
  -2   9   0  119.72   16.91
  -2   9   0  116.08   20.87
  -2   9   0  102.81   16.00
   2  -9   0  122.77   20.22
   2  -9   0  138.90   21.00
  -2   9  -1   17.49   10.86
  -2   9  -1   -1.69   11.90
  -2   9  -1    8.97   10.66
   2  -9   1   14.37   11.97
   2  -9   1   24.78   11.71
  -2   9  -2    5.72   10.21
  -2   9  -2   -1.63   11.51
  -2   9  -2    9.95   10.92
   2  -9   2    3.12   11.25
   2  -9   2   18.34   11.64
  -2   9  -3   -8.45   10.73
  -2   9  -3   -7.74   12.03
  -2   9  -3    9.82   11.97
   2  -9   3    0.26   11.12
   2  -9   3    2.02   10.34
  -2   9  -4   83.37   17.95
  -2   9  -4   92.21   21.78
  -2   9  -4   89.61   18.47
   2  -9   4  102.88   20.74
   2  -9   4   77.32   16.97
  -2   9  -5    7.35   14.44
  -2   9  -5   22.37   16.26
  -2   9  -5   24.19   14.83
   2  -9   5   30.24   15.54
  -2   9  -6   27.51   21.65
  -2   9  -6   33.03   19.38
  -2   9  -6   42.40   16.52
   2  -9   6   14.11   15.22
  -2   9  -7   -0.78   16.78
  -2   9  -7   -8.00   14.83
   2  -9   7   -4.68   13.27
  -2   8  17  108.99   26.66
  -2   8  17   89.15   24.19
   2  -8 -17  116.79   25.23
   2  -8 -17   99.30   23.87
  -2   8  16  104.18   25.04
  -2   8  16   99.10   23.54
  -2   8  16   86.03   23.22
   2  -8 -16  103.53   22.57
   2  -8 -16  108.66   23.02
  -2   8  15    8.39   16.97
  -2   8  15   17.82   16.13
  -2   8  15    8.32   16.26
   2  -8 -15   -4.62   13.07
   2  -8 -15   -2.21   13.85
   2  -8 -15    0.13   14.05
  -2   8  14   59.70   18.66
  -2   8  14   60.41   18.86
  -2   8  14   50.01   18.66
   2  -8 -14   66.98   17.75
   2  -8 -14   68.22   18.21
   2  -8 -14   57.62   17.95
  -2   8  13  117.90   21.52
  -2   8  13  113.93   20.68
  -2   8  13  117.70   22.70
   2  -8 -13  151.13   20.74
   2  -8 -13  159.32   22.11
   2  -8 -13  115.43   21.59
  -2   8  12   78.16   18.01
  -2   8  12   81.94   18.08
  -2   8  12   84.86   19.05
   2  -8 -12   91.63   16.91
   2  -8 -12   79.40   16.26
   2  -8 -12   81.55   18.73
  -2   8  11   17.43   11.84
  -2   8  11    4.03   11.71
  -2   8  11    2.34   11.32
   2  -8 -11    2.73    9.43
   2  -8 -11    9.56   10.08
   2  -8 -11    1.69   11.25
  -2   8  10   91.82   17.49
  -2   8  10   88.89   17.75
  -2   8  10   81.87   16.84
   2  -8 -10  102.29   15.22
   2  -8 -10   87.72   14.11
   2  -8 -10  129.02   20.42
  -2   8   9  351.81   24.39
  -2   8   9  310.25   25.56
  -2   8   9  331.71   24.91
   2  -8  -9  342.77   20.29
   2  -8  -9  342.77   19.83
   2  -8  -9  388.29   28.22
  -2   8   8  225.72   19.96
  -2   8   8  199.90   21.85
  -2   8   8  197.17   19.96
   2  -8  -8  207.64   15.93
   2  -8  -8  210.17   15.48
   2  -8  -8  206.73   22.24
  -2   8   7    4.49    8.45
  -2   8   7   -1.43    9.10
  -2   8   7   -5.98    8.13
   2  -8  -7   -0.26    5.98
   2  -8  -7    5.59    9.23
   2  -8  -7    1.04    7.87
  -2   8   6  467.56   23.67
  -2   8   6  453.71   27.57
  -2   8   6  461.32   24.13
  -2   8   6  441.09   23.74
   2  -8  -6  494.42   28.22
   2  -8  -6  445.58   27.70
  -2   8   5  583.83   25.10
  -2   8   5  521.21   28.48
  -2   8   5  550.47   25.43
  -2   8   5  519.32   24.45
   2  -8  -5  584.09   30.30
   2  -8  -5  540.98   29.33
  -2   8   4   42.98   11.45
  -2   8   4   25.49   10.53
  -2   8   4   30.30   10.21
  -2   8   4   32.97   10.27
   2  -8  -4   36.81   12.23
   2  -8  -4   38.76   12.29
  -2   8   3  188.84   16.45
  -2   8   3  166.73   19.96
  -2   8   3  207.51   17.62
  -2   8   3  204.58   17.69
   2  -8  -3  226.76   21.52
   2  -8  -3  201.07   20.68
  -2   8   2  244.18   17.82
  -2   8   2  218.50   21.72
  -2   8   2  277.48   18.99
  -2   8   2  235.34   18.40
   2  -8  -2  266.03   23.28
   2  -8  -2  268.18   22.24
  -2   8   1  299.00   19.51
  -2   8   1  284.24   24.78
  -2   8   1  333.47   20.48
  -2   8   1  310.64   20.35
   2  -8  -1  300.04   24.52
   2  -8  -1  312.27   23.67
  -2   8   0    3.06    8.91
  -2   8   0   -2.34    9.56
  -2   8   0    6.50   10.99
  -2   8   0   -5.33    7.54
   2  -8   0    0.07    8.45
   2  -8   0    1.11    8.45
  -2   8  -1   42.53   11.12
  -2   8  -1   36.68   13.85
  -2   8  -1   33.49   11.64
   2  -8   1   36.94   13.85
   2  -8   1   44.22   13.01
  -2   8  -2  270.46   21.39
  -2   8  -2  297.31   26.79
  -2   8  -2  260.96   21.39
   2  -8   2  267.27   25.56
   2  -8   2  283.14   23.22
  -2   8  -3  121.41   17.95
  -2   8  -3  131.03   22.11
  -2   8  -3  118.68   17.95
   2  -8   3  143.58   23.41
   2  -8   3  138.25   19.31
  -2   8  -4   -0.98   10.86
  -2   8  -4    6.63   11.90
  -2   8  -4   14.76   12.23
   2  -8   4   -9.36   10.01
   2  -8   4    2.28    9.36
  -2   8  -5   84.21   18.21
  -2   8  -5   81.61   20.74
  -2   8  -5   67.70   17.17
   2  -8   5   57.75   18.66
   2  -8   5   54.69   14.31
  -2   8  -6   72.57   19.12
  -2   8  -6   70.23   20.94
  -2   8  -6   74.20   18.14
   2  -8   6   54.49   17.36
  -2   8  -7   22.24   16.06
  -2   8  -7   20.87   16.78
  -2   8  -7   30.89   16.58
   2  -8   7   24.19   15.80
  -2   8  -8    0.65   16.26
  -2   8  -8   -0.52   17.30
  -2   8  -8   -3.97   14.11
   2  -8   8  -16.06   12.10
  -2   8  -9   -3.25   19.12
  -2   8  -9    8.91   19.83
   2  -8   9   21.33   17.62
  -2   7  17   33.42   20.22
  -2   7  17   20.87   20.29
   2  -7 -17   29.39   18.47
   2  -7 -17   83.63   23.54
  -2   7  16  101.77   24.65
  -2   7  16  101.51   23.15
   2  -7 -16  107.95   22.57
   2  -7 -16   80.25   20.68
  -2   7  15   81.35   21.98
  -2   7  15   93.45   21.78
  -2   7  15   88.50   22.89
   2  -7 -15   64.70   18.27
   2  -7 -15  117.90   23.67
   2  -7 -15  107.10   24.13
  -2   7  14   14.76   14.96
  -2   7  14    7.67   14.83
  -2   7  14    4.62   13.72
   2  -7 -14   21.26   13.72
   2  -7 -14   14.31   12.49
   2  -7 -14   19.57   12.94
  -2   7  13   10.40   13.27
  -2   7  13   -4.75   11.71
  -2   7  13   11.05   10.79
  -2   7  13    3.90   13.20
   2  -7 -13   10.40   11.12
   2  -7 -13    8.71   11.38
   2  -7 -13    1.11   11.71
  -2   7  12   -4.10   10.92
  -2   7  12   -8.45   10.27
  -2   7  12    2.86    9.62
  -2   7  12   -2.86   11.64
   2  -7 -12   -6.50    9.82
   2  -7 -12   14.70   11.51
   2  -7 -12   -6.37   10.21
  -2   7  11   39.02   13.98
  -2   7  11   33.03   12.94
  -2   7  11   34.66   13.79
   2  -7 -11   36.81   11.77
   2  -7 -11   25.30   10.60
   2  -7 -11   32.64   13.01
  -2   7  10   13.92   10.92
  -2   7  10   12.49   11.64
  -2   7  10    5.59    9.95
   2  -7 -10    7.93    8.52
   2  -7 -10    8.26    8.97
   2  -7 -10    6.37    9.62
  -2   7   9  184.68   19.64
  -2   7   9  206.60   21.20
  -2   7   9  175.64   20.48
   2  -7  -9  168.36   16.39
   2  -7  -9  200.74   16.97
   2  -7  -9  184.49   20.87
  -2   7   8  178.37   18.40
  -2   7   8  178.70   20.03
  -2   7   8  188.00   27.83
  -2   7   8  200.03   19.70
   2  -7  -8  184.36   15.67
   2  -7  -8  202.83   15.22
   2  -7  -8  204.45   20.42
  -2   7   7  297.25   20.03
  -2   7   7  302.06   22.50
  -2   7   7  298.61   20.81
  -2   7   7  282.88   20.68
   2  -7  -7  297.44   17.30
   2  -7  -7  318.19   22.44
   2  -7  -7  307.72   15.61
   2  -7  -7  318.58   23.15
   2  -7  -7  282.23   22.70
  -2   7   6   54.30   11.51
  -2   7   6   68.61   14.57
  -2   7   6   49.94   11.19
  -2   7   6   47.21   11.38
   2  -7  -6   54.30    9.43
   2  -7  -6   63.79   12.75
   2  -7  -6   30.37   11.12
   2  -7  -6   51.37   10.79
  -2   7   5   69.91   12.29
  -2   7   5   58.98   12.94
  -2   7   5   65.94   12.10
  -2   7   5   55.08   11.64
   2  -7  -5   66.72    9.36
   2  -7  -5   74.00   13.92
   2  -7  -5   69.91   13.72
   2  -7  -5   66.65   11.38
  -2   7   4  156.92   14.63
  -2   7   4  136.50   16.71
  -2   7   4  167.64   15.93
  -2   7   4  143.71   15.28
   2  -7  -4  168.82   17.82
   2  -7  -4  159.97   17.82
   2  -7  -4  132.66   13.14
  -2   7   3   28.94    9.10
  -2   7   3   18.08    8.78
  -2   7   3    9.10    7.93
  -2   7   3   14.18    8.39
   2  -7  -3   28.55   10.01
   2  -7  -3   27.77    9.36
   2  -7  -3   24.78    7.54
  -2   7   2    5.07    7.22
  -2   7   2    2.67    8.65
  -2   7   2   15.93    8.58
  -2   7   2   16.32    8.26
   2  -7  -2   14.83    8.32
   2  -7  -2    6.70    8.19
   2  -7  -2   13.20    8.39
  -2   7   1  259.60   17.23
  -2   7   1  222.85   20.74
  -2   7   1  246.98   17.56
  -2   7   1  268.38   18.47
   2  -7  -1  267.53   21.33
   2  -7  -1  276.76   20.55
  -2   7   0  341.92   19.44
  -2   7   0  321.83   24.26
  -2   7   0  361.95   20.74
  -2   7   0  329.63   20.22
   2  -7   0  346.21   23.74
   2  -7   0  349.99   22.83
  -2   7  -1   -5.79    7.02
  -2   7  -1    1.11    8.78
  -2   7  -1    3.45    7.80
  -2   7  -1   -1.63    8.13
   2  -7   1    0.46    8.32
   2  -7   1    2.08    7.48
  -2   7  -2  190.99   18.08
  -2   7  -2  197.10   21.72
  -2   7  -2  190.60   18.79
   2  -7   2  204.00   21.46
   2  -7   2  237.68   20.03
  -2   7  -3   77.64   14.50
  -2   7  -3   63.34   15.93
  -2   7  -3   58.85   13.72
   2  -7   3   53.19   14.05
   2  -7   3   71.27   14.18
  -2   7  -4   55.93   14.11
  -2   7  -4   59.37   16.26
  -2   7  -4   63.08   14.76
   2  -7   4   52.67   17.49
   2  -7   4   64.25   14.18
  -2   7  -5   14.76   11.84
  -2   7  -5    7.15   13.07
  -2   7  -5   -0.59   11.64
   2  -7   5   15.09   11.45
   2  -7   5    7.41    9.30
  -2   7  -6  226.30   25.49
  -2   7  -6  183.77   25.82
  -2   7  -6  194.70   24.13
   2  -7   6  179.61   25.75
   2  -7   6  178.18   22.17
  -2   7  -7   70.43   18.21
  -2   7  -7   53.39   20.35
  -2   7  -7   43.57   16.45
   2  -7   7   23.41   15.28
  -2   7  -8   10.66   16.06
  -2   7  -8    3.38   16.32
  -2   7  -8   12.68   15.02
   2  -7   8   13.20   13.85
  -2   7  -9   73.22   23.15
  -2   7  -9   76.93   23.74
  -2   7  -9   79.08   21.26
   2  -7   9   11.25   17.49
  -2   7 -10   28.16   20.94
  -2   7 -10   23.09   20.74
  -2   7 -10   12.55   17.95
   2  -7  10   -0.91   15.61
  -2   6  17   36.22   20.22
  -2   6  17   42.01   20.55
   2  -6 -17   43.44   20.74
   2  -6 -17   27.77   20.22
  -2   6  16   41.23   19.51
  -2   6  16   28.35   18.73
   2  -6 -16   44.48   19.51
   2  -6 -16   29.59   18.79
  -2   6  15   76.80   21.78
  -2   6  15   70.23   19.70
  -2   6  15   76.60   21.00
   2  -6 -15   90.39   21.00
   2  -6 -15   84.21   20.35
  -2   6  14  306.16   30.37
  -2   6  14  353.76   30.63
  -2   6  14  324.56   32.64
   2  -6 -14  329.31   28.61
   2  -6 -14  369.50   30.69
   2  -6 -14  350.12   26.21
  -2   6  13   77.64   18.21
  -2   6  13   99.49   19.83
  -2   6  13   84.34   15.22
  -2   6  13   77.38   18.92
   2  -6 -13   74.33   18.34
   2  -6 -13   70.82   16.91
   2  -6 -13  105.28   18.21
  -2   6  12    8.19   10.27
  -2   6  12   -6.70   10.40
  -2   6  12  -10.47    7.93
  -2   6  12   -7.74   10.66
   2  -6 -12    0.85   10.79
   2  -6 -12   -5.07    9.62
   2  -6 -12    5.72   10.40
  -2   6  11  210.76   22.17
  -2   6  11  214.01   22.17
  -2   6  11  236.06   19.38
  -2   6  11  225.33   23.93
   2  -6 -11  211.08   20.68
   2  -6 -11  211.54   20.74
   2  -6 -11  228.25   21.98
  -2   6  10  297.64   23.48
  -2   6  10  273.06   22.96
  -2   6  10  286.84   24.39
   2  -6 -10  276.18   20.81
   2  -6 -10  292.18   20.81
   2  -6 -10  332.30   23.80
  -2   6   9   -3.97    8.78
  -2   6   9    3.25    9.56
  -2   6   9    5.40    9.43
   2  -6  -9    6.89    8.00
   2  -6  -9    8.13    8.26
   2  -6  -9    2.41    7.74
   2  -6  -9    4.16    8.45
  -2   6   8  770.92   30.17
  -2   6   8  792.64   32.12
  -2   6   8  752.84   30.37
  -2   6   8  747.44   30.95
   2  -6  -8  798.69   27.96
   2  -6  -8  821.90   25.95
   2  -6  -8  791.66   31.34
   2  -6  -8  448.51   22.70
  -2   6   7 1943.85   43.44
  -2   6   7 1942.42   46.63
  -2   6   7 1924.47   44.09
  -2   6   7 1859.90   44.02
   2  -6  -7 1946.97   39.34
   2  -6  -7 2022.08   35.38
   2  -6  -7 1992.10   47.15
  -2   6   6  165.11   15.74
  -2   6   6  151.19   17.30
  -2   6   6  159.65   16.19
  -2   6   6  155.48   16.32
   2  -6  -6  159.84   13.66
   2  -6  -6  167.78   16.91
   2  -6  -6  184.75   11.77
   2  -6  -6  177.46   17.75
   2  -6  -6  161.21   14.44
  -2   6   5    2.02    7.02
  -2   6   5   -8.65    6.37
  -2   6   5   10.86    7.28
  -2   6   5    8.45    7.22
   2  -6  -5    3.90    5.59
   2  -6  -5    0.85    6.63
   2  -6  -5    4.88    7.22
   2  -6  -5    9.04    6.24
  -2   6   4  458.85   20.22
  -2   6   4  445.12   23.54
  -2   6   4  483.43   21.52
  -2   6   4  437.78   20.94
   2  -6  -4  463.27   17.17
   2  -6  -4  459.11   23.28
   2  -6  -4  490.38   24.32
   2  -6  -4  448.51   19.38
  -2   6   3  230.79   15.48
  -2   6   3  190.15   17.36
  -2   6   3  221.29   16.00
  -2   6   3  202.83   15.93
   2  -6  -3  214.99   12.23
   2  -6  -3  234.43   18.40
   2  -6  -3  218.63   17.82
   2  -6  -3  194.96   13.98
  -2   6   2  103.27   12.36
  -2   6   2   98.45   14.57
  -2   6   2  107.69   12.94
  -2   6   2   95.92   13.01
   2  -6  -2  104.50   14.57
   2  -6  -2  106.91   14.63
   2  -6  -2   93.25   11.51
  -2   6   1  171.42   14.31
  -2   6   1  172.98   17.69
  -2   6   1  218.50   15.87
  -2   6   1  198.08   16.06
   2  -6  -1  190.67   17.43
   2  -6  -1  189.82   17.10
   2  -6  -1  191.51   13.79
  -2   6   0  468.40   20.81
  -2   6   0  489.15   25.95
  -2   6   0  506.06   21.78
  -2   6   0  415.99   21.13
   2  -6   0  483.88   25.49
   2  -6   0  500.07   24.19
   2  -6   0  472.76   19.57
  -2   6  -1  162.12   15.09
  -2   6  -1  132.33   17.49
  -2   6  -1  162.64   15.80
  -2   6  -1  156.20   16.00
   2  -6   1  156.79   17.49
   2  -6   1  167.38   16.45
   2  -6   1  150.93   13.79
  -2   6  -2    5.85    7.74
  -2   6  -2   -2.67    8.00
  -2   6  -2    0.07    7.67
  -2   6  -2    3.38    7.74
   2  -6   2    6.18    8.19
   2  -6   2    3.12    7.09
   2  -6   2    2.08    6.63
  -2   6  -3  304.14   20.68
  -2   6  -3  280.86   23.35
  -2   6  -3  313.25   21.39
  -2   6  -3  307.33   21.52
   2  -6   3  302.52   22.89
   2  -6   3  313.90   20.55
  -2   6  -4  327.23   22.63
  -2   6  -4  331.19   25.82
  -2   6  -4  343.16   24.00
   2  -6   4  340.43   17.43
   2  -6   4  358.38   25.62
   2  -6   4  336.59   21.52
  -2   6  -5    8.65   10.47
  -2   6  -5   11.51   11.84
  -2   6  -5    2.34   10.34
   2  -6   5   14.37    7.80
   2  -6   5   22.04   11.05
   2  -6   5   16.84    8.97
  -2   6  -6  381.40   27.51
  -2   6  -6  361.37   30.11
  -2   6  -6  372.62   27.90
   2  -6   6  362.67   20.35
   2  -6   6  325.54   28.61
   2  -6   6  367.67   23.22
  -2   6  -7  213.23   25.23
  -2   6  -7  207.31   26.86
  -2   6  -7  199.57   25.36
   2  -6   7  213.17   18.27
   2  -6   7  209.20   29.00
  -2   6  -8   25.36   16.00
  -2   6  -8   20.61   16.32
  -2   6  -8   31.86   17.10
   2  -6   8   -9.10   13.79
  -2   6  -9    6.89   15.02
  -2   6  -9    3.97   15.41
  -2   6  -9    5.46   15.28
   2  -6   9   -4.75   11.51
  -2   6 -10   46.63   20.48
  -2   6 -10   59.70   21.72
  -2   6 -10   47.73   19.90
   2  -6  10   11.97   18.99
  -2   6 -11   90.59   25.30
  -2   6 -11   66.20   22.96
  -2   6 -11   72.31   23.54
   2  -6  11   41.03   18.73
  -2   5  17   47.93   21.59
   2  -5 -17   58.46   23.41
   2  -5 -17   49.23   21.65
  -2   5  16    4.88   16.06
  -2   5  16   33.62   18.73
   2  -5 -16    3.71   14.83
  -2   5  15    0.52   13.72
  -2   5  15   -0.78   14.44
   2  -5 -15   13.33   15.02
  -2   5  14   -3.90   12.68
  -2   5  14   20.29   14.63
  -2   5  14   13.27   15.15
   2  -5 -14   20.68   14.18
  -2   5  13    8.97   12.23
  -2   5  13    4.42   12.03
  -2   5  13   -1.50    9.49
  -2   5  13   -2.08   12.10
   2  -5 -13    6.18   11.51
   2  -5 -13    3.12    9.56
  -2   5  12   33.95   13.85
  -2   5  12   25.10   13.01
  -2   5  12   24.52   10.66
  -2   5  12   23.15   14.44
   2  -5 -12   27.77   12.49
   2  -5 -12   18.79   10.47
  -2   5  11   97.87   17.10
  -2   5  11   98.78   16.52
  -2   5  11  109.57   15.09
  -2   5  11  122.19   19.90
   2  -5 -11  131.81   18.66
   2  -5 -11  125.05   16.71
  -2   5  10  181.82   19.51
  -2   5  10  171.74   21.52
  -2   5  10  172.91   16.45
  -2   5  10  180.26   21.33
   2  -5 -10  160.56   18.08
   2  -5 -10  168.95   17.75
   2  -5 -10  157.05   18.60
  -2   5   9   96.70   16.00
  -2   5   9   70.56   13.85
  -2   5   9   82.26   14.96
  -2   5   9   75.43   14.89
   2  -5  -9   77.45   13.27
   2  -5  -9   84.34   13.72
   2  -5  -9   66.85   13.53
  -2   5   8   92.47   14.18
  -2   5   8   97.41   15.93
  -2   5   8   81.35   13.59
  -2   5   8  100.80   15.54
   2  -5  -8   91.24   13.33
   2  -5  -8   96.96   13.07
   2  -5  -8  104.96   14.50
   2  -5  -8   99.49   14.63
  -2   5   7  396.94   21.65
  -2   5   7  404.87   22.96
  -2   5   7  419.63   22.44
  -2   5   7  408.19   22.76
   2  -5  -7  430.62   20.55
   2  -5  -7  443.82   18.27
   2  -5  -7  429.19   22.37
   2  -5  -7  412.54   21.33
  -2   5   6  220.97   16.71
  -2   5   6  251.66   18.92
  -2   5   6  217.98   17.36
  -2   5   6  211.47   17.17
   2  -5  -6  244.44   15.61
   2  -5  -6  243.99   13.20
   2  -5  -6  256.60   18.27
   2  -5  -6   22.44    6.89
  -2   5   5  197.75   15.54
  -2   5   5  197.23   16.97
  -2   5   5  193.46   15.80
  -2   5   5  176.62   15.41
   2  -5  -5  213.10   13.92
   2  -5  -5  200.42   15.93
   2  -5  -5  199.31   16.65
   2  -5  -5    8.00    3.90
  -2   5   4   22.50    7.80
  -2   5   4   30.50    8.97
  -2   5   4   32.45    8.58
  -2   5   4   23.09    8.19
   2  -5  -4   27.31    6.89
   2  -5  -4   26.01    8.26
   2  -5  -4   21.33    8.13
   2  -5  -4   23.48    7.54
  -2   5   3  301.99   16.39
  -2   5   3  280.54   18.47
  -2   5   3  331.52   17.82
  -2   5   3  315.00   17.82
   2  -5  -3  323.39   18.79
   2  -5  -3  330.61   19.51
   2  -5  -3  293.48   15.48
  -2   5   2   24.06    7.87
  -2   5   2   34.86    9.82
  -2   5   2   25.56    7.87
  -2   5   2   32.97    8.91
   2  -5  -2   30.89    6.76
   2  -5  -2   39.02    9.43
   2  -5  -2   31.80    9.30
   2  -5  -2   34.08    8.13
  -2   5   1   33.42    8.58
  -2   5   1   35.38   10.14
  -2   5   1   33.16    8.91
  -2   5   1   34.73    9.49
   2  -5  -1   30.89    6.70
   2  -5  -1   29.07    8.78
   2  -5  -1   36.29    9.82
   2  -5  -1   33.82    8.00
  -2   5   0  391.74   18.27
  -2   5   0  355.12   21.39
  -2   5   0  377.95   18.53
  -2   5   0  380.88   19.18
   2  -5   0  386.92   14.96
   2  -5   0  419.24   21.98
   2  -5   0  387.77   20.35
   2  -5   0  389.39   17.49
  -2   5  -1  413.71   19.44
  -2   5  -1  408.58   22.89
  -2   5  -1  419.44   20.16
  -2   5  -1  389.59   19.90
   2  -5   1  416.51   16.06
   2  -5   1  412.15   22.37
   2  -5   1  427.57   21.26
   2  -5   1  401.88   18.34
  -2   5  -2  276.05   17.82
  -2   5  -2  241.13   19.38
  -2   5  -2  249.71   17.43
  -2   5  -2  259.73   18.34
   2  -5   2  272.21   14.24
   2  -5   2  301.54   20.16
   2  -5   2  243.08   17.30
   2  -5   2  264.15   16.52
  -2   5  -3   93.06   13.72
  -2   5  -3   57.36   13.27
  -2   5  -3   71.47   12.16
  -2   5  -3   77.97   13.53
   2  -5   3   93.71   11.58
   2  -5   3   81.29   14.37
   2  -5   3   70.88   11.77
   2  -5   3   79.99   12.10
  -2   5  -4   81.94   13.66
  -2   5  -4   98.58   16.26
  -2   5  -4   92.21   14.24
  -2   5  -4   84.34   14.70
   2  -5   4   77.64   10.86
   2  -5   4   47.73   12.68
   2  -5   4   72.31   12.68
  -2   5  -5   72.12   14.31
  -2   5  -5   78.49   16.19
  -2   5  -5   63.34   14.57
   2  -5   5   91.50   12.55
   2  -5   5   71.66   14.83
   2  -5   5   80.44   12.94
  -2   5  -6   57.62   14.44
  -2   5  -6   35.70   13.59
  -2   5  -6   55.47   14.44
   2  -5   6   36.55    9.95
   2  -5   6   53.84   15.54
   2  -5   6   51.05   11.32
  -2   5  -7  183.97   22.50
  -2   5  -7  154.31   22.57
  -2   5  -7  169.01   22.57
   2  -5   7  137.73   16.19
   2  -5   7   90.52   22.83
   2  -5   7  133.18   17.49
  -2   5  -8  330.67   28.55
  -2   5  -8  274.10   29.20
  -2   5  -8  277.22   28.22
   2  -5   8  282.88   21.59
   2  -5   8  250.43   28.09
  -2   5  -9   54.30   18.01
  -2   5  -9   57.68   18.40
   2  -5   9   23.87   11.58
   2  -5   9   48.77   20.74
  -2   5 -10    0.20   15.22
   2  -5  10    0.33   10.01
   2  -5  10   -4.62   13.72
  -2   5 -11   16.78   17.23
   2  -5  11  -40.19   20.81
  -2   5 -12   45.26   22.17
   2  -5  12   19.70   19.90
  -2   4  17   34.21   20.81
   2  -4 -17   31.28   21.07
  -2   4  16   -5.27   13.66
   2  -4 -16   -1.43   15.15
  -2   4  15   -6.18   13.59
  -2   4  15   -6.44   13.66
   2  -4 -15   11.25   14.63
  -2   4  14   55.27   17.62
  -2   4  14   55.47   18.73
  -2   4  14   38.95   14.63
   2  -4 -14   41.62   16.52
  -2   4  13  212.32   24.58
  -2   4  13  223.11   25.36
  -2   4  13  229.42   21.46
  -2   4  13  223.96   28.42
   2  -4 -13  214.73   24.71
   2  -4 -13  212.78   19.57
  -2   4  12   54.62   15.09
  -2   4  12   57.94   15.61
  -2   4  12   38.50   12.29
  -2   4  12   34.99   14.76
   2  -4 -12   55.79   15.54
   2  -4 -12   51.70   11.90
  -2   4  11   97.54   17.56
  -2   4  11   92.28   16.52
  -2   4  11  105.74   15.15
  -2   4  11  105.28   18.47
   2  -4 -11  115.10   18.08
   2  -4 -11  115.36   15.35
   2  -4 -11  108.40   17.69
  -2   4  10   46.76   12.36
  -2   4  10   62.49   13.79
  -2   4  10   69.13   12.10
  -2   4  10   68.35   14.89
   2  -4 -10   74.26   14.37
   2  -4 -10   69.52   12.10
   2  -4 -10   67.37   14.11
  -2   4   9  170.05   17.82
  -2   4   9  174.28   18.08
  -2   4   9  184.94   15.48
  -2   4   9  185.14   19.64
   2  -4  -9  167.84   17.10
   2  -4  -9  197.62   16.06
   2  -4  -9  173.82   17.95
  -2   4   8   43.63   11.25
  -2   4   8   57.03   12.16
  -2   4   8   56.90   10.34
  -2   4   8   34.99   10.40
  -2   4   8   67.57   13.59
   2  -4  -8   39.41   10.14
   2  -4  -8   45.00    9.88
   2  -4  -8   40.90   10.60
  -2   4   7  150.74   15.48
  -2   4   7  154.64   16.52
  -2   4   7  160.43   15.93
  -2   4   7  154.31   16.52
   2  -4  -7  158.87   14.83
   2  -4  -7  161.66   14.57
   2  -4  -7  149.37   15.02
  -2   4   6 1438.18   34.92
  -2   4   6 1485.78   36.87
  -2   4   6 1452.81   35.70
  -2   4   6 1377.45   35.64
   2  -4  -6 1436.69   33.29
   2  -4  -6 1511.02   35.57
   2  -4  -6 1346.49   33.88
  -2   4   5   19.57    7.93
  -2   4   5   21.98    8.45
  -2   4   5   21.85    8.45
  -2   4   5   17.23    7.93
   2  -4  -5   21.65    7.35
   2  -4  -5   18.14    7.02
   2  -4  -5   18.14    5.66
   2  -4  -5   10.92    7.87
   2  -4  -5    9.56    6.89
   2  -4  -5   13.66    6.70
  -2   4   4    0.46    6.57
  -2   4   4   -1.56    6.63
  -2   4   4    1.17    5.98
  -2   4   4    2.60    6.50
   2  -4  -4   -0.33    5.07
   2  -4  -4   -0.39    5.40
   2  -4  -4    7.67    6.57
   2  -4  -4   -1.04    5.92
   2  -4  -4   -2.93    3.51
  -2   4   3   19.31    7.28
  -2   4   3   18.99    7.87
  -2   4   3   16.65    7.22
  -2   4   3   25.56    8.06
   2  -4  -3   12.16    6.37
   2  -4  -3   18.21    8.06
   2  -4  -3   16.45    7.54
   2  -4  -3    0.07    1.89
  -2   4   2   33.69    8.00
  -2   4   2   22.04    8.06
  -2   4   2   25.36    7.54
  -2   4   2   24.32    7.74
   2  -4  -2   28.74    6.63
   2  -4  -2   24.91    7.35
   2  -4  -2   34.73    8.32
   2  -4  -2   32.58    8.39
   2  -4  -2   35.31    7.41
  -2   4   1   26.47    7.74
  -2   4   1   15.80    7.54
  -2   4   1   17.69    7.48
  -2   4   1   23.74    8.19
   2  -4  -1   26.01    6.76
   2  -4  -1   34.34    8.58
   2  -4  -1   30.89    7.87
   2  -4  -1   27.38    7.93
   2  -4  -1   26.99    7.15
  -2   4   0  165.50   13.14
  -2   4   0  135.20   14.57
  -2   4   0  150.93   12.88
  -2   4   0  144.36   13.79
   2  -4   0  138.64   10.47
   2  -4   0  171.03   14.57
   2  -4   0  152.10   12.29
   2  -4   0  138.90   13.66
   2  -4   0  138.12   11.90
  -2   4  -1  199.57   14.57
  -2   4  -1  193.14   16.19
  -2   4  -1  201.46   15.09
  -2   4  -1  203.54   15.41
   2  -4   1  210.89   12.55
   2  -4   1  146.71   16.71
   2  -4   1  145.54   13.40
   2  -4   1  171.42   18.21
   2  -4   1  206.01   13.92
  -2   4  -2   98.06   12.75
  -2   4  -2  101.12   14.18
  -2   4  -2   98.13   12.49
  -2   4  -2   96.76   12.88
   2  -4   2  116.66   10.79
   2  -4   2  114.58   13.85
   2  -4   2  101.12    9.69
   2  -4   2   94.42   12.16
   2  -4   2   97.61   11.45
  -2   4  -3  116.73   14.18
  -2   4  -3  127.98   16.32
  -2   4  -3  124.60   14.89
  -2   4  -3  116.73   14.63
   2  -4   3  123.69   11.64
   2  -4   3  119.20   14.70
   2  -4   3  112.18   13.01
   2  -4   3  120.69   12.36
  -2   4  -4   -4.49    7.28
  -2   4  -4    0.59    8.19
  -2   4  -4   -1.04    7.35
  -2   4  -4   -1.37    7.74
   2  -4   4   -1.17    5.20
   2  -4   4    3.64    6.89
   2  -4   4   -2.34    5.59
   2  -4   4   -1.50    4.55
  -2   4  -5   17.36    9.43
  -2   4  -5   11.51    8.84
  -2   4  -5   24.71    9.88
  -2   4  -5   10.99    9.10
   2  -4   5   21.33    8.06
   2  -4   5   29.39   10.27
   2  -4   5   23.41    8.19
   2  -4   5   -1.17    4.10
  -2   4  -6   92.21   15.22
  -2   4  -6  117.05   17.88
  -2   4  -6  113.15   17.30
   2  -4   6  101.58   14.11
   2  -4   6   98.13   16.06
   2  -4   6  114.97   14.11
  -2   4  -7   -4.10    8.84
   2  -4   7    3.32    7.41
   2  -4   7    0.20   10.21
   2  -4   7   -6.57    6.70
  -2   4  -8   25.56   13.92
   2  -4   8   18.79   10.47
   2  -4   8  -22.70   15.02
   2  -4   8  -22.96    8.97
  -2   4  -9   29.65   15.15
   2  -4   9   11.64   10.53
   2  -4   9   24.39   16.52
  -2   4 -10    5.53   14.96
   2  -4  10    7.09   11.05
   2  -4  10    4.16   15.87
  -2   4 -11   16.52   16.97
   2  -4  11   10.14   11.97
   2  -4  11   -4.81   14.11
  -2   4 -12   21.85   19.38
   2  -4  12   -3.06   11.71
   2  -4  12  -31.60   22.63
  -2   4 -13   19.05   20.61
   2  -4  13  -14.50   17.82
  -2   3  17   -1.11   16.26
   2  -3 -17   27.44   21.33
  -2   3  16   12.94   15.80
   2  -3 -16   20.35   18.27
  -2   3  15   12.94   14.96
   2  -3 -15   21.78   16.39
  -2   3  14   58.01   17.75
  -2   3  14   58.72   18.14
  -2   3  14   47.47   14.76
   2  -3 -14   58.27   18.47
  -2   3  13   40.45   14.63
  -2   3  13   37.65   15.22
  -2   3  13   38.63   13.53
   2  -3 -13   57.16   17.17
  -2   3  12   15.48   12.55
  -2   3  12    9.43   11.58
  -2   3  12   24.84   11.25
  -2   3  12   33.88   14.70
   2  -3 -12   14.37   11.77
   2  -3 -12   35.51    9.56
   2  -3 -12   18.01   11.32
  -2   3  11   26.27   11.84
  -2   3  11   39.67   12.88
  -2   3  11   60.22   12.94
  -2   3  11   39.15   13.40
   2  -3 -11   46.04   13.20
   2  -3 -11   41.03    9.88
   2  -3 -11   38.69   13.92
  -2   3  10   47.67   12.55
  -2   3  10   66.65   14.18
  -2   3  10   72.12   12.68
  -2   3  10   65.29   14.11
   2  -3 -10   80.38   15.28
   2  -3 -10   74.72   11.45
   2  -3 -10   82.59   15.87
  -2   3   9    8.78    8.06
  -2   3   9    6.18    7.80
  -2   3   9   -0.65    6.70
  -2   3   9   -7.02    7.35
   2  -3  -9    0.59    7.15
   2  -3  -9    0.39    5.85
   2  -3  -9   11.38    8.65
  -2   3   8   11.12    7.61
  -2   3   8    3.58    7.54
  -2   3   8   -2.41    5.53
  -2   3   8   -2.67    7.28
   2  -3  -8    2.47    6.83
   2  -3  -8   -1.76    5.33
   2  -3  -8   -0.98    6.76
  -2   3   7    9.82    7.35
  -2   3   7   -0.33    6.57
  -2   3   7    0.13    5.46
  -2   3   7    6.96    7.28
  -2   3   7    4.94    7.74
   2  -3  -7    2.41    6.31
   2  -3  -7    1.11    5.46
   2  -3  -7    3.19    6.44
  -2   3   6 1005.67   29.46
  -2   3   6 1127.93   31.60
  -2   3   6  997.29   29.78
  -2   3   6  950.92   29.85
   2  -3  -6 1037.54   28.94
   2  -3  -6 1100.42   31.15
   2  -3  -6 1103.09   28.22
   2  -3  -6 1055.36   30.30
  -2   3   5    1.89    6.50
  -2   3   5    1.89    6.50
  -2   3   5   10.34    6.96
  -2   3   5    3.19    6.96
   2  -3  -5    2.47    5.53
   2  -3  -5   -4.16    5.92
   2  -3  -5    4.94    5.46
   2  -3  -5    1.63    5.79
  -2   3   4   94.03   11.51
  -2   3   4   98.06   12.81
  -2   3   4   86.49   11.05
  -2   3   4   90.98   11.77
   2  -3  -4   84.47   10.47
   2  -3  -4  103.20   10.27
   2  -3  -4  104.31   12.88
   2  -3  -4   87.01   10.86
   2  -3  -4   88.89   11.05
  -2   3   3  279.49   15.02
  -2   3   3  262.59   15.87
  -2   3   3  303.04   15.87
  -2   3   3  238.92   15.15
   2  -3  -3  287.10   13.79
   2  -3  -3  290.22   14.44
   2  -3  -3  270.20   15.61
   2  -3  -3  291.85   15.61
   2  -3  -3  279.89   14.63
  -2   3   2   14.44    6.37
  -2   3   2   18.01    6.96
  -2   3   2   14.83    6.63
  -2   3   2   17.88    7.22
   2  -3  -2   12.94    5.66
   2  -3  -2    8.19    5.40
   2  -3  -2   23.48    7.67
   2  -3  -2   12.88    6.11
   2  -3  -2    4.94    4.62
  -2   3   1    6.31    5.79
  -2   3   1    8.91    6.70
  -2   3   1    4.29    5.98
  -2   3   1    0.26    6.31
   2  -3  -1    4.81    4.75
   2  -3  -1    9.10    5.79
   2  -3  -1   11.45    5.92
   2  -3  -1    4.81    5.20
   2  -3  -1    1.17    2.54
  -2   3   0    3.12    5.79
  -2   3   0    2.21    6.44
  -2   3   0    5.33    5.92
  -2   3   0    7.35    6.37
   2  -3   0    7.22    4.88
   2  -3   0    6.63    5.20
   2  -3   0   -0.91    4.68
   2  -3   0    6.18    5.72
   2  -3   0   -0.52    1.82
  -2   3  -1   22.17    7.41
  -2   3  -1   23.15    7.54
  -2   3  -1   14.96    6.83
  -2   3  -1   23.15    7.74
   2  -3   1   18.21    5.92
   2  -3   1   12.49    6.11
   2  -3   1   21.65    6.31
   2  -3   1   20.61    6.89
   2  -3   1    0.78    2.41
  -2   3  -2  193.53   14.63
  -2   3  -2  174.28   14.76
  -2   3  -2  196.39   14.57
  -2   3  -2  191.19   15.41
   2  -3   2  204.45   12.88
   2  -3   2  191.51   15.22
   2  -3   2  185.01   11.12
   2  -3   2  183.71   14.05
   2  -3   2   -0.39    2.67
  -2   3  -3  237.29   16.32
  -2   3  -3   93.06   12.75
  -2   3  -3  220.90   16.91
  -2   3  -3  246.00   16.58
  -2   3  -3  227.73   16.84
   2  -3   3  253.03   14.76
   2  -3   3  201.20   19.96
   2  -3   3  118.42   12.23
   2  -3   3  245.09   17.10
   2  -3   3    5.20    4.49
  -2   3  -4   27.31    9.69
  -2   3  -4   32.51   10.01
  -2   3  -4   28.74    9.36
  -2   3  -4   38.24   10.47
   2  -3   4   28.35    8.32
   2  -3   4   48.06   10.92
   2  -3   4   41.36    9.49
   2  -3   4   18.99    7.48
  -2   3  -5  227.80   18.08
  -2   3  -5  231.57   18.92
  -2   3  -5  242.30   18.73
  -2   3  -5  245.16   19.70
   2  -3   5  251.47   16.58
   2  -3   5  242.36   19.12
   2  -3   5  238.92   16.13
   2  -3   5  201.59   16.26
  -2   3  -6  154.96   17.49
  -2   3  -6  147.49   17.30
   2  -3   6  158.35   15.22
   2  -3   6  151.13   17.75
   2  -3   6  135.91   14.18
   2  -3   6  145.86   16.06
  -2   3  -7   -2.99    9.04
   2  -3   7    1.11    7.15
   2  -3   7    0.07    8.13
   2  -3   7   -2.80    6.18
  -2   3  -8    7.61   11.25
   2  -3   8   -2.15    7.87
   2  -3   8    1.95   10.01
   2  -3   8    3.51    7.74
  -2   3  -9   52.54   16.06
  -2   3  -9   33.42   13.53
   2  -3   9   36.68   13.20
   2  -3   9   27.12   21.59
   2  -3   9   29.26   16.84
  -2   3 -10    7.22   13.59
  -2   3 -10    5.59   11.77
   2  -3  10   -3.51    9.36
   2  -3  10   -3.84   14.31
  -2   3 -11   51.31   19.05
  -2   3 -11   31.41   16.32
   2  -3  11   46.56   15.22
   2  -3  11   19.77   19.64
  -2   3 -12   50.14   19.96
  -2   3 -12   27.96   16.52
   2  -3  12   17.82   13.85
   2  -3  12   20.35   17.49
  -2   3 -13   59.24   23.74
  -2   3 -13   54.82   20.29
   2  -3  13   52.80   17.43
   2  -3  13   19.96   24.78
  -2   2  17  -11.12   15.02
   2  -2 -17   17.23   20.35
  -2   2  16   40.19   18.08
   2  -2 -16   69.00   23.67
  -2   2  15   42.92   17.30
   2  -2 -15   65.94   21.52
  -2   2  14   -1.95   12.10
  -2   2  14   10.27   11.84
   2  -2 -14   11.12   14.76
  -2   2  13   47.02   15.93
  -2   2  13   46.69   14.31
   2  -2 -13   55.08   16.19
   2  -2 -13   51.89   17.75
  -2   2  12   19.64   12.55
  -2   2  12   40.19   15.41
  -2   2  12   31.99   12.36
  -2   2  12   26.99   13.98
   2  -2 -12   32.32   13.85
   2  -2 -12   35.77   15.41
  -2   2  11  569.98   30.17
  -2   2  11  561.98   30.76
  -2   2  11  609.13   27.64
  -2   2  11  557.95   32.19
   2  -2 -11  610.04   31.47
   2  -2 -11  617.78   20.48
   2  -2 -11  580.45   32.06
  -2   2  10    4.42    9.04
  -2   2  10   17.23   10.47
  -2   2  10   14.70    9.17
  -2   2  10    7.61    9.56
   2  -2 -10   16.19    9.69
   2  -2 -10    6.96    6.18
   2  -2 -10    9.88    9.17
  -2   2   9   22.63    9.43
  -2   2   9   31.99   10.53
  -2   2   9   28.16    9.49
  -2   2   9   29.85   11.05
   2  -2  -9   22.57    9.75
   2  -2  -9   31.80    7.48
   2  -2  -9   28.55   10.92
  -2   2   8   16.65    8.32
  -2   2   8   24.26    9.36
  -2   2   8   27.96    8.65
  -2   2   8   17.17    9.23
   2  -2  -8   32.84    9.62
   2  -2  -8   21.07    6.11
   2  -2  -8    5.46    7.61
  -2   2   7  118.61   14.05
  -2   2   7  136.82   14.89
  -2   2   7  122.97   12.81
  -2   2   7  122.19   15.87
   2  -2  -7  133.57   13.92
   2  -2  -7  127.26   13.66
   2  -2  -7  133.18   11.19
   2  -2  -7  124.40   15.41
  -2   2   6  147.68   14.18
  -2   2   6  154.31   14.83
  -2   2   6  150.15   13.07
  -2   2   6  153.99   15.15
   2  -2  -6  133.57   13.53
   2  -2  -6  157.83   14.05
   2  -2  -6  159.84   12.03
   2  -2  -6  145.73   14.31
   2  -2  -6  145.73   11.12
  -2   2   5  175.90   14.18
  -2   2   5  191.06   14.96
  -2   2   5  188.78   14.50
  -2   2   5  172.85   14.96
  -2   2   5  181.95   10.01
   2  -2  -5  187.35   13.66
   2  -2  -5  189.95   14.31
   2  -2  -5  200.09   12.62
   2  -2  -5  165.37   13.98
   2  -2  -5  180.65   10.34
  -2   2   4  148.59   12.62
  -2   2   4  161.92   13.40
  -2   2   4  161.47   13.27
  -2   2   4  138.84   13.20
   2  -2  -4  162.96   12.36
   2  -2  -4  176.03   13.27
   2  -2  -4  158.48   11.45
   2  -2  -4  157.31   13.01
  -2   2   3  633.51   20.09
  -2   2   3  615.76   16.65
  -2   2   3  619.66   20.74
  -2   2   3  666.74   20.94
  -2   2   3  567.44   19.96
   2  -2  -3  668.76   19.57
   2  -2  -3  669.54   17.36
   2  -2  -3  693.21   21.33
   2  -2  -3  694.45   20.16
   2  -2  -3  645.28   20.42
  -2   2   2  206.47   12.62
  -2   2   2  212.19   11.32
  -2   2   2  210.30   13.59
  -2   2   2  213.88   13.46
  -2   2   2  184.81   13.33
   2  -2  -2  221.55   12.23
   2  -2  -2  213.36   11.32
   2  -2  -2  227.34   13.33
   2  -2  -2  224.74   13.01
   2  -2  -2  211.15   12.88
  -2   2   1   56.97    8.58
  -2   2   1   59.76    8.58
  -2   2   1   64.05    8.78
  -2   2   1   56.84    9.10
   2  -2  -1   71.60    8.52
   2  -2  -1   56.12    7.61
   2  -2  -1   76.93    9.56
   2  -2  -1   71.27    9.49
   2  -2  -1   69.97    9.17
  -2   2   0  144.36   11.51
  -2   2   0  127.39   11.84
  -2   2   0  144.04   11.64
  -2   2   0  137.60   12.03
   2  -2   0  168.10   10.92
   2  -2   0  169.14   11.25
   2  -2   0  160.75   10.92
   2  -2   0  161.60   11.97
   2  -2   0  158.41   11.45
  -2   2  -1  333.01   15.67
  -2   2  -1  308.04   15.61
  -2   2  -1  358.05   16.19
  -2   2  -1  316.82   16.00
   2  -2   1  352.00   14.83
   2  -2   1  368.52   16.13
   2  -2   1  355.12   13.85
   2  -2   1  369.24   16.26
   2  -2   1  341.53   15.67
  -2   2  -2  211.99   14.31
  -2   2  -2   52.02    7.54
  -2   2  -2  193.33   13.92
  -2   2  -2  203.80   13.98
  -2   2  -2  186.83   14.50
   2  -2   2  227.41   13.20
   2  -2   2  223.44   14.31
   2  -2   2  199.31   10.86
   2  -2   2  192.36   13.14
   2  -2   2  212.38   13.85
  -2   2  -3 1526.95   33.03
  -2   2  -3 1310.86   22.50
  -2   2  -3 1428.75   31.86
  -2   2  -3 1546.78   33.69
  -2   2  -3 1432.92   33.29
   2  -2   3 1606.61   32.06
   2  -2   3 1647.12   35.83
   2  -2   3 1350.65   23.09
   2  -2   3 1381.74   29.78
   2  -2   3 1537.42   33.23
  -2   2  -4  440.96   20.87
  -2   2  -4  408.51   19.96
  -2   2  -4  467.82   21.59
  -2   2  -4  411.89   21.13
   2  -2   4  437.45   19.25
   2  -2   4  498.71   28.03
   2  -2   4  425.42   19.96
  -2   2  -5    2.60    7.67
  -2   2  -5   12.55    8.32
   2  -2   5   17.95    7.61
   2  -2   5   14.05    8.06
   2  -2   5    8.71    7.41
  -2   2  -6  139.68   16.26
  -2   2  -6  165.69   17.17
   2  -2   6  158.80   14.83
   2  -2   6  113.67   15.41
   2  -2   6  172.00   16.39
  -2   2  -7   29.52   10.99
  -2   2  -7   45.13   12.36
  -2   2  -7   31.15   11.32
   2  -2   7   44.81   11.05
   2  -2   7   23.74   10.60
   2  -2   7   44.48   11.51
  -2   2  -8   58.53   14.18
  -2   2  -8   22.70   11.38
   2  -2   8   43.57   12.10
   2  -2   8   23.22   10.34
   2  -2   8   34.99   14.18
  -2   2  -9   36.87   14.05
  -2   2  -9   33.56   12.42
   2  -2   9   52.48   13.46
   2  -2   9    5.46   12.10
   2  -2   9   53.97   11.05
  -2   2 -10  137.28   21.85
  -2   2 -10  122.51   21.13
   2  -2  10  151.39   20.55
   2  -2  10   64.38   24.78
  -2   2 -11   18.21   15.15
  -2   2 -11   39.02   15.74
   2  -2  11   33.49   13.79
   2  -2  11   -0.65   18.21
  -2   2 -12   45.13   19.12
  -2   2 -12   59.57   19.64
   2  -2  12   66.98   17.17
   2  -2  12   46.69   20.87
  -2   2 -13   16.26   17.95
  -2   2 -13    3.97   14.70
   2  -2  13   18.73   15.09
   2  -2  13    4.10   17.88
  -2   2 -14   57.23   22.63
  -2   2 -14   60.22   25.82
   2  -2  14   46.43   17.75
   2  -2  14   14.96   22.76
  -2   1  16   13.33   15.80
   2  -1 -16  -11.32   16.45
  -2   1  15   65.16   19.18
   2  -1 -15  107.95   25.30
  -2   1  14  122.51   22.11
  -2   1  14  110.09   20.16
   2  -1 -14  132.66   25.62
   2  -1 -14  133.83   25.62
  -2   1  13   20.68   12.75
  -2   1  13   11.45   13.14
   2  -1 -13   14.18   13.98
   2  -1 -13    9.23   12.36
  -2   1  12   19.31   11.97
  -2   1  12   22.70   12.42
   2  -1 -12   11.58   11.84
   2  -1 -12   17.23   12.03
  -2   1  11  160.88   20.09
  -2   1  11  194.96   19.57
  -2   1  11  166.41   22.11
   2  -1 -11  168.75   20.94
   2  -1 -11  182.34   22.30
  -2   1  10   35.05   11.71
  -2   1  10   52.35   14.57
  -2   1  10   50.53   11.64
  -2   1  10   27.31   11.71
   2  -1 -10   55.73   13.85
   2  -1 -10   29.78   11.51
  -2   1   9   17.30    9.17
  -2   1   9    7.54    8.84
  -2   1   9    9.75    8.32
  -2   1   9    6.05    9.30
   2  -1  -9   18.34    9.04
   2  -1  -9   11.32    8.58
  -2   1   8    6.18    7.09
  -2   1   8    9.04    7.87
  -2   1   8    5.07    6.70
  -2   1   8    8.71    5.33
  -2   1   8    1.43    7.80
   2  -1  -8    8.65    7.48
   2  -1  -8   -0.07    4.29
   2  -1  -8    7.35    7.93
   2  -1  -8    7.15    7.15
  -2   1   7    2.99    6.37
  -2   1   7    6.50    7.80
  -2   1   7    0.85    6.05
  -2   1   7    5.01    5.07
  -2   1   7    5.53    7.41
   2  -1  -7    4.36    6.89
   2  -1  -7    1.17    6.11
   2  -1  -7    2.28    4.10
   2  -1  -7   10.34    7.67
   2  -1  -7   -2.02    5.92
  -2   1   6  541.37   21.78
  -2   1   6  559.45   23.02
  -2   1   6  593.00   21.72
  -2   1   6  494.74   18.34
  -2   1   6  533.17   23.09
   2  -1  -6  580.71   22.83
   2  -1  -6  611.86   21.39
   2  -1  -6  584.09   16.65
   2  -1  -6  573.10   23.54
   2  -1  -6  595.08   20.48
  -2   1   5  465.61   19.38
  -2   1   5  489.02   20.55
  -2   1   5  462.94   18.66
  -2   1   5  402.73   16.78
  -2   1   5  434.78   19.96
   2  -1  -5  475.49   19.44
   2  -1  -5  527.06   19.44
   2  -1  -5  508.01   15.67
   2  -1  -5  470.55   20.22
   2  -1  -5  447.99   19.25
   2  -1  -5  470.49   16.78
  -2   1   4  163.35   12.75
  -2   1   4  182.99    9.36
  -2   1   4  196.00   13.72
  -2   1   4  172.91   12.75
  -2   1   4  167.51   11.97
  -2   1   4  176.42   13.59
  -2   1   4  169.60   13.53
  -2   1   4  190.54   10.40
   2  -1  -4  199.90   13.14
   2  -1  -4  188.32   10.92
   2  -1  -4  185.07   13.79
   2  -1  -4  167.91   12.42
   2  -1  -4  200.74   11.05
  -2   1   3  352.39   15.54
  -2   1   3  335.42   10.79
  -2   1   3  359.68   16.13
  -2   1   3  367.67   16.26
  -2   1   3  336.33   15.93
   2  -1  -3  393.10   15.61
   2  -1  -3  417.75   16.32
   2  -1  -3  425.94   14.70
   2  -1  -3  374.37   16.26
   2  -1  -3  345.82   15.35
   2  -1  -3  384.91   12.29
  -2   1   2   32.19    7.22
  -2   1   2   30.37    4.62
  -2   1   2   36.09    7.61
  -2   1   2   38.37    7.61
  -2   1   2   35.64    7.61
   2  -1  -2   29.98    6.31
   2  -1  -2   33.23    4.81
   2  -1  -2   42.40    7.48
   2  -1  -2   36.29    6.57
   2  -1  -2   31.86    7.02
   2  -1  -2   29.98    6.57
  -2   1   1  276.24   13.27
  -2   1   1  288.27   10.73
  -2   1   1  269.55   13.20
  -2   1   1  304.01   14.24
  -2   1   1  258.69   13.85
   2  -1  -1  296.01   13.01
   2  -1  -1  303.88   10.92
   2  -1  -1  328.33   13.66
   2  -1  -1  301.15   13.40
   2  -1  -1  297.90   13.72
   2  -1  -1  254.59   12.81
  -2   1   0  213.30   12.16
  -2   1   0  239.31   10.99
  -2   1   0  222.07   11.84
  -2   1   0  227.02   12.88
  -2   1   0  211.67   12.81
   2  -1   0  241.00   12.10
   2  -1   0  268.38   11.45
   2  -1   0  205.36   11.25
   2  -1   0  217.85   13.01
   2  -1   0  234.62   12.81
   2  -1   0  204.78   11.90
  -2   1  -1   10.86    5.98
  -2   1  -1   16.65    4.49
  -2   1  -1    5.46    4.10
  -2   1  -1    6.76    5.33
  -2   1  -1    6.50    5.53
  -2   1  -1    5.07    5.79
   2  -1   1   15.54    5.59
   2  -1   1   17.04    5.14
   2  -1   1    5.33    4.88
   2  -1   1   17.10    6.44
   2  -1   1   11.51    5.46
  -2   1  -2  103.33   11.19
  -2   1  -2  111.00    8.97
  -2   1  -2   82.26    7.74
  -2   1  -2   99.56    9.95
  -2   1  -2  112.18   11.32
  -2   1  -2   94.29   11.58
   2  -1   2   99.62   10.01
   2  -1   2   93.38    9.95
   2  -1   2   39.73    6.63
   2  -1   2  115.75   11.12
  -2   1  -3  436.35   18.53
  -2   1  -3  457.67   16.39
  -2   1  -3  431.60   13.79
  -2   1  -3  388.42   16.06
  -2   1  -3  443.63   18.66
  -2   1  -3  404.55   18.73
   2  -1   3  434.46   17.49
   2  -1   3  249.65   14.63
   2  -1   3  105.09    8.58
   2  -1   3  454.55   18.86
  -2   1  -4  418.79   19.44
  -2   1  -4  398.63   13.33
  -2   1  -4  341.27   16.65
  -2   1  -4  397.72   19.51
  -2   1  -4  370.99   19.57
   2  -1   4  386.66   17.82
   2  -1   4  128.76   12.68
   2  -1   4   78.30    8.00
   2  -1   4  370.21   18.53
  -2   1  -5   19.64    8.45
  -2   1  -5   13.66    7.87
   2  -1   5   15.28    7.22
   2  -1   5   -7.48   11.25
   2  -1   5   17.49    7.80
  -2   1  -6   63.40   12.55
  -2   1  -6   49.88   10.79
  -2   1  -6   50.85   11.64
   2  -1   6   64.05   11.58
   2  -1   6    0.72    6.05
   2  -1   6   69.58   12.94
  -2   1  -7  368.06   22.57
  -2   1  -7  306.09   21.52
  -2   1  -7  345.56   25.69
   2  -1   7  365.66   21.00
   2  -1   7   10.21    7.35
   2  -1   7  352.20   22.17
  -2   1  -8    2.34    9.04
  -2   1  -8   -1.04    7.80
   2  -1   8   -6.63    6.76
   2  -1   8    4.23    7.74
   2  -1   8    3.25    8.00
  -2   1  -9   77.45   17.17
  -2   1  -9   61.65   15.22
   2  -1   9   59.57   13.53
   2  -1   9    0.91    7.93
   2  -1   9   58.66   14.18
  -2   1 -10  364.16   28.94
  -2   1 -10  409.75   29.65
   2  -1  10  385.36   26.27
   2  -1  10   37.00   13.20
  -2   1 -11  150.80   23.22
  -2   1 -11  160.75   23.93
   2  -1  11  134.68   20.81
   2  -1  11   26.01   13.72
  -2   1 -12   21.91   16.52
  -2   1 -12   40.32   16.97
   2  -1  12   44.48   15.35
   2  -1  12   17.62   15.02
  -2   1 -13   82.59   22.44
  -2   1 -13   71.40   20.55
   2  -1  13   96.31   19.90
   2  -1  13   20.42   16.32
  -2   1 -14   86.23   24.45
   2  -1  14  111.65   22.63
   2  -1  14   42.53   23.15
  -2   1 -15    7.93   19.77
   2  -1  15    6.50   16.26
   2  -1  15   -5.27   19.77
  -2   0  16    1.04   14.76
   2   0 -16    3.12   20.55
  -2   0  15   -0.20   13.66
  -2   0  15    1.56   20.42
   2   0 -15  -25.17   14.57
  -2   0  14   14.18   14.05
  -2   0  14   12.62   10.14
  -2   0  14   11.25   14.89
   2   0 -14  -11.12   14.63
   2   0 -14    7.41   13.92
  -2   0  13   16.91   12.94
  -2   0  13   27.70   14.70
   2   0 -13   27.12   16.52
   2   0 -13   31.86   15.54
  -2   0  12    0.91    9.88
  -2   0  12    0.07   10.66
   2   0 -12    6.83   12.03
   2   0 -12   -0.91   10.73
  -2   0  11    2.80   10.01
  -2   0  11   -0.39   10.21
   2   0 -11   -2.34    9.88
   2   0 -11    4.29   10.99
  -2   0  10  708.69   31.15
  -2   0  10  731.84   30.89
  -2   0  10  697.31   33.03
   2   0 -10  728.33   33.03
   2   0 -10  736.32   34.08
  -2   0   9  387.57   22.83
  -2   0   9  433.03   23.74
  -2   0   9  415.54   25.43
   2   0  -9  427.31   24.84
   2   0  -9  419.31   25.23
  -2   0   8  101.90   14.44
  -2   0   8  122.90   17.17
  -2   0   8  107.30   14.70
  -2   0   8   99.56   14.63
   2   0  -8  132.85   16.91
   2   0  -8  122.58   12.49
   2   0  -8  124.92   16.71
   2   0  -8  118.22   15.74
   2   0  -8  107.62   14.70
  -2   0   7 1293.23   34.08
  -2   0   7 1308.38   36.22
  -2   0   7 1342.53   33.95
  -2   0   7 1293.56   35.83
   2   0  -7 1352.73   35.77
   2   0  -7 1485.33   31.02
   2   0  -7 1312.87   36.22
   2   0  -7 1243.49   34.86
   2   0  -7 1339.86   34.40
  -2   0   6 2975.01   47.02
  -2   0   6 3054.94   50.46
  -2   0   6 3076.85   47.47
  -2   0   6 2867.91   48.38
   2   0  -6 3227.78   50.14
   2   0  -6 3402.13   44.35
   2   0  -6 3040.89   50.27
   2   0  -6 2972.22   48.90
   2   0  -6 3144.81   47.67
  -2   0   5    2.21    5.53
  -2   0   5    8.39    6.44
  -2   0   5   -0.98    5.79
  -2   0   5    8.39    6.83
   2   0  -5    7.09    5.98
   2   0  -5   12.55    5.98
   2   0  -5    9.17    3.90
   2   0  -5    5.72    6.18
   2   0  -5    4.49    5.46
   2   0  -5    6.05    5.46
  -2   0   4 2982.82   40.71
  -2   0   4 3041.34   43.50
  -2   0   4 3186.68   43.18
  -2   0   4 2924.10   42.27
   2   0  -4 3403.17   41.16
   2   0  -4 3394.45   32.38
   2   0  -4 3117.36   43.70
   2   0  -4 2973.19   42.01
   2   0  -4 3164.97   39.86
  -2   0   3 8674.23   63.14
  -2   0   3 8856.11   67.37
  -2   0   3 9073.77   67.57
  -2   0   3 9435.46   76.02
  -2   0   3 8209.14   64.05
   2   0  -3 9724.32   67.24
   2   0  -3 9817.96   66.72
   2   0  -3 9999.00   56.45
   2   0  -3 9037.94   67.44
   2   0  -3 8637.55   65.35
   2   0  -3 9062.65   60.22
  -2   0   2 4742.44   44.09
  -2   0   2 4955.28   46.50
  -2   0   2 4984.15   47.47
  -2   0   2 5096.52   47.34
  -2   0   2 4524.07   45.07
   2   0  -2 5368.15   47.21
   2   0  -2 5298.44   41.81
   2   0  -2 4771.83   45.33
   2   0  -2 5047.23   47.54
   2   0  -2 4716.17   45.59
  -2   0   1  607.44   16.65
  -2   0   1  580.77   16.84
  -2   0   1  633.38   15.02
  -2   0   1  590.46   17.04
  -2   0   1  616.54   18.08
  -2   0   1  580.77   17.88
   2   0  -1  648.08   17.43
   2   0  -1  630.39   20.81
   2   0  -1  662.32   10.99
   2   0  -1  604.84   14.31
   2   0  -1  369.63   13.92
   2   0  -1  631.30   16.45
   2   0  -1  649.71   18.40
   2   0  -1  597.55   17.36
  -2   0   0 6381.82   48.19
  -2   0   0 5940.08   47.21
  -2   0   0    2.02    3.12
  -2   0   0 6413.43   39.54
  -2   0   0 2679.78   32.51
  -2   0   0 6088.15   43.57
  -2   0   0 6448.93   50.72
  -2   0   0 5659.35   48.06
   2   0   0 6659.30   49.94
   2   0   0 6327.52   57.23
   2   0   0 6857.51   40.38
   2   0   0 6303.98   38.89
   2   0   0 2003.87   28.42
   2   0   0 6172.30   43.37
   2   0   0 6470.00   51.11
   2   0   0 5858.14   48.45
  -2   0  -1 1955.23   29.00
  -2   0  -1 2078.26   24.58
  -2   0  -1 1886.43   26.99
  -2   0  -1 1899.04   24.19
  -2   0  -1 2078.26   30.76
  -2   0  -1 1806.51   29.13
   2   0   1 2200.06   30.43
   2   0   1  556.00   14.50
   2   0   1 2102.65   24.26
   2   0   1  685.47   17.10
   2   0   1 1920.83   23.87
   2   0   1 2073.39   30.89
   2   0   1 1929.35   29.59
  -2   0  -2   16.45    6.37
  -2   0  -2   21.26    5.92
  -2   0  -2   24.00    5.98
  -2   0  -2   19.70    5.33
  -2   0  -2   25.49    6.76
  -2   0  -2   18.21    6.89
   2   0   2   17.30    5.85
   2   0   2   -3.90    3.06
   2   0   2   25.36    5.59
   2   0   2   10.53    4.88
   2   0   2   18.40    4.68
   2   0   2   14.70    6.24
   2   0   2   21.26    6.57
  -2   0  -3   50.92    8.78
  -2   0  -3   48.77    7.80
  -2   0  -3   64.38    7.87
  -2   0  -3   48.38    6.96
  -2   0  -3   57.88    8.84
  -2   0  -3   37.91    8.39
   2   0   3   57.23    8.91
   2   0   3   56.06    7.67
   2   0   3   55.53    8.91
   2   0   3   58.59    9.04
  -2   0  -4  826.45   24.52
  -2   0  -4  890.64   23.87
  -2   0  -4  856.17   22.17
  -2   0  -4  852.86   25.17
   2   0   4  845.38   24.13
   2   0   4  862.94   19.51
   2   0   4  854.29   25.30
  -2   0  -5  527.84   21.85
  -2   0  -5  563.80   21.78
  -2   0  -5  498.77   21.46
  -2   0  -5  534.02   22.30
   2   0   5  516.59   21.00
   2   0   5  530.25   16.26
   2   0   5  516.66   21.98
  -2   0  -6    7.87    7.54
  -2   0  -6    6.05    7.54
   2   0   6    4.03    6.24
   2   0   6    3.71    6.76
  -2   0  -7  930.37   31.80
  -2   0  -7  833.41   31.08
   2   0   7  896.88   30.37
   2   0   7  935.90   21.85
   2   0   7  910.08   32.12
  -2   0  -8  173.30   18.27
  -2   0  -8  149.18   18.92
   2   0   8  124.08   15.41
   2   0   8  150.35   17.43
  -2   0  -9   54.49   14.18
  -2   0  -9   48.45   13.59
   2   0   9   84.86   14.83
   2   0   9   62.95   14.05
  -2   0 -10   -4.10   10.47
  -2   0 -10   -1.24    9.69
   2   0  10    4.29    9.23
   2   0  10   -5.46    6.83
   2   0  10   -5.01    8.91
  -2   0 -11  104.31   19.12
  -2   0 -11   96.18   19.83
   2   0  11  119.00   20.48
   2   0  11   -1.17   11.38
  -2   0 -12   45.52   18.21
  -2   0 -12   39.28   16.58
   2   0  12   24.13   13.40
   2   0  12    0.85   10.79
  -2   0 -13   45.46   19.64
  -2   0 -13   22.30   15.15
   2   0  13   25.88   15.22
   2   0  13    7.74   17.30
  -2   0 -14   -1.24   16.26
  -2   0 -14   -9.62   18.99
   2   0  14   -3.90   13.07
   2   0  14   24.45   16.71
  -2   0 -15    5.85   19.83
  -2   0 -15   14.50   22.96
   2   0  15   12.49   15.80
   2   0  15   37.07   23.87
  -2  -1  15    8.97   15.41
  -2  -1  15    8.91   17.30
   2   1 -15    9.88   18.21
   2   1 -15    6.76   16.78
  -2  -1  14    2.73   12.49
  -2  -1  14   -6.89   10.60
  -2  -1  14   -2.08   14.89
   2   1 -14   18.53   18.01
   2   1 -14    8.78   14.37
  -2  -1  13   27.44   13.98
  -2  -1  13  -16.58   12.29
  -2  -1  13   48.58   17.04
   2   1 -13   42.92   17.69
   2   1 -13   32.97   15.28
  -2  -1  12   29.52   12.68
  -2  -1  12    0.78    8.84
  -2  -1  12   22.37   14.31
   2   1 -12   28.68   15.15
   2   1 -12   18.66   13.53
  -2  -1  11   33.75   12.49
  -2  -1  11   -5.66    7.22
  -2  -1  11   48.84   15.02
   2   1 -11   35.31   14.50
   2   1 -11   40.12   14.76
  -2  -1  10  588.77   28.55
  -2  -1  10    6.18    6.63
  -2  -1  10  569.46   29.59
   2   1 -10  582.47   30.63
   2   1 -10  616.41   32.38
  -2  -1   9  204.58   18.14
  -2  -1   9   14.11    9.10
  -2  -1   9  217.13   19.83
  -2  -1   9  214.34   19.96
   2   1  -9  218.63   20.29
   2   1  -9  234.30   20.94
   2   1  -9  206.21   20.16
   2   1  -9  215.96   19.83
  -2  -1   8   22.24    9.10
  -2  -1   8   13.27    9.17
  -2  -1   8   25.04    9.82
   2   1  -8   30.95    9.95
   2   1  -8   29.33    7.67
   2   1  -8   26.92   10.01
   2   1  -8   21.52    9.10
   2   1  -8   31.41   10.21
  -2  -1   7   24.39    8.58
  -2  -1   7   21.52    8.65
  -2  -1   7    9.82    7.67
   2   1  -7   13.20    8.06
   2   1  -7   17.56    6.37
   2   1  -7   11.97    7.87
   2   1  -7   15.74    8.13
   2   1  -7   14.24    8.32
  -2  -1   6  394.73   18.86
  -2  -1   6  418.33   20.87
  -2  -1   6  432.05   20.68
   2   1  -6  442.00   20.81
   2   1  -6  452.41   17.36
   2   1  -6  409.94   20.61
   2   1  -6  418.53   20.16
   2   1  -6  445.25   21.26
  -2  -1   5   99.23   11.25
  -2  -1   5  108.47   13.07
  -2  -1   5  108.53   12.49
  -2  -1   5   99.23   11.97
   2   1  -5  111.07   12.03
   2   1  -5  133.37   10.47
   2   1  -5  116.73   12.94
   2   1  -5   99.62   11.58
   2   1  -5  115.95   12.55
  -2  -1   4  162.25   11.71
  -2  -1   4  166.99   13.59
  -2  -1   4  180.59   13.59
  -2  -1   4  127.65   11.51
   2   1  -4  202.24   13.01
   2   1  -4  188.91   11.25
   2   1  -4  182.41   13.40
   2   1  -4  178.63   12.36
   2   1  -4  197.56   13.59
  -2  -1   3  573.88   17.23
  -2  -1   3  583.51   19.51
  -2  -1   3  607.05   19.83
   2   1  -3  632.60   18.53
   2   1  -3  517.44   16.00
   2   1  -3  603.53   19.12
   2   1  -3  595.47   18.34
   2   1  -3  617.91   19.18
  -2  -1   2   24.84    5.46
  -2  -1   2   17.10    5.40
  -2  -1   2    5.46    4.94
  -2  -1   2   22.63    6.70
  -2  -1   2   21.20    6.11
  -2  -1   2    2.08    2.99
   2   1  -2   26.14    6.11
   2   1  -2   14.83    4.94
   2   1  -2   19.57    6.31
   2   1  -2   23.41    5.85
   2   1  -2   22.96    6.63
  -2  -1   1  280.28   11.12
  -2  -1   1  259.40   11.25
  -2  -1   1  281.77   12.88
  -2  -1   1  235.28   11.32
  -2  -1   1  291.46   12.23
  -2  -1   1  264.80   12.62
  -2  -1   1  298.55   12.81
   2   1  -1  304.92   12.03
   2   1  -1  272.47   11.32
   2   1  -1  297.12   12.23
   2   1  -1   93.12    8.58
   2   1  -1  286.65   11.51
   2   1  -1  302.97   13.14
   2   1  -1  266.68   11.64
  -2  -1   0 2143.49   26.21
  -2  -1   0 1908.21   25.23
  -2  -1   0 2165.21   27.44
  -2  -1   0 2103.95   28.81
  -2  -1   0 2119.49   24.32
  -2  -1   0 2035.28   27.31
  -2  -1   0 2170.61   28.35
   2   1   0 2234.98   27.70
   2   1   0 2030.01   26.34
   2   1   0 2158.84   27.12
   2   1   0 1447.61   24.32
   2   1   0 2118.13   24.06
   2   1   0 2136.14   28.55
   2   1   0 1924.28   27.05
  -2  -1  -1  302.78   11.84
  -2  -1  -1  289.90   11.90
  -2  -1  -1  313.18   12.49
  -2  -1  -1  329.05   13.07
  -2  -1  -1  291.27    9.23
  -2  -1  -1  300.89   12.88
  -2  -1  -1  198.14   10.92
   2   1   1  317.28   12.36
   2   1   1  294.00   11.84
   2   1   1  301.99   11.90
   2   1   1  324.30   13.07
   2   1   1  296.86    8.91
   2   1   1  303.95   13.01
   2   1   1  274.81   12.10
  -2  -1  -2  675.39   19.77
  -2  -1  -2  653.74   17.82
  -2  -1  -2  686.58   18.01
  -2  -1  -2  715.19   20.68
  -2  -1  -2  702.25   18.73
  -2  -1  -2  591.70   17.69
   2   1   2  720.39   18.40
   2   1   2  683.65   17.30
   2   1   2  757.13   18.92
   2   1   2  682.48   18.79
   2   1   2  632.73   17.95
  -2  -1  -3   35.83    7.67
  -2  -1  -3   48.77    8.32
  -2  -1  -3   49.49    9.56
  -2  -1  -3   43.76    8.26
   2   1   3   54.23    8.39
   2   1   3   50.07    7.80
   2   1   3   36.35    7.28
   2   1   3   46.56    8.00
  -2  -1  -4  454.42   18.47
  -2  -1  -4  475.95   18.60
   2   1   4  477.25   18.47
   2   1   4  474.91   16.32
   2   1   4  428.61   18.47
   2   1   4  484.21   19.44
  -2  -1  -5  493.31   20.55
  -2  -1  -5  516.53   20.68
  -2  -1  -5  474.45   13.92
  -2  -1  -5  499.81   20.87
   2   1   5  527.91   20.48
   2   1   5  505.28   17.36
   2   1   5  512.88   20.87
   2   1   5  501.18   21.00
  -2  -1  -6  255.56   17.17
  -2  -1  -6  336.07   19.38
  -2  -1  -6  254.26   11.71
  -2  -1  -6  289.38   18.40
   2   1   6  285.22   17.23
   2   1   6  300.17   14.63
   2   1   6  289.77   18.66
  -2  -1  -7   53.97   11.38
  -2  -1  -7   82.46   13.46
  -2  -1  -7   48.64   11.38
   2   1   7   59.11   11.38
   2   1   7   62.10    9.30
   2   1   7   64.70   12.42
  -2  -1  -8  140.59   16.71
  -2  -1  -8  146.90   18.53
  -2  -1  -8  140.01   17.10
   2   1   8  129.54   15.09
   2   1   8  120.24   11.77
   2   1   8  115.36   16.45
  -2  -1  -9  157.05   18.66
  -2  -1  -9  176.03   20.61
  -2  -1  -9  133.96   18.34
   2   1   9  174.80   17.75
   2   1   9  183.71   13.72
   2   1   9  152.56   18.79
  -2  -1 -10   26.99   12.29
  -2  -1 -10   42.59   14.24
  -2  -1 -10   26.66   12.03
   2   1  10   41.42   12.16
   2   1  10   46.24    9.95
   2   1  10   23.48   11.45
  -2  -1 -11   -2.47   11.38
  -2  -1 -11   29.20   14.50
  -2  -1 -11   12.23   11.64
   2   1  11    4.75    9.23
   2   1  11    3.97   11.05
  -2  -1 -12   19.90   14.44
  -2  -1 -12   29.26   17.10
  -2  -1 -12   13.59   13.07
   2   1  12    5.59   10.86
  -2  -1 -13   65.74   20.09
  -2  -1 -13   98.71   24.19
   2   1  13   62.88   17.75
  -2  -1 -14   16.52   16.84
  -2  -1 -14   -9.43   18.53
   2   1  14    0.65   12.62
   2   1  14   21.85   14.76
  -2  -1 -15  -23.87   13.98
  -2  -1 -15   -7.09   21.33
   2   1  15    0.98   14.24
   2   1  15   12.62   16.45
  -2  -1 -16   31.67   21.26
  -2  -1 -16   36.61   26.73
   2   1  16   23.41   17.10
   2   1  16   21.26   19.12
  -2  -2  15   16.71   14.63
  -2  -2  15    6.96   17.69
   2   2 -15    7.35   19.05
   2   2 -15   22.37   18.27
  -2  -2  14    9.30   12.29
  -2  -2  14    6.63   16.45
   2   2 -14    5.01   17.10
   2   2 -14    9.88   15.09
  -2  -2  13   34.21   14.57
  -2  -2  13   12.55   12.29
  -2  -2  13   36.48   16.84
   2   2 -13   38.30   17.43
   2   2 -13   18.92   15.61
  -2  -2  12   11.58   11.19
  -2  -2  12   -9.10    9.95
  -2  -2  12   11.38   13.98
   2   2 -12    2.08   13.53
   2   2 -12    1.89   10.79
  -2  -2  11  116.73   18.40
  -2  -2  11   40.77   13.01
  -2  -2  11  107.36   19.25
   2   2 -11  121.15   21.46
   2   2 -11  108.14   20.22
  -2  -2  10  154.70   17.88
  -2  -2  10   71.08   13.07
  -2  -2  10  160.17   21.72
   2   2 -10  162.64   21.46
   2   2 -10  170.77   22.30
  -2  -2   9  161.60   16.84
  -2  -2   9   69.97   11.90
  -2  -2   9  158.54   19.70
   2   2  -9  180.46   19.57
   2   2  -9  150.87   19.77
   2   2  -9  166.47   19.70
  -2  -2   8  112.18   14.05
  -2  -2   8   40.06    8.97
  -2  -2   8  102.81   15.80
  -2  -2   8  110.29   15.87
   2   2  -8  104.63   15.80
   2   2  -8  106.71   16.19
   2   2  -8   88.83   14.57
   2   2  -8   88.44   15.02
  -2  -2   7   -0.46    6.05
  -2  -2   7    1.43    4.88
  -2  -2   7   -3.45    7.54
  -2  -2   7    0.85    5.79
   2   2  -7    4.42    6.96
   2   2  -7    2.86    7.15
   2   2  -7    2.08    6.50
   2   2  -7    3.25    7.09
  -2  -2   6   34.53    8.52
  -2  -2   6   25.43    6.70
  -2  -2   6   30.37    9.69
  -2  -2   6   -0.13    3.71
   2   2  -6   34.21    9.43
   2   2  -6   50.20    7.67
   2   2  -6   29.78    8.58
   2   2  -6   32.25    8.91
   2   2  -6   35.83    9.69
  -2  -2   5   10.92    6.18
  -2  -2   5   10.79    6.83
  -2  -2   5    8.52    7.35
  -2  -2   5    2.54    2.60
   2   2  -5    3.32    5.85
   2   2  -5   11.84    5.53
   2   2  -5    6.83    6.44
   2   2  -5   13.33    6.63
   2   2  -5    5.79    6.11
  -2  -2   4  227.86   12.75
  -2  -2   4  271.56   11.05
  -2  -2   4  213.17   15.41
   2   2  -4  255.11   14.31
   2   2  -4  200.22   10.79
   2   2  -4  236.32   14.57
   2   2  -4  242.69   14.11
   2   2  -4  249.84   16.00
  -2  -2   3   83.24    8.00
  -2  -2   3   82.65    8.52
  -2  -2   3   83.95   10.73
  -2  -2   3   83.37    9.43
   2   2  -3  106.84    9.82
   2   2  -3   32.19    5.92
   2   2  -3   84.80    9.95
   2   2  -3   84.93    9.04
   2   2  -3   95.72   11.71
  -2  -2   2   24.19    5.01
  -2  -2   2   26.47    5.27
  -2  -2   2   29.65    7.09
  -2  -2   2   28.68    6.89
  -2  -2   2   19.51    5.53
   2   2  -2   27.77    5.98
   2   2  -2   11.45    4.23
   2   2  -2   28.48    6.37
   2   2  -2   26.34    5.92
   2   2  -2   31.54    7.35
  -2  -2   1   28.74    4.81
  -2  -2   1   26.08    4.88
  -2  -2   1   31.15    7.54
  -2  -2   1   30.43    7.28
  -2  -2   1   25.30    5.92
  -2  -2   1   23.02    6.37
  -2  -2   1   27.64    5.59
   2   2  -1   35.38    5.85
   2   2  -1   29.85    5.27
   2   2  -1   24.97    5.59
   2   2  -1   33.62    6.57
   2   2  -1   29.85    5.98
   2   2  -1   25.75    5.59
  -2  -2   0  273.71    9.36
  -2  -2   0  240.54    9.10
  -2  -2   0  276.76   13.40
  -2  -2   0  243.60   10.27
  -2  -2   0  253.48   11.84
  -2  -2   0  237.62   10.47
   2   2   0  283.53   10.53
   2   2   0  247.63    9.75
   2   2   0  309.73   12.88
   2   2   0  271.11   10.27
   2   2   0  261.74   11.32
   2   2   0  278.06   11.32
   2   2   0  263.76   10.86
  -2  -2  -1  159.13    8.19
  -2  -2  -1  137.21    8.19
  -2  -2  -1  148.53   10.92
  -2  -2  -1  142.28    6.96
  -2  -2  -1  156.33    9.30
  -2  -2  -1  118.03    8.45
   2   2   1  163.87    8.97
   2   2   1  134.15    8.45
   2   2   1  171.74   10.99
   2   2   1  144.10    6.70
   2   2   1  155.94    8.52
   2   2   1  155.16    9.82
   2   2   1  139.75    9.04
  -2  -2  -2  127.46    8.45
  -2  -2  -2  110.29    8.71
  -2  -2  -2  133.05   11.05
  -2  -2  -2  129.73    7.67
   2   2   2  136.95    9.43
   2   2   2  108.21    8.65
   2   2   2  119.85   10.53
   2   2   2  133.57   10.21
   2   2   2  108.92    9.10
  -2  -2  -3   97.22    9.95
  -2  -2  -3   95.79    9.69
  -2  -2  -3   98.65   11.25
  -2  -2  -3   28.22    6.18
   2   2   3   97.54    9.49
   2   2   3   97.93   10.40
   2   2   3   78.88    9.36
   2   2   3   94.03   10.27
  -2  -2  -4  227.47   13.53
  -2  -2  -4  262.52   15.54
   2   2   4  248.22   13.66
   2   2   4  262.20   14.11
   2   2   4  237.16   14.05
   2   2   4  235.21   14.37
  -2  -2  -5 1329.00   29.52
  -2  -2  -5 1457.89   32.71
  -2  -2  -5 1235.62   29.52
   2   2   5 1341.35   29.91
   2   2   5 1339.53   28.22
   2   2   5 1247.52   29.78
   2   2   5 1331.54   31.21
  -2  -2  -6 1167.14   30.24
  -2  -2  -6 1226.51   32.58
  -2  -2  -6  999.04   29.26
   2   2   6 1155.44   30.24
   2   2   6 1138.07   27.05
   2   2   6 1054.32   29.85
   2   2   6 1131.51   31.28
  -2  -2  -7  338.41   19.70
  -2  -2  -7  374.18   21.33
  -2  -2  -7  315.39   19.90
   2   2   7  348.62   19.51
   2   2   7  343.29   17.23
   2   2   7  367.67   21.13
  -2  -2  -8  119.46   15.41
  -2  -2  -8  182.02   18.27
  -2  -2  -8  132.79   16.39
   2   2   8  146.64   15.48
   2   2   8  156.13   13.79
   2   2   8  162.57   17.36
  -2  -2  -9   82.39   14.44
  -2  -2  -9   86.23   16.06
  -2  -2  -9   57.81   13.20
   2   2   9   74.00   13.20
   2   2   9   80.05   11.64
   2   2   9   65.29   13.92
  -2  -2 -10   48.38   13.40
  -2  -2 -10   38.43   13.79
  -2  -2 -10   37.00   12.75
   2   2  10   36.29   12.16
   2   2  10   30.56    9.23
   2   2  10   30.69   12.88
  -2  -2 -11    1.11   10.14
  -2  -2 -11   -3.84   10.73
  -2  -2 -11   -2.02    9.49
   2   2  11   -2.08    7.80
   2   2  11   -1.11    7.35
   2   2  11   -0.65    9.56
  -2  -2 -12   12.68   12.75
  -2  -2 -12    2.02   13.92
  -2  -2 -12    6.57   11.84
   2   2  12    9.17   10.53
   2   2  12    2.99    9.43
   2   2  12    6.11   11.38
  -2  -2 -13  187.80   26.92
  -2  -2 -13  217.72   28.61
   2   2  13  164.65   23.87
  -2  -2 -14   47.47   19.38
  -2  -2 -14   54.49   22.04
   2   2  14   53.32   17.43
  -2  -2 -15   -1.37   17.17
  -2  -2 -15    3.71   21.52
   2   2  15   12.29   15.74
  -2  -2 -16   20.09   19.57
  -2  -2 -16   23.93   23.28
   2   2  16   21.65   17.49
  -2  -3  14   -2.80   12.16
  -2  -3  14   -3.90   15.87
   2   3 -14    1.04   17.56
   2   3 -14    8.52   16.84
  -2  -3  13    8.39   12.49
  -2  -3  13   17.04   16.91
   2   3 -13   26.47   18.73
   2   3 -13   16.58   15.41
  -2  -3  12   34.47   12.49
  -2  -3  12    6.50   16.32
  -2  -3  12   19.83   15.74
   2   3 -12   41.10   17.56
   2   3 -12   18.99   14.76
  -2  -3  11   73.42   15.09
  -2  -3  11   55.08   15.67
  -2  -3  11   88.83   19.38
   2   3 -11   98.39   20.42
   2   3 -11   76.67   18.14
  -2  -3  10   89.02   15.35
  -2  -3  10  107.36   21.52
  -2  -3  10  108.53   19.83
   2   3 -10  103.20   18.79
   2   3 -10   97.48   18.14
   2   3 -10   96.63   19.05
  -2  -3   9   76.86   14.11
  -2  -3   9   83.37   14.05
  -2  -3   9   85.06   17.95
   2   3  -9   87.07   16.26
   2   3  -9   69.71   15.80
   2   3  -9  117.18   19.44
  -2  -3   8  103.27   14.11
  -2  -3   8  114.84   14.50
  -2  -3   8  128.95   18.92
   2   3  -8  132.53   18.01
   2   3  -8  106.39   16.65
   2   3  -8  102.94   16.71
  -2  -3   7   30.56    8.52
  -2  -3   7   31.08    8.26
  -2  -3   7   27.44   10.73
  -2  -3   7   20.48    8.26
   2   3  -7   37.52   10.34
   2   3  -7   36.87   10.47
   2   3  -7   44.54   10.73
   2   3  -7   42.27   11.38
  -2  -3   6   13.79    6.57
  -2  -3   6   12.42    5.92
  -2  -3   6   28.55   10.01
  -2  -3   6   18.47    7.74
   2   3  -6   23.61    8.39
   2   3  -6   22.30    8.45
   2   3  -6   18.86    7.67
   2   3  -6    7.15    8.13
  -2  -3   5  112.63   10.47
  -2  -3   5  130.38   11.05
  -2  -3   5  120.56   14.70
  -2  -3   5  124.79   12.49
   2   3  -5  135.07   12.81
   2   3  -5  118.03   12.68
   2   3  -5  119.72   12.36
   2   3  -5  140.20   14.76
  -2  -3   4   41.75    6.96
  -2  -3   4   50.20    7.74
  -2  -3   4   32.97    9.95
  -2  -3   4   41.16   10.21
  -2  -3   4   39.67    7.74
   2   3  -4   34.92    7.93
   2   3  -4   21.00    5.07
   2   3  -4   46.30    8.65
   2   3  -4   53.65    8.71
   2   3  -4   48.12   10.27
  -2  -3   3    3.84    3.90
  -2  -3   3    0.20    5.79
  -2  -3   3    2.80    4.68
   2   3  -3   -3.84    2.28
   2   3  -3    1.30    3.12
   2   3  -3   -1.82    4.42
   2   3  -3    3.38    4.55
   2   3  -3    2.41    6.11
  -2  -3   2   27.83    5.14
  -2  -3   2   20.22    7.35
  -2  -3   2   31.47    5.98
   2   3  -2   42.07    6.50
   2   3  -2   34.53    7.80
   2   3  -2   30.89    4.68
   2   3  -2   22.57    5.40
   2   3  -2   31.73    5.53
   2   3  -2   27.51    6.31
   2   3  -2   25.95    5.72
   2   3  -2   33.16    8.00
  -2  -3   1    4.75    3.58
  -2  -3   1    3.19    6.18
  -2  -3   1    3.12    5.46
   2   3  -1    6.05    3.77
   2   3  -1    0.59    3.51
   2   3  -1    6.05    3.19
   2   3  -1    4.36    4.03
   2   3  -1    2.80    3.90
   2   3  -1   -0.26    4.16
   2   3  -1    1.24    3.77
  -2  -3   0  270.72   14.57
  -2  -3   0  235.73   12.55
   2   3   0  244.64    9.36
   2   3   0  260.64   12.49
  -2  -3  -1  183.12   12.49
  -2  -3  -1  176.75   10.40
   2   3   1  190.80    9.30
   2   3   1  194.83   11.90
   2   3   1  176.81    9.49
   2   3   1  201.59    9.62
   2   3   1  161.92    8.52
  -2  -3  -2  207.51   13.40
  -2  -3  -2  197.17    9.43
  -2  -3  -2  175.58    9.36
   2   3   2  200.61    9.17
   2   3   2  199.70    9.10
   2   3   2  194.31   12.42
   2   3   2  188.39    8.52
   2   3   2  205.69   10.34
   2   3   2  186.05    9.62
  -2  -3  -3    2.02    3.45
  -2  -3  -3   10.27    4.81
  -2  -3  -3    8.32    6.70
  -2  -3  -3    8.39    3.51
  -2  -3  -3    7.87    5.01
   2   3   3    6.76    4.42
   2   3   3    5.01    5.85
   2   3   3    6.11    3.06
   2   3   3    5.40    4.75
   2   3   3    7.48    5.40
  -2  -3  -4  243.60   12.55
  -2  -3  -4  241.91   15.67
   2   3   4  225.98   12.62
   2   3   4  244.57   14.63
   2   3   4  224.87   13.01
   2   3   4  222.92   13.33
  -2  -3  -5    6.24    6.31
  -2  -3  -5   11.51    7.67
  -2  -3  -5   -0.26    4.94
   2   3   5    6.18    5.79
   2   3   5   12.81    6.70
   2   3   5    6.31    5.92
   2   3   5   10.66    6.63
  -2  -3  -6    8.39    6.76
  -2  -3  -6   18.53    8.65
  -2  -3  -6    1.95    6.44
   2   3   6    4.94    5.98
   2   3   6    7.93    6.89
   2   3   6    2.60    5.92
   2   3   6    4.68    6.50
  -2  -3  -7  620.31   23.80
  -2  -3  -7  715.19   27.57
  -2  -3  -7  620.64   24.91
   2   3   7  659.07   24.84
   2   3   7  585.39   23.09
   2   3   7  641.06   25.62
   2   3   7  638.52   25.62
  -2  -3  -8    1.63    7.41
  -2  -3  -8    6.83    8.26
  -2  -3  -8    0.00    6.89
   2   3   8    7.28    7.28
   2   3   8    4.29    6.76
   2   3   8    5.72    7.93
   2   3   8    4.49    7.87
  -2  -3  -9   37.20   11.05
  -2  -3  -9   21.00   10.14
  -2  -3  -9   16.26    9.88
   2   3   9   11.64    8.58
   2   3   9   18.27    8.71
   2   3   9   31.67   10.53
  -2  -3 -10    8.65    9.95
  -2  -3 -10    0.78    9.10
  -2  -3 -10    7.67    8.91
   2   3  10    5.85    9.04
   2   3  10    1.56    7.67
   2   3  10   14.18   10.47
  -2  -3 -11   51.70   14.37
  -2  -3 -11   48.12   14.89
  -2  -3 -11   52.80   14.50
   2   3  11   44.94   13.07
   2   3  11   49.16   11.90
   2   3  11   46.95   14.50
  -2  -3 -12   13.53   12.55
  -2  -3 -12   34.01   15.22
   2   3  12   24.84   12.68
   2   3  12   21.85   10.34
   2   3  12   25.23   13.27
  -2  -3 -13   41.55   16.39
  -2  -3 -13   39.15   17.10
   2   3  13   33.69   14.50
   2   3  13   52.48   13.27
   2   3  13   52.61   18.27
  -2  -3 -14  167.12   26.08
  -2  -3 -14  193.20   28.81
   2   3  14  171.87   25.23
  -2  -3 -15   41.16   19.51
  -2  -3 -15   34.73   20.87
   2   3  15   12.49   14.44
  -2  -3 -16    7.15   17.62
  -2  -3 -16  -16.97   18.86
   2   3  16  -16.39   13.53
  -2  -3 -17   19.51   20.29
  -2  -3 -17   58.79   26.21
   2   3  17   24.58   18.86
  -2  -4  14   27.83   21.20
   2   4 -14   22.44   22.04
   2   4 -14   32.19   19.70
  -2  -4  13    6.89   16.45
   2   4 -13   -5.72   17.23
   2   4 -13   -0.91   15.02
  -2  -4  12   21.52   12.29
  -2  -4  12    4.29   11.71
  -2  -4  12   17.88   16.71
   2   4 -12   22.11   17.43
   2   4 -12   27.57   14.83
  -2  -4  11  180.33   19.64
  -2  -4  11  174.21   22.50
  -2  -4  11  225.78   28.81
   2   4 -11  225.78   28.16
   2   4 -11  196.97   26.47
  -2  -4  10   36.68   10.73
  -2  -4  10   39.21   12.81
  -2  -4  10   49.23   16.91
   2   4 -10   45.33   15.54
   2   4 -10   52.48   15.22
   2   4 -10   52.74   17.23
  -2  -4   9   36.48   10.66
  -2  -4   9   35.83   12.10
  -2  -4   9   37.00   14.57
   2   4  -9   53.45   14.63
   2   4  -9   46.30   13.66
   2   4  -9   20.61   12.03
  -2  -4   8   44.41   10.21
  -2  -4   8   40.77   10.34
  -2  -4   8   61.84   15.74
   2   4  -8   53.97   13.40
   2   4  -8   40.90   12.62
   2   4  -8   41.36   13.46
  -2  -4   7    1.04    5.33
  -2  -4   7   -4.36    6.76
  -2  -4   7   13.46    9.88
   2   4  -7   13.07    8.32
   2   4  -7    9.69    7.93
   2   4  -7    7.61    8.39
   2   4  -7    1.82    7.87
  -2  -4   6   14.63    5.98
  -2  -4   6   20.09    7.41
  -2  -4   6    8.06    9.23
  -2  -4   6   13.01    7.87
   2   4  -6   10.66    7.54
   2   4  -6    7.67    7.28
   2   4  -6   12.81    6.96
   2   4  -6   20.09   10.14
  -2  -4   5   10.99    5.72
  -2  -4   5   14.83    9.17
  -2  -4   5    9.69    6.83
   2   4  -5    3.38    6.31
   2   4  -5    9.10    6.89
   2   4  -5   15.87    7.22
   2   4  -5   18.01    8.52
  -2  -4   4  115.43   10.79
  -2  -4   4  111.65   14.57
  -2  -4   4   90.20   10.60
   2   4  -4  112.50   11.25
   2   4  -4  110.55   11.32
   2   4  -4   95.20   10.66
   2   4  -4  125.77   16.32
  -2  -4   3   21.46    6.89
  -2  -4   3   30.76    9.30
  -2  -4   3   33.29    6.50
   2   4  -3   21.72    5.72
   2   4  -3   28.87    5.33
   2   4  -3   29.72    6.89
   2   4  -3   31.41    6.89
   2   4  -3   30.95    8.84
  -2  -4   2   24.32    5.85
  -2  -4   2   20.16    7.93
   2   4  -2   17.49    5.79
   2   4  -2   24.00    5.53
   2   4  -2   24.26    5.92
   2   4  -2   22.63    8.32
  -2  -4   1   11.90    5.07
  -2  -4   1   19.57    7.67
  -2  -4   1   16.19    7.09
   2   4  -1   21.20    5.07
   2   4  -1   17.82    5.79
   2   4  -1   24.84    7.61
  -2  -4   0  638.20   17.36
  -2  -4   0  696.20   22.70
  -2  -4   0  653.48   20.94
   2   4   0  679.29   17.69
   2   4   0  693.60   19.64
  -2  -4  -1  178.70   13.92
  -2  -4  -1  198.14   12.42
   2   4   1  210.69   12.68
  -2  -4  -2  263.24   15.41
  -2  -4  -2  271.95   12.36
   2   4   2  284.18   14.89
   2   4   2  242.10   10.79
  -2  -4  -3 1114.86   27.51
  -2  -4  -3 1064.46   19.05
  -2  -4  -3  982.13   18.53
   2   4   3 1119.87   19.05
   2   4   3 1114.40   19.05
   2   4   3 1099.38   27.05
   2   4   3 1083.12   18.60
   2   4   3 1048.20   19.83
   2   4   3 1109.27   21.00
  -2  -4  -4 1035.52   18.47
  -2  -4  -4 1096.26   19.38
  -2  -4  -4 1165.65   29.26
  -2  -4  -4 1020.83   21.91
   2   4   4 1080.85   21.98
   2   4   4 1074.22   27.83
   2   4   4 1048.33   22.83
   2   4   4 1093.59   23.61
  -2  -4  -5   17.36    5.98
  -2  -4  -5   26.08    8.91
   2   4   5   23.87    7.02
   2   4   5   19.90    7.74
   2   4   5   22.57    6.96
   2   4   5   24.19    7.35
  -2  -4  -6  250.30   14.57
  -2  -4  -6  225.39   17.23
  -2  -4  -6    4.75    2.80
   2   4   6  229.10   14.83
   2   4   6  201.85   15.54
   2   4   6  210.89   15.22
   2   4   6  210.43   15.28
  -2  -4  -7  620.64   22.57
  -2  -4  -7  704.85   27.51
  -2  -4  -7  530.05   22.24
   2   4   7  619.53   23.61
   2   4   7  557.23   24.13
   2   4   7  622.46   24.71
   2   4   7  627.21   24.58
  -2  -4  -8   87.59   12.94
  -2  -4  -8   92.60   15.02
  -2  -4  -8   73.42   12.75
   2   4   8   69.97   11.97
   2   4   8   83.56   12.94
   2   4   8   73.87   12.62
   2   4   8   86.94   13.85
  -2  -4  -9    2.15    8.32
  -2  -4  -9   15.93    9.49
  -2  -4  -9   13.27    8.78
   2   4   9   13.46    8.58
   2   4   9   22.57    9.17
   2   4   9   14.89    9.04
   2   4   9   17.49    9.49
  -2  -4 -10  137.15   17.69
  -2  -4 -10  119.20   17.95
  -2  -4 -10  116.79   17.43
   2   4  10  124.66   17.36
   2   4  10  118.35   16.39
   2   4  10  124.92   17.82
  -2  -4 -11  372.55   25.75
  -2  -4 -11  446.23   29.52
  -2  -4 -11  395.90   27.05
   2   4  11  388.81   26.21
   2   4  11  395.90   23.54
   2   4  11  432.12   28.29
  -2  -4 -12   61.13   16.39
  -2  -4 -12   45.13   16.45
   2   4  12   45.33   14.18
   2   4  12   59.37   13.98
   2   4  12   46.30   15.15
  -2  -4 -13  -10.08   11.45
  -2  -4 -13    1.37   14.05
   2   4  13    6.96   12.10
   2   4  13    9.95   10.53
   2   4  13    5.01   12.55
  -2  -4 -14   42.85   18.14
  -2  -4 -14   58.27   20.55
   2   4  14   46.63   16.32
   2   4  14   39.73   13.92
   2   4  14   54.10   18.47
  -2  -4 -15   72.25   21.07
  -2  -4 -15   85.12   24.19
   2   4  15   44.67   18.53
  -2  -4 -16   64.51   22.44
  -2  -4 -16   70.62   24.91
   2   4  16   66.91   20.81
  -2  -4 -17   25.04   19.77
  -2  -4 -17   11.97   24.52
   2   4  17   -1.56   15.93
  -2  -5  13   39.80   20.55
   2   5 -13   20.35   20.81
   2   5 -13   22.24   17.62
  -2  -5  12    9.49   17.17
   2   5 -12   17.69   17.36
   2   5 -12   -1.63   13.20
  -2  -5  11   -4.36    9.30
  -2  -5  11   13.01   15.67
   2   5 -11  -13.07   12.88
   2   5 -11   13.98   13.79
  -2  -5  10  127.46   18.99
  -2  -5  10  151.45   25.62
   2   5 -10  168.95   23.93
   2   5 -10  155.94   23.22
   2   5 -10  160.88   25.10
  -2  -5   9    2.15    7.80
  -2  -5   9   -1.63    8.00
  -2  -5   9    6.63   13.20
   2   5  -9    2.02   11.32
   2   5  -9    6.89   10.34
   2   5  -9    7.48   13.27
  -2  -5   8  295.69   21.33
  -2  -5   8  309.67   27.38
   2   5  -8  331.26   23.80
   2   5  -8  291.01   23.02
   2   5  -8  325.86   27.25
  -2  -5   7  314.68   20.09
  -2  -5   7  298.29   25.49
   2   5  -7  311.42   21.59
   2   5  -7  268.11   20.94
   2   5  -7  305.96   24.84
  -2  -5   6  151.00   15.41
  -2  -5   6  187.80   20.68
   2   5  -6  172.00   16.13
   2   5  -6  171.03   16.26
   2   5  -6  172.07   15.93
   2   5  -6  171.94   19.51
  -2  -5   5   60.87   10.40
  -2  -5   5   92.08   15.80
   2   5  -5   79.14   11.97
   2   5  -5   67.83   11.32
   2   5  -5   81.74   11.90
   2   5  -5   72.57   14.37
  -2  -5   4  261.16   15.87
  -2  -5   4  274.03   20.35
   2   5  -4  277.67   15.28
   2   5  -4  268.18   15.48
   2   5  -4  259.14   14.96
   2   5  -4  260.44   19.57
  -2  -5   3  681.70   22.30
  -2  -5   3  642.88   27.18
   2   5  -3  661.48   19.12
   2   5  -3  643.14   18.53
   2   5  -3  613.42   19.25
   2   5  -3  612.90   19.05
   2   5  -3  652.18   26.66
  -2  -5   2   43.05    8.45
  -2  -5   2   30.69    9.62
   2   5  -2  103.92   11.77
   2   5  -2   40.84    9.69
  -2  -5   1  513.01   18.66
  -2  -5   1  489.86   21.85
  -2  -5   1  477.12   17.75
   2   5  -1  520.10   18.14
   2   5  -1  526.09   22.24
  -2  -5   0  669.02   20.74
  -2  -5   0  709.01   25.04
  -2  -5   0  688.01   23.80
  -2  -5   0  666.94   21.13
   2   5   0  700.04   21.33
  -2  -5  -1  777.49   21.91
  -2  -5  -1  781.39   25.30
  -2  -5  -1  751.15   22.96
  -2  -5  -1  711.68   22.37
   2   5   1  771.70   22.63
  -2  -5  -2 1011.66   27.96
  -2  -5  -2  965.75   23.54
  -2  -5  -2  978.49   26.53
   2   5   2  969.97   26.21
  -2  -5  -3  120.56   13.20
  -2  -5  -3  129.86   10.08
   2   5   3  123.10   12.75
   2   5   3  113.74    8.39
  -2  -5  -4   32.06    8.84
  -2  -5  -4   24.65    5.59
   2   5   4   34.73    5.92
   2   5   4   21.46    8.00
   2   5   4   28.48    5.20
   2   5   4   26.01    6.05
  -2  -5  -5   65.22   11.05
   2   5   5   63.73    8.52
   2   5   5   67.83   12.16
   2   5   5   66.13    8.97
   2   5   5   55.21    8.78
  -2  -5  -6   23.74    6.83
  -2  -5  -6   34.01    9.82
  -2  -5  -6   25.23    7.48
   2   5   6   31.86    7.61
   2   5   6   16.32    7.35
   2   5   6   17.82    7.22
  -2  -5  -7  325.60   16.45
  -2  -5  -7  334.77   20.94
  -2  -5  -7  293.41   17.04
   2   5   7  305.51   17.23
   2   5   7  289.96   17.43
   2   5   7  314.16   18.60
  -2  -5  -8  729.82   24.91
  -2  -5  -8  803.04   31.08
  -2  -5  -8   -1.17    3.77
   2   5   8  689.31   26.08
   2   5   8  654.32   26.27
   2   5   8  668.76   26.86
  -2  -5  -9    3.90    7.67
  -2  -5  -9    5.40    8.45
  -2  -5  -9   -0.59    7.09
   2   5   9  -10.08    6.57
   2   5   9    0.98    8.06
   2   5   9    0.91    7.93
  -2  -5 -10    7.54    8.97
  -2  -5 -10   10.79    9.69
  -2  -5 -10    0.00    8.91
   2   5  10   -6.96    7.15
   2   5  10    1.95    9.04
   2   5  10    7.02    9.36
  -2  -5 -11    1.11    9.43
  -2  -5 -11   -0.65   10.99
   2   5  11   12.49   10.66
   2   5  11    8.65   10.47
  -2  -5 -12   28.42   13.20
  -2  -5 -12   31.28   14.37
   2   5  12   14.37   12.03
   2   5  12   15.02   11.25
   2   5  12   17.17   11.90
  -2  -5 -13  195.15   23.87
  -2  -5 -13  149.57   24.26
   2   5  13  174.21   23.93
   2   5  13  167.25   22.44
   2   5  13  174.73   24.00
  -2  -5 -14   14.96   13.98
  -2  -5 -14    5.46   15.61
   2   5  14   -8.58   11.45
   2   5  14    0.78   10.27
   2   5  14    5.92   13.66
  -2  -5 -15   66.20   19.96
  -2  -5 -15   57.81   21.39
   2   5  15   86.68   22.04
   2   5  15   48.77   16.13
   2   5  15   81.61   21.91
  -2  -5 -16   13.53   16.78
  -2  -5 -16   48.12   22.30
   2   5  16   17.88   17.49
  -2  -5 -17   21.65   19.18
  -2  -5 -17   11.38   23.80
   2   5  17   -6.83   16.97
  -2  -6  12    1.82   17.04
   2   6 -12   23.28   19.31
   2   6 -12    9.36   15.15
  -2  -6  11    1.76   16.00
   2   6 -11   -2.67   14.63
   2   6 -11    3.12   13.40
  -2  -6  10   15.48   11.51
  -2  -6  10    8.65   16.19
   2   6 -10    6.24   13.40
   2   6 -10   -4.55   11.19
  -2  -6   9  200.48   21.72
  -2  -6   9  249.00   28.87
   2   6  -9  204.65   24.13
   2   6  -9  232.61   24.45
   2   6  -9  236.97   28.22
  -2  -6   8  134.81   18.73
  -2  -6   8  151.91   24.65
   2   6  -8  160.75   21.52
   2   6  -8  165.76   20.81
   2   6  -8  167.64   24.97
  -2  -6   7  190.73   19.25
  -2  -6   7  210.69   24.91
   2   6  -7  217.33   20.22
   2   6  -7  205.30   19.96
   2   6  -7  229.81   24.65
  -2  -6   6  606.92   27.12
  -2  -6   6  629.03   34.14
   2   6  -6  628.57   26.86
   2   6  -6  605.81   26.53
   2   6  -6  670.38   33.82
  -2  -6   5  237.88   17.82
  -2  -6   5  180.20   20.81
   2   6  -5  196.26   15.74
   2   6  -5  196.13   16.13
   2   6  -5  179.55   15.54
   2   6  -5  204.84   20.61
  -2  -6   4    2.02    6.18
  -2  -6   4    3.64    9.04
   2   6  -4    4.16    6.05
   2   6  -4    2.67    5.98
   2   6  -4    1.95    6.05
   2   6  -4    2.15    7.48
  -2  -6   3  269.29   17.04
  -2  -6   3  279.49   20.81
  -2  -6   3  258.43   14.37
   2   6  -3  280.73   13.98
   2   6  -3  271.69   19.96
  -2  -6   2  862.55   26.79
  -2  -6   2  845.90   31.54
  -2  -6   2  808.18   23.41
   2   6  -2  849.02   23.22
   2   6  -2  833.48   30.17
  -2  -6   1  360.85   18.27
  -2  -6   1  354.21   20.87
  -2  -6   1  344.98   16.91
   2   6  -1  362.80   16.58
   2   6  -1  359.29   20.35
  -2  -6   0  153.27   13.53
  -2  -6   0  152.75   16.00
  -2  -6   0  146.38   14.70
  -2  -6   0  141.96   12.81
   2   6   0  148.14   13.01
   2   6   0  174.93   15.22
  -2  -6  -1 1941.64   37.46
  -2  -6  -1 1960.17   40.71
  -2  -6  -1 1894.23   38.43
  -2  -6  -1 1870.24   37.39
   2   6   1 1892.15   36.74
  -2  -6  -2 2807.57   44.94
  -2  -6  -2 2878.77   48.19
  -2  -6  -2 2826.03   43.63
  -2  -6  -2 2709.37   45.72
   2   6   2 2789.49   45.72
  -2  -6  -3  122.97   14.18
  -2  -6  -3  146.64   12.29
  -2  -6  -3  126.81   13.66
   2   6   3  148.98   14.44
   2   6   3  119.85   10.34
  -2  -6  -4  698.93   25.95
  -2  -6  -4  679.10   19.70
  -2  -6  -4  690.54   25.82
   2   6   4  650.55   25.04
   2   6   4  594.89   17.10
  -2  -6  -5  554.18   24.13
  -2  -6  -5  531.87   15.74
  -2  -6  -5  518.54   23.54
   2   6   5  550.80   16.65
   2   6   5  494.35   14.76
   2   6   5  492.07   17.10
   2   6   5  502.22   17.43
  -2  -6  -6   70.62   12.49
  -2  -6  -6   54.95    8.71
   2   6   6   64.25    9.36
   2   6   6   71.73   10.14
   2   6   6   70.95   10.21
  -2  -6  -7  216.94   12.88
  -2  -6  -7  251.86   19.57
  -2  -6  -7  193.33   14.50
   2   6   7  203.67   14.63
   2   6   7  193.01   15.02
   2   6   7  200.35   15.74
  -2  -6  -8  867.36   24.97
  -2  -6  -8  974.07   34.40
  -2  -6  -8  795.18   26.92
   2   6   8  799.14   27.31
   2   6   8  792.90   27.83
   2   6   8  850.00   29.13
  -2  -6  -9  133.89   14.57
  -2  -6  -9  142.54   19.96
  -2  -6  -9  102.88   14.37
   2   6   9  121.99   16.13
   2   6   9  106.71   15.28
   2   6   9  133.83   17.17
  -2  -6 -10   86.42   14.24
  -2  -6 -10   98.91   18.01
   2   6  10   83.76   15.09
   2   6  10   84.86   14.96
  -2  -6 -11   -0.13    8.71
  -2  -6 -11    4.16   10.60
   2   6  11   -0.59    9.04
   2   6  11    4.49    9.88
  -2  -6 -12   71.14   15.67
  -2  -6 -12   98.97   21.20
   2   6  12   54.69   15.74
   2   6  12   65.42   16.39
  -2  -6 -13   61.78   16.45
  -2  -6 -13   73.22   18.92
   2   6  13   55.79   16.58
   2   6  13   46.89   16.13
  -2  -6 -14    0.91   13.27
  -2  -6 -14   22.76   16.84
   2   6  14   18.14   14.50
   2   6  14    7.28   12.49
   2   6  14   21.78   14.24
  -2  -6 -15   -2.21   13.72
  -2  -6 -15   31.80   18.66
   2   6  15   30.82   16.45
   2   6  15    4.81   13.14
   2   6  15   25.62   15.93
  -2  -6 -16   58.72   20.42
  -2  -6 -16   59.37   22.96
   2   6  16   50.72   21.20
   2   6  16   49.03   21.39
   2   6  16   45.72   21.72
  -2  -6 -17   92.47   25.56
  -2  -6 -17  137.67   30.37
   2   6  17  113.54   27.25
  -2  -7  11   -1.63   17.49
   2   7 -11    1.63   16.26
   2   7 -11   27.38   15.74
  -2  -7  10    6.50   17.75
  -2  -7  10   16.71   16.91
   2   7 -10   12.36   15.48
   2   7 -10    0.33   12.49
  -2  -7   9  189.69   22.50
  -2  -7   9  169.53   27.25
   2   7  -9  245.22   28.87
   2   7  -9  188.19   23.61
   2   7  -9  205.17   30.24
  -2  -7   8   46.95   13.72
  -2  -7   8   82.46   21.46
   2   7  -8   72.25   16.84
   2   7  -8   65.09   16.06
   2   7  -8   43.37   16.84
  -2  -7   7   18.53   10.14
  -2  -7   7   28.68   15.02
   2   7  -7    8.32   10.47
   2   7  -7   15.54   10.21
   2   7  -7   14.63   13.20
  -2  -7   6  114.71   17.95
  -2  -7   6  121.28   21.91
   2   7  -6  117.90   16.39
   2   7  -6  111.59   15.80
   2   7  -6  127.26   20.74
  -2  -7   5   84.73   14.11
  -2  -7   5   78.23   16.97
   2   7  -5   98.91   13.98
   2   7  -5   89.87   13.40
   2   7  -5  106.52   14.50
   2   7  -5  100.86   18.40
  -2  -7   4   85.51   13.59
  -2  -7   4   81.48   16.45
  -2  -7   4   91.24   11.12
   2   7  -4  102.68   12.88
   2   7  -4   92.02   16.06
  -2  -7   3    9.69    7.28
  -2  -7   3    5.01    8.78
  -2  -7   3    7.22    5.92
   2   7  -3   12.23    8.91
  -2  -7   2  486.22   23.22
  -2  -7   2  437.19   25.62
  -2  -7   2  436.28   19.77
   2   7  -2  454.23   19.05
   2   7  -2  443.30   24.65
  -2  -7   1  125.05   14.37
  -2  -7   1  124.40   16.32
  -2  -7   1  103.27   12.88
   2   7  -1  122.12   12.55
   2   7  -1  121.34   16.13
  -2  -7   0    4.62    6.50
  -2  -7   0    1.43    7.28
  -2  -7   0   -1.89    6.70
  -2  -7   0    2.47    6.31
   2   7   0   -2.28    5.53
   2   7   0    9.10    7.22
  -2  -7  -1    7.02    6.96
  -2  -7  -1    3.58    7.35
  -2  -7  -1   10.73    7.35
  -2  -7  -1    1.95    6.18
   2   7   1    4.10    6.18
   2   7   1    8.32    6.96
  -2  -7  -2   57.42   11.12
  -2  -7  -2   71.47   13.01
  -2  -7  -2   67.44   11.64
  -2  -7  -2   61.13   11.12
   2   7   2   66.52   11.19
   2   7   2   62.30    9.75
  -2  -7  -3  846.09   28.94
  -2  -7  -3  817.03   25.62
  -2  -7  -3  785.36   27.96
   2   7   3  792.90   27.70
   2   7   3  801.42   23.61
  -2  -7  -4   44.28   10.60
  -2  -7  -4   40.45    8.32
  -2  -7  -4   27.96    8.84
   2   7   4   26.27    6.96
  -2  -7  -5  134.09   15.48
  -2  -7  -5  112.37   10.86
  -2  -7  -5  130.58   14.96
   2   7   5  114.97   10.53
  -2  -7  -6   11.84    8.71
  -2  -7  -6    4.68    7.22
   2   7   6    8.58    5.53
   2   7   6   10.40    5.46
   2   7   6    9.17    5.92
   2   7   6    7.80    6.11
  -2  -7  -7  194.70   18.40
  -2  -7  -7  174.34   17.75
   2   7   7  160.75   13.53
   2   7   7  171.35   14.11
   2   7   7  172.98   14.63
  -2  -7  -8  140.72   18.86
  -2  -7  -8  127.33   13.85
   2   7   8  121.41   13.98
   2   7   8  128.37   14.37
   2   7   8  118.48   14.63
  -2  -7  -9  541.89   21.20
  -2  -7  -9  636.83   30.89
   2   7   9  574.86   25.49
   2   7   9  528.95   24.97
   2   7   9  518.87   25.30
  -2  -7 -10  304.53   19.18
  -2  -7 -10  304.60   25.17
   2   7  10  302.65   22.04
   2   7  10  276.83   22.04
  -2  -7 -11   86.36   14.83
  -2  -7 -11   63.66   16.06
   2   7  11   81.16   15.87
   2   7  11   79.27   16.39
  -2  -7 -12   30.82   12.03
  -2  -7 -12   34.66   14.57
   2   7  12   37.33   13.72
   2   7  12   23.48   12.75
  -2  -7 -13  263.37   24.32
  -2  -7 -13  284.83   29.91
   2   7  13  212.38   25.23
   2   7  13  265.77   27.51
  -2  -7 -14  189.49   24.13
  -2  -7 -14  170.51   26.60
   2   7  14  162.38   25.30
   2   7  14  177.85   26.08
  -2  -7 -15   -2.28   14.44
  -2  -7 -15   10.86   16.84
   2   7  15   12.94   14.76
   2   7  15   12.49   14.57
   2   7  15    8.13   15.22
  -2  -7 -16   80.70   21.13
  -2  -7 -16   76.86   23.41
   2   7  16   88.57   23.15
   2   7  16   74.98   19.64
   2   7  16   91.56   22.70
  -2  -7 -17  112.50   24.00
  -2  -7 -17  107.69   29.52
   2   7  17   97.28   25.82
  -2  -8  10   31.86   20.94
   2   8 -10   43.76   17.36
  -2  -8   9    4.29   11.51
  -2  -8   9   22.96   18.86
   2   8  -9   16.65   13.14
   2   8  -9   22.96   18.14
  -2  -8   8   63.92   15.87
  -2  -8   8   89.02   23.15
   2   8  -8   77.12   16.78
   2   8  -8  108.99   24.32
  -2  -8   7   76.67   16.19
  -2  -8   7   93.90   21.59
   2   8  -7   95.66   27.90
   2   8  -7   85.12   15.67
   2   8  -7   81.87   21.39
  -2  -8   6    9.82    9.95
  -2  -8   6   17.88   13.85
   2   8  -6    4.75    9.36
   2   8  -6    2.28    8.97
   2   8  -6    8.13   12.88
  -2  -8   5  342.90   24.45
  -2  -8   5  328.53   29.39
   2   8  -5  297.77   20.94
   2   8  -5  296.79   20.16
   2   8  -5  348.49   28.81
  -2  -8   4  320.92   23.02
  -2  -8   4  316.63   27.51
  -2  -8   4  321.24   18.60
   2   8  -4  318.51   18.79
   2   8  -4  322.54   26.01
  -2  -8   3  147.68   18.27
  -2  -8   3  150.35   21.59
  -2  -8   3  122.38   14.57
   2   8  -3  135.07   19.12
  -2  -8   2    5.79    7.09
  -2  -8   2   -5.53    8.32
  -2  -8   2    2.28    7.15
   2   8  -2   -8.32    6.31
   2   8  -2    0.13    7.80
  -2  -8   1  134.94   16.00
  -2  -8   1  133.31   18.53
  -2  -8   1  114.97   14.57
   2   8  -1  111.39   13.14
   2   8  -1  120.82   16.91
  -2  -8   0  261.22   19.44
  -2  -8   0  277.80   21.26
  -2  -8   0  251.99   18.40
   2   8   0  256.15   17.36
   2   8   0  266.29   19.90
  -2  -8  -1   21.39    8.71
  -2  -8  -1   18.08    9.62
  -2  -8  -1   10.01    8.45
  -2  -8  -1   16.65    8.13
   2   8   1   19.44    8.26
   2   8   1   12.55    8.19
  -2  -8  -2  169.34   16.78
  -2  -8  -2  186.31   17.69
  -2  -8  -2  170.38   16.71
  -2  -8  -2  170.83   16.84
   2   8   2  162.51   15.48
   2   8   2  177.20   15.15
   2   8   2  147.23   15.54
  -2  -8  -3  873.41   31.02
  -2  -8  -3  942.14   32.12
  -2  -8  -3  893.89   29.46
  -2  -8  -3  882.31   31.73
   2   8   3  876.66   30.56
   2   8   3  820.80   26.73
  -2  -8  -4  472.96   24.06
  -2  -8  -4  456.31   21.00
  -2  -8  -4  464.96   24.58
   2   8   4  444.80   19.70
  -2  -8  -5   27.70   10.21
  -2  -8  -5   27.18    9.36
   2   8   5   28.29    7.74
  -2  -8  -6  236.06   19.77
  -2  -8  -6  220.25   19.31
   2   8   6  203.54   13.72
  -2  -8  -7  543.25   26.92
  -2  -8  -7  519.26   27.31
   2   8   7  520.75   19.83
   2   8   7  505.60   18.73
   2   8   7  473.80   19.70
   2   8   7  493.64   20.35
  -2  -8  -8  243.34   21.13
  -2  -8  -8  213.23   20.87
   2   8   8  231.50   16.58
   2   8   8  204.32   16.39
   2   8   8  224.74   17.04
  -2  -8  -9  409.88   26.08
  -2  -8  -9  396.74   26.40
   2   8   9  373.14   21.65
   2   8   9  354.34   21.52
   2   8   9  374.89   22.30
  -2  -8 -10  678.06   33.82
   2   8  10  596.51   27.70
   2   8  10  574.53   28.35
  -2  -8 -11  173.04   17.17
  -2  -8 -11  196.97   24.91
   2   8  11  145.60   19.57
   2   8  11  151.65   20.55
  -2  -8 -12    0.59    9.75
  -2  -8 -12   16.52   13.66
   2   8  12    6.96   11.71
   2   8  12    6.96   11.51
  -2  -8 -13   74.65   16.26
  -2  -8 -13   69.26   20.29
   2   8  13   82.98   18.92
   2   8  13   51.96   16.19
  -2  -8 -14  156.52   22.11
  -2  -8 -14  127.13   24.26
   2   8  14  144.30   24.65
   2   8  14  120.30   23.15
  -2  -8 -15   17.75   14.83
  -2  -8 -15   29.13   18.14
   2   8  15    8.84   15.67
   2   8  15   -8.71   13.66
  -2  -8 -16   23.41   16.32
  -2  -8 -16   31.93   19.96
   2   8  16   51.89   20.87
   2   8  16   11.51   15.48
   2   8  16   41.23   18.86
  -2  -8 -17   26.08   18.14
  -2  -8 -17   40.19   21.98
   2   8  17   15.87   19.05
   2   8  17   26.47   17.43
   2   8  17   14.96   18.27
  -2  -9   9   37.07   21.33
   2   9  -9   18.21   14.83
  -2  -9   8   11.38   12.75
  -2  -9   8    5.79   17.04
   2   9  -8   -9.23   11.05
   2   9  -8    6.76   16.45
  -2  -9   7   90.59   18.92
  -2  -9   7   96.70   25.36
   2   9  -7   98.19   17.30
   2   9  -7  134.09   25.82
  -2  -9   6   68.22   16.00
  -2  -9   6   45.78   18.99
   2   9  -6   35.25   11.64
   2   9  -6   37.59   17.04
  -2  -9   5   65.48   15.93
  -2  -9   5   68.74   19.57
   2   9  -5   46.04   17.69
  -2  -9   4  275.20   23.48
  -2  -9   4  228.97   26.53
   2   9  -4  293.67   27.70
  -2  -9   3  112.70   17.82
  -2  -9   3  120.11   22.30
  -2  -9   3  119.20   15.74
   2   9  -3  122.77   19.51
  -2  -9   2  136.37   18.21
  -2  -9   2  179.94   23.41
  -2  -9   2  126.74   16.26
   2   9  -2  123.62   14.70
   2   9  -2  149.37   21.33
  -2  -9   1   14.96    9.62
  -2  -9   1   14.63   11.45
  -2  -9   1    9.95    8.26
   2   9  -1   20.61    9.43
   2   9  -1   22.04   10.53
  -2  -9   0  340.49   22.89
  -2  -9   0  304.53   24.13
  -2  -9   0  301.34   21.39
   2   9   0  325.15   20.35
   2   9   0  324.17   22.83
  -2  -9  -1  109.38   16.39
  -2  -9  -1  119.39   17.10
  -2  -9  -1  131.75   18.40
  -2  -9  -1  110.61   15.80
   2   9   1  124.73   15.28
   2   9   1  103.79   15.61
   2   9   1  105.02   15.74
  -2  -9  -2   11.64    8.91
  -2  -9  -2   13.92    9.88
  -2  -9  -2    9.43    9.23
  -2  -9  -2   15.28    9.04
   2   9   2   13.01    8.00
   2   9   2    8.45    8.26
   2   9   2   13.40    8.58
  -2  -9  -3  411.89   24.58
  -2  -9  -3  411.24   24.91
  -2  -9  -3  424.25   23.54
  -2  -9  -3  391.74   24.26
   2   9   3  393.56   23.02
   2   9   3  367.93   21.00
  -2  -9  -4 1112.32   37.59
  -2  -9  -4 1178.20   37.65
  -2  -9  -4 1096.00   33.42
  -2  -9  -4 1102.50   37.85
   2   9   4 1014.65   31.21
  -2  -9  -5  270.20   20.87
  -2  -9  -5  259.99   21.20
   2   9   5  224.61   16.32
  -2  -9  -6   56.97   13.59
  -2  -9  -6   29.59   10.34
   2   9   6   37.65    9.36
  -2  -9  -7   14.37    9.95
  -2  -9  -7   -1.17    7.54
   2   9   7    0.46    6.44
  -2  -9  -8  144.69   18.66
  -2  -9  -8  121.21   18.86
   2   9   8  128.63   14.24
   2   9   8  113.48   12.29
   2   9   8  129.80   14.50
   2   9   8  115.62   14.44
  -2  -9  -9    4.16   10.01
  -2  -9  -9    8.65   10.27
   2   9   9   13.20    8.97
   2   9   9   10.73    6.76
   2   9   9    7.15    8.84
   2   9   9    7.22    8.78
  -2  -9 -10   15.41   11.77
  -2  -9 -10    2.02   10.73
   2   9  10    7.09    9.43
   2   9  10    6.24    7.02
   2   9  10   -2.93    8.97
  -2  -9 -11    4.36   11.51
   2   9  11   15.87   11.32
   2   9  11   22.11   11.77
  -2  -9 -12   39.15   11.77
  -2  -9 -12   41.36   16.65
   2   9  12   45.33   15.54
   2   9  12   40.06   14.05
  -2  -9 -13  187.35   20.16
  -2  -9 -13  217.33   28.87
   2   9  13  194.50   25.36
   2   9  13  175.12   24.13
  -2  -9 -14   34.21   14.11
  -2  -9 -14   24.32   16.00
   2   9  14   17.75   15.28
   2   9  14   12.23   13.46
  -2  -9 -15   13.66   14.50
  -2  -9 -15   12.62   15.87
   2   9  15   35.96   18.53
   2   9  15   21.46   16.58
  -2  -9 -16    6.24   15.02
  -2  -9 -16   28.29   20.61
   2   9  16   16.39   17.82
   2   9  16   12.36   16.97
  -2  -9 -17   -2.67   21.33
  -2  -9 -17  -13.27   18.27
   2   9  17   13.85   19.44
   2   9  17    1.89   16.91
   2   9  17   15.93   17.30
  -2 -10   8   46.89   23.28
   2  10  -8   29.07   14.24
   2  10  -8   68.09   23.35
  -2 -10   7   44.22   15.74
  -2 -10   7   22.76   19.38
   2  10  -7   29.39   12.81
   2  10  -7   44.81   20.81
  -2 -10   6   10.99   11.38
  -2 -10   6   -0.72   15.22
   2  10  -6   25.75   17.30
  -2 -10   5   65.35   16.65
  -2 -10   5  102.16   23.54
   2  10  -5   98.84   22.70
  -2 -10   4   45.07   14.37
  -2 -10   4   61.13   19.38
   2  10  -4   67.63   18.21
  -2 -10   3    3.06    9.36
  -2 -10   3    7.02   14.05
   2  10  -3   10.60   12.88
  -2 -10   2    7.09   10.14
  -2 -10   2    1.69   12.10
  -2 -10   2    9.17    9.43
   2  10  -2    9.75   11.71
  -2 -10   1  -12.42    7.48
  -2 -10   1   -5.72    9.69
  -2 -10   1   -0.33    8.65
   2  10  -1    1.04    8.45
   2  10  -1   -0.78    9.69
  -2 -10   0   60.87   14.57
  -2 -10   0   66.91   16.65
  -2 -10   0   49.68   13.07
   2  10   0   46.17   12.55
   2  10   0   44.48   13.66
   2  10   0   41.94   12.94
  -2 -10  -1  174.54   20.22
  -2 -10  -1  186.18   21.65
  -2 -10  -1  180.52   20.09
   2  10   1  188.71   18.53
   2  10   1  169.86   20.16
   2  10   1  200.61   19.90
  -2 -10  -2   31.67   11.90
  -2 -10  -2   21.65   12.03
  -2 -10  -2   28.94   12.10
  -2 -10  -2   32.32   12.03
   2  10   2   26.47   10.34
   2  10   2   25.30   11.12
   2  10   2   32.58   10.66
  -2 -10  -3  209.46   21.13
  -2 -10  -3  200.68   20.94
  -2 -10  -3  187.87   19.96
  -2 -10  -3  226.95   21.59
   2  10   3  199.57   19.25
   2  10   3  148.27   17.17
   2  10   3  156.98   17.23
  -2 -10  -4  611.53   31.21
  -2 -10  -4  617.19   30.24
  -2 -10  -4  619.60   31.67
   2  10   4  591.31   26.92
  -2 -10  -5 1311.25   41.16
  -2 -10  -5 1240.30   42.92
   2  10   5 1201.54   35.64
  -2 -10  -6    5.59   10.01
  -2 -10  -6   22.37   11.64
   2  10   6   13.85    8.91
  -2 -10  -7  139.03   19.57
  -2 -10  -7  137.73   20.87
   2  10   7  133.18   14.89
  -2 -10  -8  103.92   17.43
  -2 -10  -8   90.52   18.53
   2  10   8   92.15   13.01
   2  10   8   88.18   13.66
  -2 -10  -9    7.35   10.40
  -2 -10  -9    6.44   10.60
   2  10   9   -1.37    8.84
   2  10   9   10.27    7.28
   2  10   9   12.94    9.56
  -2 -10 -10   56.77   15.22
  -2 -10 -10   66.52   17.43
   2  10  10   50.85   13.07
   2  10  10   44.35   10.60
   2  10  10   33.49   12.10
  -2 -10 -11  239.83   25.62
  -2 -10 -11  225.00   26.08
   2  10  11  245.61   22.96
   2  10  11  201.92   21.59
  -2 -10 -12  147.42   24.78
   2  10  12  174.28   23.15
   2  10  12  133.70   20.42
  -2 -10 -13   65.61   19.96
   2  10  13   60.22   17.23
   2  10  13   64.18   17.62
  -2 -10 -14    0.59   14.24
   2  10  14    6.18   14.31
   2  10  14    2.80   12.75
  -2 -10 -15   72.44   24.06
   2  10  15   57.36   20.55
   2  10  15   43.37   18.34
  -2 -10 -16  128.76   26.79
   2  10  16   97.09   25.75
   2  10  16  126.55   26.34
  -2 -10 -17  -18.66   18.14
   2  10  17   -4.36   18.21
   2  10  17  -10.53   16.06
  -2 -11   6   61.78   17.88
  -2 -11   6  114.32   27.51
   2  11  -6   96.63   25.75
  -2 -11   5   50.98   16.71
  -2 -11   5   54.43   21.33
   2  11  -5   49.23   20.42
  -2 -11   4   -1.50   10.53
  -2 -11   4   -4.62   15.02
   2  11  -4   13.07   15.80
  -2 -11   3  111.39   20.81
  -2 -11   3  114.58   23.93
   2  11  -3  101.38   21.13
  -2 -11   2   94.23   18.99
  -2 -11   2  107.49   22.76
   2  11  -2  108.01   21.72
   2  11  -2   86.75   19.12
  -2 -11   1   88.11   17.75
  -2 -11   1   82.07   20.68
  -2 -11   1  100.99   17.17
   2  11  -1   67.63   17.69
   2  11  -1  113.41   21.00
  -2 -11   0   63.27   16.00
  -2 -11   0   70.17   18.66
  -2 -11   0   68.09   15.61
   2  11   0  106.58   17.62
   2  11   0   76.73   18.21
   2  11   0   72.44   16.84
  -2 -11  -1  216.74   23.09
  -2 -11  -1  211.54   24.97
  -2 -11  -1  217.13   22.96
   2  11   1  214.40   21.07
   2  11   1  207.31   25.62
   2  11   1  253.22   23.09
  -2 -11  -2   36.48   12.49
  -2 -11  -2   27.70   12.36
  -2 -11  -2   30.76   13.79
  -2 -11  -2   20.81   12.03
   2  11   2   42.01   12.88
   2  11   2   25.43   12.62
   2  11   2   36.03   12.23
  -2 -11  -3  193.92   22.17
  -2 -11  -3  239.96   23.28
  -2 -11  -3  208.74   22.76
   2  11   3  228.38   21.46
   2  11   3  168.75   20.29
   2  11   3  208.81   19.83
  -2 -11  -4   44.48   14.31
  -2 -11  -4   48.51   14.11
  -2 -11  -4   44.28   14.89
   2  11   4   48.77   12.94
   2  11   4   39.34   11.77
  -2 -11  -5    6.96   10.34
  -2 -11  -5   -3.45   10.08
   2  11   5   11.97    9.36
  -2 -11  -6   15.87   10.92
  -2 -11  -6   12.36   12.36
   2  11   6   14.70   10.01
  -2 -11  -7   15.09   10.73
  -2 -11  -7   10.79   11.12
   2  11   7    6.89    8.65
  -2 -11  -8    9.75   10.66
  -2 -11  -8    6.11   10.99
   2  11   8   -0.07    7.67
  -2 -11  -9   38.24   14.31
  -2 -11  -9   29.33   14.70
   2  11   9   23.35    9.30
  -2 -11 -10   -2.41   11.71
  -2 -11 -10   -1.69   11.32
   2  11  10    5.72   10.21
   2  11  10    5.01   10.14
  -2 -11 -11   25.23   15.28
  -2 -11 -11   46.63   16.91
   2  11  11   47.47   14.50
   2  11  11   34.53   12.68
  -2 -11 -12   69.91   18.47
  -2 -11 -12   52.35   17.88
   2  11  12   62.10   16.00
   2  11  12   48.97   15.02
  -2 -11 -13   76.54   20.81
   2  11  13   84.67   20.42
   2  11  13   84.73   18.66
  -2 -11 -14   27.25   18.14
   2  11  14   54.69   18.86
   2  11  14   48.64   17.82
  -2 -11 -15    1.82   15.54
   2  11  15    2.60   16.78
   2  11  15   12.62   15.41
  -2 -11 -16  125.18   26.66
   2  11  16   95.27   25.04
   2  11  16  114.52   24.97
   2  12  -5   89.15   24.97
   2  12  -5  142.61   28.16
  -2 -12   4   62.04   17.62
  -2 -12   4   67.89   23.48
   2  12  -4   57.55   21.33
   2  12  -4   64.83   21.39
  -2 -12   3   23.41   14.37
  -2 -12   3   33.03   19.83
   2  12  -3   33.10   18.86
   2  12  -3   27.05   17.49
  -2 -12   2   80.96   18.92
  -2 -12   2  121.02   25.43
   2  12  -2   75.95   22.11
   2  12  -2  121.67   23.22
  -2 -12   1  276.50   27.83
  -2 -12   1  261.22   30.37
  -2 -12   1  283.66   27.51
   2  12  -1  278.65   30.56
   2  12  -1  319.81   30.37
  -2 -12   0   78.43   18.27
  -2 -12   0   99.88   22.70
  -2 -12   0   85.45   17.75
   2  12   0   68.28   19.25
   2  12   0   90.26   19.51
  -2 -12  -1   55.60   16.13
  -2 -12  -1   59.76   18.53
  -2 -12  -1   60.80   16.78
   2  12   1   71.01   17.10
   2  12   1   55.14   18.47
   2  12   1   56.51   15.74
  -2 -12  -2    8.39   11.05
  -2 -12  -2   13.92   12.49
   2  12   2   10.92   12.03
   2  12   2   12.88   12.42
   2  12   2   13.92   10.86
  -2 -12  -3   15.15   11.38
  -2 -12  -3   24.06   12.88
  -2 -12  -3   33.42   14.18
   2  12   3   20.55   12.68
   2  12   3   14.57   11.90
   2  12   3   25.56   11.97
  -2 -12  -4   18.60   11.51
  -2 -12  -4   13.92   12.36
  -2 -12  -4   22.17   13.27
   2  12   4   23.22   12.55
   2  12   4   17.30   11.90
   2  12   4    8.84    9.49
  -2 -12  -5   88.50   17.95
  -2 -12  -5   52.35   15.87
   2  12   5   84.86   16.13
   2  12   5   68.54   14.24
  -2 -12  -6  264.99   25.30
  -2 -12  -6  212.91   25.69
   2  12   6  187.41   20.48
   2  12   6  225.72   20.29
  -2 -12  -7   14.05   11.51
  -2 -12  -7   11.71   12.42
   2  12   7    0.78    8.97
  -2 -12  -8   34.99   14.57
  -2 -12  -8   36.94   15.02
   2  12   8   22.57   10.92
  -2 -12  -9   59.70   16.26
  -2 -12  -9   36.81   14.57
   2  12   9   36.22   11.84
  -2 -12 -10   78.49   18.27
  -2 -12 -10   46.95   17.04
  -2 -12 -11  122.58   23.15
  -2 -12 -11   95.40   21.26
   2  12  11  133.70   19.38
  -2 -12 -12   12.03   14.76
  -2 -12 -12   11.84   14.83
   2  12  12    8.97   12.55
  -2 -12 -13  229.75   30.30
   2  12  13  209.85   25.36
  -2 -12 -14  137.86   25.75
   2  12  14  151.19   27.64
   2  12  14  158.93   24.97
  -2 -12 -15   34.92   20.22
   2  12  15    5.33   16.97
   2  12  15   23.22   16.71
   2  12  16   40.06   22.37
  -2 -13   3   -6.63   13.01
  -2 -13   3  -16.78   15.54
   2  13  -3    1.50   16.91
   2  13  -3   -7.93   16.19
  -2 -13   2    7.48   12.88
   2  13  -2    4.88   16.26
   2  13  -2    2.86   16.32
  -2 -13   1  158.09   25.43
   2  13  -1  157.37   27.25
   2  13  -1  202.11   28.48
  -2 -13   0  225.85   27.31
  -2 -13   0  211.28   27.25
   2  13   0  221.29   30.76
   2  13   0  226.56   28.94
  -2 -13  -1   90.26   20.74
  -2 -13  -1  127.33   22.04
   2  13   1  128.11   24.71
   2  13   1  112.50   20.81
  -2 -13  -2   26.53   14.44
  -2 -13  -2   32.90   16.00
   2  13   2   40.64   15.48
   2  13   2   37.07   16.32
   2  13   2   37.00   14.31
  -2 -13  -3  122.45   22.11
  -2 -13  -3  102.62   21.65
   2  13   3  106.00   19.83
   2  13   3   89.15   20.29
   2  13   3  122.19   19.31
  -2 -13  -4  247.50   27.51
  -2 -13  -4  293.74   28.16
  -2 -13  -4  264.54   28.35
   2  13   4  317.54   27.25
   2  13   4  275.98   27.05
   2  13   4  279.56   24.45
  -2 -13  -5    4.94   12.75
  -2 -13  -5   14.18   13.59
  -2 -13  -5    9.56   13.53
   2  13   5   14.37   13.53
   2  13   5   10.01   11.64
   2  13   5    4.42   10.99
  -2 -13  -6  352.65   29.85
  -2 -13  -6  310.84   30.56
   2  13   6  294.97   26.21
  -2 -13  -7  307.26   28.94
  -2 -13  -7  303.49   30.63
   2  13   7  265.12   24.71
  -2 -13  -8  114.19   20.81
  -2 -13  -8  102.23   21.78
   2  13   8  100.47   18.27
  -2 -13  -9   14.89   13.53
  -2 -13  -9   10.66   13.33
  -2 -13 -10  104.31   21.00
  -2 -13 -10  106.32   22.63
  -2 -13 -11   81.94   20.09
  -2 -13 -11   61.97   19.18
   2  13  11   83.50   16.65
  -2 -13 -12   -2.21   13.85
  -2 -13 -12    8.06   15.61
   2  13  12   -8.78   11.05
  -2 -13 -13   33.82   18.73
  -2 -13 -13   47.15   20.03
   2  13  13   56.58   16.71
  -2 -13 -14  163.35   27.90
   2  13  14  127.07   22.57
  -2 -13 -15   62.43   21.91
   2  13  15   56.32   18.66
  -2 -14   0   83.24   20.94
   2  14   0   94.16   24.19
   2  14   0  115.69   32.97
  -2 -14  -1  218.24   29.72
  -2 -14  -1  255.24   31.21
   2  14   1  237.81   32.51
  -2 -14  -2    4.23   12.03
  -2 -14  -2    5.20   14.44
   2  14   2    3.64   14.18
  -2 -14  -3    2.67   13.79
  -2 -14  -3   27.38   16.65
   2  14   3    6.50   13.40
   2  14   3  -12.88   12.03
  -2 -14  -4  222.40   30.11
  -2 -14  -4  278.19   31.15
   2  14   4  283.01   28.94
   2  14   4  257.97   29.65
  -2 -14  -5   62.82   19.90
  -2 -14  -5   80.90   19.70
  -2 -14  -5   74.72   21.52
   2  14   5   90.52   20.81
   2  14   5   89.94   19.77
  -2 -14  -6   31.99   15.61
  -2 -14  -6   42.98   18.53
   2  14   6   43.76   17.75
   2  14   6   33.29   15.54
  -2 -14  -7  206.92   27.05
  -2 -14  -7  145.14   26.92
   2  14   7  154.18   23.35
  -2 -14  -8  120.50   23.87
  -2 -14  -8  101.84   22.37
  -2 -14  -9   12.23   14.44
  -2 -14  -9    3.97   15.09
  -2 -14 -10   79.47   20.61
  -2 -14 -10   51.76   20.48
  -2 -14 -11  160.88   26.40
  -2 -14 -11  124.99   25.43
  -2 -14 -12   20.16   16.39
  -2 -14 -12    6.05   16.78
  -2 -14 -13   10.01   16.71
  -2 -14 -13   15.87   18.27
   2  14  13  -13.79   12.29
  -2 -15  -3    7.15   14.57
  -2 -15  -3   11.84   16.39
   2  15   3   14.18   17.04
  -2 -15  -4   69.26   20.42
  -2 -15  -4   96.83   23.74
   2  15   4   49.10   19.38
   2  15   4   86.81   22.24
  -2 -15  -5  118.94   26.40
   2  15   5  141.70   26.01
   2  15   5  124.92   24.58
  -2 -15  -6   11.97   16.97
   2  15   6   11.51   15.67
   2  15   6   24.32   15.87
  -2 -15  -7   35.05   18.79
   2  15   7   37.20   19.18
  -2 -15  -8   76.67   22.89
  -2 -15  -9   10.66   16.19
  -2 -15 -10   24.84   18.60
  -2 -15 -11   -9.36   15.41
  -3  13  10    3.71   19.51
  -3  13  10   -0.59   14.57
   3 -13 -10    2.15   16.84
  -3  13   9   63.60   23.74
  -3  13   9   68.02   19.05
   3 -13  -9   77.25   23.93
   3 -13  -9   88.44   24.39
  -3  13   8  154.77   31.02
  -3  13   8  160.69   24.00
   3 -13  -8  225.07   33.42
   3 -13  -8  153.21   29.59
  -3  13   7   -1.63   19.18
  -3  13   7   18.14   15.09
   3 -13  -7    1.89   17.23
   3 -13  -7    9.04   17.62
  -3  13   6  101.19   24.58
  -3  13   6   91.82   19.90
   3 -13  -6  109.83   26.34
   3 -13  -6  122.38   25.43
  -3  13   5   82.85   22.83
  -3  13   5  120.04   20.68
   3 -13  -5  142.48   28.81
   3 -13  -5  132.53   26.34
  -3  13   4   33.03   19.12
  -3  13   4   42.85   16.06
   3 -13  -4   83.76   26.14
   3 -13  -4   41.42   19.12
  -3  13   3    4.94   18.14
  -3  13   3    5.27   14.24
   3 -13  -3   12.42   18.79
   3 -13  -3   12.23   16.52
  -3  12  13   -4.29   16.65
  -3  12  13   -6.44   18.92
  -3  12  13    3.25   16.19
   3 -12 -13   -2.08   17.69
  -3  12  12  123.82   25.10
  -3  12  12  103.66   25.95
  -3  12  12  125.77   24.97
   3 -12 -12  134.74   28.29
  -3  12  11   19.44   17.30
  -3  12  11   38.56   21.98
  -3  12  11   24.84   16.32
   3 -12 -11   54.88   22.04
  -3  12  10   -1.30   15.28
  -3  12  10   -0.65   16.91
  -3  12  10  -10.08   11.77
   3 -12 -10    4.16   16.26
  -3  12   9    3.77   16.26
  -3  12   9    6.44   17.62
  -3  12   9   19.38   14.24
   3 -12  -9   -1.89   14.37
   3 -12  -9    0.00   16.19
  -3  12   8   88.05   24.71
  -3  12   8   96.63   19.83
   3 -12  -8  138.51   26.47
   3 -12  -8   88.89   24.13
  -3  12   7   18.53   17.95
  -3  12   7   37.20   15.48
   3 -12  -7   40.58   18.99
   3 -12  -7   50.27   18.66
  -3  12   6   31.93   18.14
  -3  12   6   42.33   15.48
   3 -12  -6   19.12   18.08
   3 -12  -6   37.85   17.75
  -3  12   5  276.11   32.71
  -3  12   5  258.75   26.01
   3 -12  -5  269.81   32.90
   3 -12  -5  243.47   31.15
  -3  12   4   96.24   22.24
  -3  12   4  103.46   19.38
   3 -12  -4  149.57   27.51
   3 -12  -4  124.53   24.84
  -3  12   3   25.62   16.19
  -3  12   3   18.14   14.05
   3 -12  -3   22.96   18.21
   3 -12  -3   23.35   16.26
  -3  12   2   15.02   18.53
  -3  12   2   27.70   14.31
   3 -12  -2   -3.19   15.74
   3 -12  -2    5.01   14.18
  -3  12   1   11.38   18.92
  -3  12   1   25.23   14.76
   3 -12  -1   17.69   17.49
   3 -12  -1   21.39   15.15
  -3  12   0   25.56   19.96
  -3  12   0   23.15   15.15
   3 -12   0   23.48   18.01
   3 -12   0   25.56   16.13
  -3  11  14   12.88   17.95
  -3  11  14   12.68   18.79
  -3  11  14    5.20   15.93
   3 -11 -14   -3.38   19.12
  -3  11  13  -10.73   15.28
  -3  11  13    2.73   17.30
  -3  11  13  -10.73   14.05
   3 -11 -13   -0.39   16.71
  -3  11  12  133.63   25.36
  -3  11  12  120.37   25.30
  -3  11  12  112.89   23.35
   3 -11 -12  102.75   24.19
  -3  11  11   78.56   21.26
  -3  11  11   92.15   23.22
  -3  11  11   74.33   20.48
   3 -11 -11   84.86   22.57
  -3  11  10   43.11   17.30
  -3  11  10   63.86   20.61
  -3  11  10   53.71   17.30
   3 -11 -10   62.43   21.39
  -3  11   9  112.83   21.33
  -3  11   9  108.99   24.13
  -3  11   9  103.98   20.03
   3 -11  -9   93.32   22.04
  -3  11   8  476.21   32.25
  -3  11   8  494.09   37.91
  -3  11   8  484.14   31.80
   3 -11  -8  507.68   37.33
   3 -11  -8  478.03   37.78
  -3  11   7  201.85   25.23
  -3  11   7  195.67   28.55
  -3  11   7  233.13   25.75
   3 -11  -7  249.78   29.65
   3 -11  -7  237.55   31.80
  -3  11   6   13.07   12.81
  -3  11   6   -9.10   12.75
  -3  11   6    2.67   12.29
   3 -11  -6   -6.05   12.88
   3 -11  -6    6.37   13.07
  -3  11   5  195.22   24.06
  -3  11   5  205.43   27.83
  -3  11   5  189.04   23.41
   3 -11  -5  255.11   30.50
   3 -11  -5  230.66   29.59
  -3  11   4  268.64   28.87
  -3  11   4  252.64   29.78
  -3  11   4  231.05   24.71
   3 -11  -4  296.08   32.32
   3 -11  -4  281.71   30.30
  -3  11   3  207.05   29.26
  -3  11   3  271.04   26.08
   3 -11  -3  254.33   31.21
   3 -11  -3  288.14   30.24
  -3  11   2   37.78   17.23
  -3  11   2   13.59   13.14
   3 -11  -2   13.66   16.65
   3 -11  -2   38.24   16.84
  -3  11   1   49.75   19.31
  -3  11   1   45.59   15.09
   3 -11  -1   61.26   19.77
   3 -11  -1   52.93   17.82
  -3  11   0  112.76   24.84
  -3  11   0   87.27   18.86
   3 -11   0   79.14   22.70
   3 -11   0  104.96   22.17
  -3  11  -1   12.16   16.58
  -3  11  -1    1.50   13.40
   3 -11   1   -5.46   15.09
   3 -11   1    1.95   13.40
  -3  11  -2    6.50   17.49
  -3  11  -2   16.13   15.02
   3 -11   2   -0.20   16.19
   3 -11   2    2.60   13.72
  -3  11  -3    1.76   18.99
  -3  11  -3    9.88   15.80
   3 -11   3   14.50   18.73
  -3  10  15   45.39   21.59
  -3  10  15   18.60   19.25
  -3  10  15   26.40   18.79
   3 -10 -15   27.38   20.48
  -3  10  14   54.95   21.07
  -3  10  14   58.98   21.78
  -3  10  14   38.63   19.18
   3 -10 -14   36.74   20.48
  -3  10  13   23.28   17.17
  -3  10  13   32.84   18.60
  -3  10  13   29.46   17.17
   3 -10 -13   35.31   19.05
  -3  10  12    3.64   15.54
  -3  10  12   11.90   15.28
  -3  10  12   16.58   16.00
   3 -10 -12   11.51   15.93
  -3  10  11   -0.20   13.66
  -3  10  11   27.31   16.58
  -3  10  11    6.31   14.18
   3 -10 -11   30.76   17.04
  -3  10  10    9.82   13.53
  -3  10  10   13.59   14.57
  -3  10  10    7.15   13.01
   3 -10 -10   29.07   16.84
  -3  10   9   -6.37   11.58
  -3  10   9    6.05   13.98
  -3  10   9   -6.18   11.45
   3 -10  -9   13.53   14.50
  -3  10   8   72.83   16.91
  -3  10   8   63.08   18.99
  -3  10   8   62.95   16.65
   3 -10  -8   77.71   18.79
   3 -10  -8  101.97   20.81
  -3  10   7   19.96   13.20
  -3  10   7   19.70   15.74
  -3  10   7   33.82   13.98
   3 -10  -7   26.86   14.83
   3 -10  -7   31.93   15.09
  -3  10   6  156.92   21.52
  -3  10   6  166.02   25.10
  -3  10   6  149.63   20.55
   3 -10  -6  154.51   23.54
   3 -10  -6  128.37   22.89
  -3  10   5  175.51   22.44
  -3  10   5  163.35   24.45
  -3  10   5  179.03   21.91
   3 -10  -5  173.56   25.69
   3 -10  -5  223.90   29.33
  -3  10   4   26.99   13.92
  -3  10   4   33.36   14.11
  -3  10   4   25.04   12.42
   3 -10  -4   30.50   15.48
   3 -10  -4   44.15   15.67
  -3  10   3    1.04   11.58
  -3  10   3    7.54   11.58
  -3  10   3   10.27   11.77
   3 -10  -3   -2.47   12.42
   3 -10  -3   -5.14   11.77
  -3  10   2   76.15   17.23
  -3  10   2   70.43   19.77
  -3  10   2   93.90   17.62
   3 -10  -2   87.79   20.22
   3 -10  -2   74.85   17.88
  -3  10   1  131.23   20.29
  -3  10   1  144.49   24.78
  -3  10   1  139.49   19.57
   3 -10  -1  166.93   27.18
   3 -10  -1  152.75   24.19
  -3  10   0   -1.30   12.55
  -3  10   0   10.60   13.98
  -3  10   0    6.70   12.23
   3 -10   0   -1.95   12.68
   3 -10   0  -11.77   10.73
  -3  10  -1   44.67   16.45
  -3  10  -1   82.46   21.20
  -3  10  -1   50.14   16.32
   3 -10   1   61.19   20.29
   3 -10   1   72.96   19.25
  -3  10  -2   35.57   19.38
  -3  10  -2   40.51   17.04
   3 -10   2   29.26   18.47
   3 -10   2   27.57   14.44
  -3  10  -3   -5.59   15.74
  -3  10  -3  -10.60   12.55
   3 -10   3   -4.62   15.22
   3 -10   3    0.91   12.94
  -3  10  -4   37.39   21.59
  -3  10  -4   34.21   16.65
   3 -10   4   25.95   19.05
  -3  10  -5  126.35   28.74
  -3   9  16   22.37   19.31
  -3   9  16   25.75   21.13
  -3   9  16   14.37   19.31
   3  -9 -16   46.56   18.08
  -3   9  15   -0.98   15.54
  -3   9  15    8.26   18.40
  -3   9  15   -6.63   16.00
   3  -9 -15    4.68   14.63
   3  -9 -15   -3.64   16.84
  -3   9  14    7.15   15.87
  -3   9  14   10.92   16.00
  -3   9  14   -7.35   14.11
   3  -9 -14   21.85   14.44
   3  -9 -14   21.26   17.75
  -3   9  13    1.11   14.96
  -3   9  13   13.98   16.91
  -3   9  13   19.38   15.93
   3  -9 -13   14.31   12.75
   3  -9 -13    1.95   15.15
  -3   9  12   19.96   15.22
  -3   9  12   29.59   17.69
  -3   9  12   23.41   15.09
   3  -9 -12   25.10   12.16
   3  -9 -12   28.74   16.52
  -3   9  11    1.17   13.27
  -3   9  11   13.59   14.89
  -3   9  11   10.34   13.79
   3  -9 -11    8.97   10.47
   3  -9 -11    9.95   14.50
  -3   9  10   11.25   13.07
  -3   9  10   -8.71   12.29
  -3   9  10    3.58   12.10
   3  -9 -10    6.70    9.23
   3  -9 -10   -1.50   13.27
  -3   9   9  109.38   18.92
  -3   9   9  157.18   24.52
  -3   9   9  119.07   20.74
   3  -9  -9  134.94   16.71
   3  -9  -9  155.61   24.58
  -3   9   8  189.88   23.15
  -3   9   8  163.22   23.67
  -3   9   8  195.15   23.35
   3  -9  -8  195.48   17.30
   3  -9  -8  217.20   25.56
   3  -9  -8  236.64   26.79
  -3   9   7    5.53   11.58
  -3   9   7    3.32   12.16
  -3   9   7   -6.76    9.62
   3  -9  -7   -2.93   10.99
   3  -9  -7   -4.29   10.86
  -3   9   6  148.53   20.03
  -3   9   6  153.01   24.06
  -3   9   6  127.46   18.66
   3  -9  -6  155.22   23.35
   3  -9  -6  147.16   22.50
  -3   9   5  143.65   19.70
  -3   9   5  117.57   21.00
  -3   9   5  121.80   18.14
   3  -9  -5  151.58   22.44
   3  -9  -5  132.66   21.46
  -3   9   4   -1.63   10.21
  -3   9   4    1.82   10.14
  -3   9   4    3.19   10.34
   3  -9  -4    0.46   10.40
   3  -9  -4   -4.29   10.53
  -3   9   3  171.74   20.68
  -3   9   3  158.80   22.24
  -3   9   3  181.43   20.81
   3  -9  -3  187.54   25.69
   3  -9  -3  212.84   26.47
  -3   9   2  119.46   18.08
  -3   9   2  102.55   20.09
  -3   9   2  110.94   17.10
   3  -9  -2  166.80   25.10
   3  -9  -2  133.37   21.07
  -3   9   1   72.77   16.32
  -3   9   1   73.94   17.69
  -3   9   1   86.16   16.91
   3  -9  -1   96.83   20.74
   3  -9  -1   61.91   16.71
  -3   9   0    9.10   11.64
  -3   9   0    1.30   12.29
  -3   9   0   -0.13   10.99
   3  -9   0    2.08   11.77
   3  -9   0   -4.42    9.49
  -3   9  -1   63.73   16.06
  -3   9  -1   91.24   22.30
  -3   9  -1   78.62   17.23
   3  -9   1   72.90   20.09
   3  -9   1   81.35   17.82
  -3   9  -2   24.19   13.98
  -3   9  -2   22.50   15.74
  -3   9  -2   32.25   14.24
   3  -9   2   10.08   15.15
   3  -9   2   20.81   13.14
  -3   9  -3   12.03   13.85
  -3   9  -3   -3.12   15.28
  -3   9  -3    3.84   12.49
   3  -9   3   -2.60   13.14
   3  -9   3   16.97   12.94
  -3   9  -4   14.05   15.67
  -3   9  -4   25.95   18.40
  -3   9  -4   37.98   16.00
   3  -9   4   21.46   15.28
   3  -9   4   26.47   13.59
  -3   9  -5  161.53   25.23
  -3   9  -5  158.67   28.16
  -3   9  -5  125.96   22.89
   3  -9   5  187.67   30.50
  -3   9  -6   24.13   18.79
  -3   9  -6   18.14   20.35
  -3   9  -6   34.73   18.01
   3  -9   6   27.44   18.53
  -3   8  16  101.32   25.49
  -3   8  16  121.28   27.44
   3  -8 -16  110.55   23.02
  -3   8  15   14.63   16.26
  -3   8  15   45.20   19.12
  -3   8  15   52.48   20.87
   3  -8 -15   63.92   19.70
   3  -8 -15   57.81   19.77
  -3   8  14    2.67   14.05
  -3   8  14   -4.23   14.57
  -3   8  14    1.04   15.15
   3  -8 -14   -4.55   12.62
   3  -8 -14    5.14   14.96
  -3   8  13   26.92   16.06
  -3   8  13   36.48   17.43
  -3   8  13   25.04   13.92
  -3   8  13   31.28   17.36
   3  -8 -13   20.94   13.79
   3  -8 -13    8.06   15.28
  -3   8  12  106.78   21.33
  -3   8  12   95.92   20.94
  -3   8  12  103.33   21.52
   3  -8 -12  103.98   18.73
   3  -8 -12  133.18   22.76
  -3   8  11   28.09   15.41
  -3   8  11   35.83   16.45
  -3   8  11    9.36   13.20
   3  -8 -11   15.54   11.19
   3  -8 -11   16.97   13.85
  -3   8  10   11.84   13.01
  -3   8  10   -2.47   11.71
  -3   8  10   13.27   13.27
   3  -8 -10    8.06    9.69
   3  -8 -10    7.22   12.55
  -3   8   9  293.61   25.23
  -3   8   9  275.20   27.31
  -3   8   9  257.45   25.30
   3  -8  -9  273.19   20.87
   3  -8  -9  303.88   28.03
  -3   8   8  443.50   27.90
  -3   8   8  430.43   30.50
  -3   8   8  405.26   27.83
   3  -8  -8  413.85   22.76
   3  -8  -8  464.11   31.73
  -3   8   7   40.19   12.88
  -3   8   7   51.89   15.48
  -3   8   7   43.44   13.85
   3  -8  -7   44.22   10.47
   3  -8  -7   37.13   13.53
   3  -8  -7   52.28   15.15
  -3   8   6  139.10   18.66
  -3   8   6  143.65   21.00
  -3   8   6  139.68   18.99
   3  -8  -6  122.97   14.44
   3  -8  -6  178.89   22.11
   3  -8  -6  161.21   22.11
  -3   8   5  520.49   27.38
  -3   8   5  494.74   30.63
  -3   8   5  524.78   27.96
   3  -8  -5  558.60   31.41
   3  -8  -5  501.83   30.76
  -3   8   4  173.69   19.31
  -3   8   4  172.65   21.33
  -3   8   4  152.10   19.12
   3  -8  -4  196.91   22.44
   3  -8  -4  195.54   22.24
  -3   8   3   56.71   13.85
  -3   8   3   39.73   13.14
  -3   8   3   56.51   13.92
   3  -8  -3   42.79   13.85
   3  -8  -3   69.19   15.54
  -3   8   2  418.07   24.58
  -3   8   2  417.68   29.39
  -3   8   2  420.74   25.69
   3  -8  -2  445.71   30.04
   3  -8  -2  413.78   28.03
  -3   8   1  455.66   26.01
  -3   8   1  432.44   30.37
  -3   8   1  426.27   26.27
   3  -8  -1  460.15   30.56
   3  -8  -1  458.52   29.26
  -3   8   0  355.25   24.78
  -3   8   0  358.05   29.78
  -3   8   0  326.45   24.65
   3  -8   0  329.18   27.51
   3  -8   0  313.64   25.95
  -3   8  -1    3.51   10.86
  -3   8  -1   -9.36   11.71
  -3   8  -1    9.04   11.38
   3  -8   1   -5.46   10.92
   3  -8   1   -2.02    9.62
  -3   8  -2    4.68   11.25
  -3   8  -2   -7.48   11.19
  -3   8  -2    1.24   10.86
   3  -8   2    9.49   12.75
   3  -8   2   -2.93    9.62
  -3   8  -3   29.46   14.44
  -3   8  -3   21.39   15.02
  -3   8  -3   26.86   14.37
   3  -8   3   11.25   12.68
   3  -8   3   28.22   13.33
  -3   8  -4  105.41   19.96
  -3   8  -4  113.80   22.76
  -3   8  -4   98.19   19.12
   3  -8   4   73.22   19.12
   3  -8   4   86.42   18.01
  -3   8  -5   19.38   15.28
  -3   8  -5   12.88   15.54
  -3   8  -5   10.66   15.02
   3  -8   5   19.05   15.22
   3  -8   5   16.13   11.90
  -3   8  -6   90.59   22.57
  -3   8  -6   82.07   22.63
  -3   8  -6   72.18   19.70
   3  -8   6   98.78   22.37
  -3   8  -7   64.44   22.04
  -3   8  -7   74.33   22.44
  -3   8  -7   47.54   19.44
   3  -8   7   57.16   19.51
  -3   8  -8  -18.21   18.21
  -3   8  -8    5.01   17.43
  -3   8  -8   12.68   17.75
   3  -8   8    3.45   15.02
  -3   7  16   19.05   19.12
  -3   7  16   -3.32   17.88
   3  -7 -16   15.67   16.45
   3  -7 -16    4.10   14.83
  -3   7  15    1.11   16.06
  -3   7  15   51.37   19.90
  -3   7  15   31.73   19.64
   3  -7 -15   46.50   17.49
   3  -7 -15   46.24   17.56
  -3   7  14   26.08   16.71
  -3   7  14   20.74   16.32
  -3   7  14   21.26   15.48
   3  -7 -14   14.44   13.66
   3  -7 -14    4.29   12.23
   3  -7 -14   10.99   14.83
  -3   7  13    1.17   13.14
  -3   7  13   12.75   14.31
  -3   7  13    9.56   11.51
  -3   7  13   -8.52   12.42
   3  -7 -13   -1.56   11.05
   3  -7 -13    2.60   11.05
   3  -7 -13    5.33   12.36
  -3   7  12    9.49   13.07
  -3   7  12   35.77   16.84
  -3   7  12   42.59   14.50
  -3   7  12   23.54   14.83
   3  -7 -12   23.22   12.81
   3  -7 -12   43.37   13.40
   3  -7 -12   46.50   15.61
  -3   7  11    7.67   12.36
  -3   7  11   22.37   13.14
  -3   7  11    0.26   11.58
   3  -7 -11   18.60   11.45
   3  -7 -11    8.45   10.01
   3  -7 -11    6.63   12.16
  -3   7  10   27.83   12.75
  -3   7  10   28.74   14.11
  -3   7  10   23.67   13.53
   3  -7 -10   39.99   12.16
   3  -7 -10   21.20    9.88
   3  -7 -10   30.76   13.46
  -3   7   9   49.23   14.44
  -3   7   9   51.63   15.15
  -3   7   9   56.06   14.89
   3  -7  -9   64.51   13.46
   3  -7  -9   49.42   10.34
   3  -7  -9   51.11   14.83
  -3   7   8  165.24   20.61
  -3   7   8  155.87   22.37
  -3   7   8  154.83   20.74
   3  -7  -8  167.32   17.04
   3  -7  -8  152.88   21.78
  -3   7   7   78.82   15.35
  -3   7   7  118.68   18.40
  -3   7   7   79.34   15.35
   3  -7  -7   88.57   13.72
   3  -7  -7  102.29   16.26
   3  -7  -7  105.93   18.27
  -3   7   6    3.97    9.49
  -3   7   6    8.45   10.79
  -3   7   6    5.20    9.43
   3  -7  -6    5.85    7.15
   3  -7  -6    1.37    8.00
   3  -7  -6    9.56    9.69
  -3   7   5  443.76   24.39
  -3   7   5  421.26   27.25
  -3   7   5  463.46   39.99
  -3   7   5  440.44   25.56
   3  -7  -5  429.00   20.68
   3  -7  -5  427.83   26.27
   3  -7  -5  482.91   28.22
  -3   7   4  627.99   27.51
  -3   7   4  593.78   30.82
  -3   7   4  643.92   28.42
  -3   7   4  627.99   28.61
   3  -7  -4  667.59   23.61
   3  -7  -4  670.12   31.15
   3  -7  -4  664.27   31.80
  -3   7   3   58.14   13.20
  -3   7   3   39.80   12.03
  -3   7   3   43.18   12.49
  -3   7   3   49.75   13.27
   3  -7  -3   68.48   14.44
   3  -7  -3   46.89   12.68
  -3   7   2  214.99   19.12
  -3   7   2  234.69   21.98
  -3   7   2  214.14   20.81
  -3   7   2  200.81   19.90
   3  -7  -2  258.62   22.50
   3  -7  -2  201.46   20.09
  -3   7   1  182.67   18.40
  -3   7   1  165.89   21.07
  -3   7   1  192.42   19.64
   3  -7  -1  194.63   20.94
   3  -7  -1  189.75   19.57
  -3   7   0  384.65   23.74
  -3   7   0  372.88   27.57
  -3   7   0  394.27   24.65
   3  -7   0  362.41   17.56
   3  -7   0  352.33   25.82
   3  -7   0  376.78   25.30
  -3   7  -1   70.69   14.70
  -3   7  -1   53.26   15.09
  -3   7  -1   62.75   14.89
   3  -7   1   73.87   15.54
   3  -7   1   54.17   13.53
  -3   7  -2   31.67   12.62
  -3   7  -2   42.92   15.02
  -3   7  -2   34.66   13.14
   3  -7   2   22.76   11.71
   3  -7   2   37.33   12.36
  -3   7  -3  204.26   22.24
  -3   7  -3  196.97   26.47
  -3   7  -3  201.66   22.76
   3  -7   3  205.30   25.75
   3  -7   3  190.93   23.48
  -3   7  -4   14.11   12.88
  -3   7  -4    8.65   12.88
  -3   7  -4    8.26   12.88
   3  -7   4    5.07   11.97
   3  -7   4    0.46   11.77
   3  -7   4    8.13    9.95
  -3   7  -5   62.17   17.10
  -3   7  -5   54.10   17.49
  -3   7  -5   61.97   17.69
   3  -7   5   33.36   14.70
   3  -7   5   41.16   13.79
  -3   7  -6  235.08   28.42
  -3   7  -6  178.05   26.79
  -3   7  -6  211.93   27.44
   3  -7   6  198.14   27.96
   3  -7   6  205.56   23.02
  -3   7  -7   51.05   19.25
  -3   7  -7   66.72   21.07
  -3   7  -7   51.83   18.86
   3  -7   7   63.66   19.38
  -3   7  -8   15.28   18.08
  -3   7  -8    1.50   15.02
  -3   7  -8   38.95   18.08
   3  -7   8  -23.35   16.58
  -3   7  -9   -3.90   18.73
  -3   7  -9  -15.54   16.06
  -3   7  -9  -13.46   15.41
   3  -7   9    8.00   16.52
  -3   6  17   -1.43   17.30
  -3   6  17   10.14   19.25
   3  -6 -17    6.37   17.88
   3  -6 -17    9.30   17.95
  -3   6  16   50.79   20.68
  -3   6  16   75.56   22.83
   3  -6 -16   56.32   20.42
   3  -6 -16   47.54   20.03
  -3   6  15  116.01   24.84
  -3   6  15  130.38   24.78
   3  -6 -15  135.46   24.32
   3  -6 -15  137.73   24.84
  -3   6  14   73.09   19.96
  -3   6  14  122.64   23.22
  -3   6  14   87.92   18.53
  -3   6  14   59.05   20.35
   3  -6 -14   96.31   21.46
   3  -6 -14   74.26   18.27
   3  -6 -14  109.05   20.74
  -3   6  13    2.73   13.85
  -3   6  13   12.23   13.59
  -3   6  13   16.84   11.90
  -3   6  13   16.19   15.61
   3  -6 -13   19.51   13.14
   3  -6 -13   18.27   13.40
   3  -6 -13    3.71   11.32
  -3   6  12  139.55   23.15
  -3   6  12  157.37   22.89
  -3   6  12  146.12   20.09
  -3   6  12  137.02   22.76
   3  -6 -12  164.59   22.70
   3  -6 -12  146.32   19.90
   3  -6 -12  177.27   22.11
  -3   6  11  492.99   31.08
  -3   6  11  485.51   32.06
  -3   6  11  487.46   27.96
  -3   6  11  490.97   32.97
   3  -6 -11  483.95   28.94
   3  -6 -11  505.15   27.18
   3  -6 -11  536.88   30.63
  -3   6  10  127.26   19.90
  -3   6  10  119.98   19.83
  -3   6  10  103.85   18.66
   3  -6 -10  142.61   18.79
   3  -6 -10  125.44   16.58
   3  -6 -10  166.41   21.33
  -3   6   9   45.65   13.07
  -3   6   9   58.92   15.93
  -3   6   9   55.08   15.09
   3  -6  -9   76.54   14.44
   3  -6  -9   69.32   11.97
   3  -6  -9   70.95   15.28
  -3   6   8  385.17   25.10
  -3   6   8  402.46   26.86
  -3   6   8  424.57   27.18
   3  -6  -8  436.61   23.87
   3  -6  -8  442.72   19.44
   3  -6  -8  482.65   27.90
  -3   6   7  320.98   22.44
  -3   6   7  329.31   24.39
  -3   6   7  353.50   24.78
  -3   6   7  303.17   23.15
   3  -6  -7  358.05   21.07
   3  -6  -7  303.30   21.59
   3  -6  -7  335.75   24.19
   3  -6  -7  277.48   21.13
  -3   6   6  174.80   18.01
  -3   6   6  179.42   20.35
  -3   6   6  176.42   18.92
  -3   6   6  170.38   18.99
   3  -6  -6  185.14   16.00
   3  -6  -6  190.73   18.34
   3  -6  -6  192.62   19.77
   3  -6  -6   -0.59    4.62
  -3   6   5  197.82   18.21
  -3   6   5  192.23   20.03
  -3   6   5  183.84   18.73
  -3   6   5  173.76   18.34
   3  -6  -5  179.81   15.35
   3  -6  -5  205.49   18.60
   3  -6  -5  202.70   19.05
   3  -6  -5    2.67    4.03
  -3   6   4  267.40   19.38
  -3   6   4  249.45   21.07
  -3   6   4  282.03   20.29
  -3   6   4  255.17   20.09
   3  -6  -4  244.38   16.19
   3  -6  -4  251.47   19.77
   3  -6  -4  274.62   20.81
   3  -6  -4  267.14   21.13
   3  -6  -4  239.96   17.23
  -3   6   3  309.86   20.22
  -3   6   3  290.03   21.59
  -3   6   3  343.35   21.39
  -3   6   3  322.54   21.52
   3  -6  -3  344.00   22.11
   3  -6  -3  322.87   21.46
   3  -6  -3  355.51   22.83
   3  -6  -3  312.85   18.92
  -3   6   2   72.25   12.88
  -3   6   2   71.99   13.66
  -3   6   2   77.71   13.14
  -3   6   2   97.35   15.09
   3  -6  -2   93.71   11.77
   3  -6  -2   96.18   15.35
   3  -6  -2  115.49   16.32
   3  -6  -2   69.13   13.46
   3  -6  -2   83.37   13.27
  -3   6   1    0.39    7.61
  -3   6   1    0.98    9.43
  -3   6   1   12.23    8.32
  -3   6   1   14.57    9.36
   3  -6  -1    5.59    6.11
   3  -6  -1    1.37    7.67
   3  -6  -1   10.66    8.39
   3  -6  -1    5.07    7.15
   3  -6  -1   10.60    7.35
  -3   6   0  103.33   14.96
  -3   6   0   93.84   16.19
  -3   6   0  101.58   14.50
  -3   6   0  104.11   15.28
   3  -6   0  101.45   11.32
   3  -6   0  129.86   18.73
   3  -6   0  121.34   16.00
   3  -6   0   83.50   14.57
  -3   6  -1  171.03   18.14
  -3   6  -1  168.17   20.81
  -3   6  -1  177.66   19.51
  -3   6  -1  171.87   19.05
   3  -6   1  159.00   13.66
   3  -6   1  197.88   20.29
   3  -6   1  200.48   16.65
   3  -6   1  202.31   19.05
  -3   6  -2   50.20   12.81
  -3   6  -2   16.45   11.19
  -3   6  -2   20.42   10.66
   3  -6   2   37.91    8.91
   3  -6   2   33.49   11.32
   3  -6   2   41.49   11.97
  -3   6  -3   33.29   12.10
  -3   6  -3   16.71   11.38
  -3   6  -3   10.92   10.86
   3  -6   3   31.15    9.23
   3  -6   3   23.61   11.77
   3  -6   3   13.85    9.82
  -3   6  -4   -0.26   10.47
  -3   6  -4   -6.96   10.27
  -3   6  -4    1.24   11.58
   3  -6   4    2.21    7.02
   3  -6   4    2.80   10.21
   3  -6   4   -3.19    8.52
  -3   6  -5  357.53   27.77
  -3   6  -5  355.58   29.72
  -3   6  -5  338.02   28.22
   3  -6   5  374.96   22.04
   3  -6   5  379.83   29.59
   3  -6   5  386.66   25.75
  -3   6  -6    4.23   12.75
  -3   6  -6   11.12   14.63
  -3   6  -6    0.00   12.36
   3  -6   6    0.07    8.58
   3  -6   6  -16.52   10.47
   3  -6   6   11.12   10.79
  -3   6  -7   46.82   17.75
  -3   6  -7   51.63   17.69
  -3   6  -7   61.00   18.08
   3  -6   7   45.52   12.94
   3  -6   7   18.21   15.80
   3  -6   7   33.75   15.09
  -3   6  -8   79.21   21.72
  -3   6  -8   99.95   24.00
  -3   6  -8   84.08   21.26
   3  -6   8   73.42   19.83
  -3   6  -9   13.85   17.17
  -3   6  -9    0.07   15.54
  -3   6  -9    5.01   15.74
   3  -6   9  -23.35   14.70
  -3   6 -10   -9.69   17.36
  -3   6 -10   10.60   17.75
  -3   6 -10    2.99   17.17
   3  -6  10  -11.25   13.72
  -3   5  17   83.37   25.04
  -3   5  17   52.09   22.83
   3  -5 -17   79.27   23.61
  -3   5  16   59.37   21.52
  -3   5  16   42.72   21.98
   3  -5 -16   63.01   21.39
  -3   5  15   63.21   19.18
  -3   5  15   40.38   18.73
   3  -5 -15   37.59   17.95
  -3   5  14  481.67   35.12
  -3   5  14  449.29   35.77
  -3   5  14  469.64   30.56
   3  -5 -14  457.35   34.01
  -3   5  13  197.49   26.79
  -3   5  13  187.15   26.01
  -3   5  13  159.39   20.87
  -3   5  13  143.84   23.93
   3  -5 -13  199.31   26.27
   3  -5 -13  183.25   21.85
  -3   5  12   12.94   12.49
  -3   5  12   11.38   12.68
  -3   5  12    9.10   10.79
  -3   5  12    4.29   12.29
   3  -5 -12    4.81   11.19
   3  -5 -12   -1.37    9.69
  -3   5  11   40.90   14.18
  -3   5  11   48.90   14.18
  -3   5  11   36.61   12.55
  -3   5  11   50.07   15.54
   3  -5 -11   58.14   15.22
   3  -5 -11   54.82   13.98
  -3   5  10   64.12   14.76
  -3   5  10   83.76   17.36
  -3   5  10  107.17   16.39
  -3   5  10   95.66   17.75
   3  -5 -10   72.38   14.83
   3  -5 -10   91.63   15.54
  -3   5   9  267.46   22.44
  -3   5   9  268.90   23.35
  -3   5   9  265.71   23.87
   3  -5  -9  284.31   21.65
   3  -5  -9  299.98   22.37
   3  -5  -9  250.95   21.78
  -3   5   8    3.06    8.65
  -3   5   8    3.84    9.95
  -3   5   8    6.44    9.69
  -3   5   8    1.76    8.78
   3  -5  -8    0.85    8.00
   3  -5  -8    1.56    8.26
   3  -5  -8    0.07    7.22
  -3   5   7  324.23   21.98
  -3   5   7  316.89   22.89
  -3   5   7  361.63   23.87
  -3   5   7  324.76   22.96
   3  -5  -7  342.18   20.68
   3  -5  -7  332.49   22.17
   3  -5  -7  328.07   21.20
  -3   5   6  708.17   28.68
  -3   5   6  729.76   31.08
  -3   5   6  695.88   29.20
  -3   5   6  711.48   29.65
   3  -5  -6  713.76   26.60
   3  -5  -6  768.51   28.29
   3  -5  -6  739.06   30.89
   3  -5  -6  721.82   29.52
   3  -5  -6  689.24   27.90
  -3   5   5  147.10   16.13
  -3   5   5  143.06   17.36
  -3   5   5  132.98   16.45
  -3   5   5  138.97   16.97
   3  -5  -5  171.74   14.89
   3  -5  -5  151.97   15.35
   3  -5  -5  155.74   17.30
   3  -5  -5  146.38   16.45
   3  -5  -5  142.54   14.37
  -3   5   4   34.47   10.47
  -3   5   4   24.00    9.23
  -3   5   4   30.82   10.27
  -3   5   4   26.60   10.01
   3  -5  -4   24.32    8.19
   3  -5  -4   34.86   10.14
   3  -5  -4   20.42    8.32
   3  -5  -4   17.82    6.76
  -3   5   3  236.84   17.56
  -3   5   3  213.36   18.66
  -3   5   3  210.69   17.23
  -3   5   3  189.23   17.75
   3  -5  -3  216.68   14.76
   3  -5  -3  243.21   17.95
   3  -5  -3  204.58   17.43
   3  -5  -3  215.12   17.75
   3  -5  -3    0.07    3.19
  -3   5   2   25.56    9.56
  -3   5   2   17.30    8.71
  -3   5   2   15.74    9.17
  -3   5   2    9.56    9.17
   3  -5  -2   24.00    7.67
   3  -5  -2   32.45    9.62
   3  -5  -2   28.74    9.43
   3  -5  -2   29.33    9.62
   3  -5  -2    1.82    3.06
  -3   5   1   47.15   10.60
  -3   5   1   50.59   12.29
  -3   5   1   60.74   11.90
  -3   5   1   42.33   11.12
   3  -5  -1   64.83   10.21
   3  -5  -1   60.15   12.23
   3  -5  -1   49.75   10.86
   3  -5  -1   45.46   10.73
   3  -5  -1   32.51    8.00
  -3   5   0   15.54    8.97
  -3   5   0   19.31    9.95
  -3   5   0   16.13    8.97
  -3   5   0   19.51    9.23
   3  -5   0   14.89    6.70
   3  -5   0   24.00    9.23
   3  -5   0   24.58    8.39
   3  -5   0   33.56   10.21
   3  -5   0   30.30    8.13
  -3   5  -1   94.49   13.98
  -3   5  -1   89.09   15.09
  -3   5  -1   89.28   13.79
  -3   5  -1   83.43   13.85
   3  -5   1  117.25   12.10
   3  -5   1  120.11   16.78
   3  -5   1  112.63   14.24
   3  -5   1   99.69   14.31
   3  -5   1  106.06   13.07
  -3   5  -2   34.73   10.66
  -3   5  -2   41.42   12.42
  -3   5  -2   28.87   10.53
  -3   5  -2   36.16   10.73
   3  -5   2   37.85    9.04
   3  -5   2   25.69   10.40
   3  -5   2   43.89    9.95
   3  -5   2   34.73   10.92
   3  -5   2   31.60    9.17
  -3   5  -3   20.09   10.14
  -3   5  -3   14.31   10.14
  -3   5  -3   13.33   10.73
   3  -5   3   27.38    8.71
   3  -5   3   23.22   10.21
   3  -5   3   20.29    7.61
   3  -5   3   26.92   10.34
  -3   5  -4   -7.93    8.71
  -3   5  -4    2.21   10.14
  -3   5  -4   -0.85    9.95
   3  -5   4    0.78    6.96
   3  -5   4    7.61    8.97
   3  -5   4   -1.24    7.28
  -3   5  -5   49.29   14.44
  -3   5  -5   33.56   13.07
  -3   5  -5   53.06   14.96
   3  -5   5   53.00   11.51
   3  -5   5   42.20   13.27
   3  -5   5   49.81   12.10
  -3   5  -6   32.32   14.37
  -3   5  -6   19.18   13.46
  -3   5  -6   16.19   13.53
   3  -5   6   16.78    9.56
   3  -5   6  -22.57   14.37
   3  -5   6    2.67   10.92
  -3   5  -7   12.42   13.59
  -3   5  -7   -0.72   12.10
  -3   5  -7   12.49   14.63
   3  -5   7   14.31   10.08
   3  -5   7    6.70   12.81
   3  -5   7   -6.18    9.17
  -3   5  -8   42.33   17.23
  -3   5  -8   36.29   16.84
  -3   5  -8   16.45   15.35
   3  -5   8   19.05   11.05
   3  -5   8   35.70   16.97
  -3   5  -9   18.47   16.52
  -3   5  -9   11.45   15.61
  -3   5  -9   18.99   16.91
   3  -5   9    8.58   11.19
   3  -5   9   -0.07   12.81
  -3   5 -10  -11.45   15.28
  -3   5 -10    4.16   16.52
  -3   5 -10    0.52   16.32
   3  -5  10    0.33   10.79
   3  -5  10   -6.96   18.92
  -3   5 -11   22.37   20.94
  -3   5 -11    6.57   17.17
  -3   5 -11   10.66   18.14
   3  -5  11   13.92   18.60
  -3   4  17  113.09   25.88
   3  -4 -17  117.31   27.25
  -3   4  16   11.51   17.17
  -3   4  16   25.10   19.57
   3  -4 -16   28.61   19.25
  -3   4  15    1.04   15.09
  -3   4  15  -18.60   13.98
   3  -4 -15    5.33   15.93
  -3   4  14    1.69   12.81
  -3   4  14   19.83   15.54
  -3   4  14   -1.04   12.42
   3  -4 -14    1.63   14.50
  -3   4  13   25.30   14.24
  -3   4  13   17.56   14.24
  -3   4  13   25.04   14.05
  -3   4  13   34.01   18.47
   3  -4 -13   26.01   14.57
  -3   4  12   92.67   19.18
  -3   4  12  125.31   21.13
  -3   4  12   96.96   17.43
  -3   4  12  106.97   20.74
   3  -4 -12  116.47   20.68
   3  -4 -12  125.83   17.04
  -3   4  11    5.46   10.47
  -3   4  11   35.25   14.57
  -3   4  11   29.20   11.97
  -3   4  11   20.48   12.75
   3  -4 -11   27.64   12.62
   3  -4 -11   21.00    9.95
  -3   4  10   14.18   10.53
  -3   4  10   16.91   11.45
  -3   4  10    4.81    9.04
  -3   4  10    8.13   10.92
   3  -4 -10   14.57   10.53
   3  -4 -10   18.99    9.49
   3  -4 -10   22.37   11.51
  -3   4   9  156.85   18.66
  -3   4   9  152.30   19.57
  -3   4   9  147.68   16.71
  -3   4   9  153.73   20.03
   3  -4  -9  185.33   18.79
   3  -4  -9  179.94   17.30
   3  -4  -9  148.20   18.27
  -3   4   8   63.21   13.07
  -3   4   8   61.45   13.79
  -3   4   8   70.49   14.83
   3  -4  -8   79.14   14.11
   3  -4  -8   80.38   15.54
   3  -4  -8   68.48   12.75
   3  -4  -8   68.87   13.98
  -3   4   7    6.50    8.45
  -3   4   7    8.65    9.43
  -3   4   7   15.87    9.95
  -3   4   7   15.41    9.82
   3  -4  -7   15.02    8.65
   3  -4  -7   18.01    9.56
   3  -4  -7    8.45    7.48
   3  -4  -7   13.79    8.39
  -3   4   6   83.82   13.33
  -3   4   6  102.10   15.48
  -3   4   6  102.42   15.09
  -3   4   6   83.56   14.05
   3  -4  -6   90.65   12.94
   3  -4  -6  114.06   16.13
   3  -4  -6  106.78   14.50
   3  -4  -6   97.93   14.11
  -3   4   5  700.75   26.86
  -3   4   5  669.47   28.16
  -3   4   5  685.86   27.44
  -3   4   5  634.42   27.05
   3  -4  -5  718.57   25.49
   3  -4  -5  671.36   24.26
   3  -4  -5  712.52   28.48
   3  -4  -5  703.87   26.99
   3  -4  -5  701.60   26.86
  -3   4   4  256.60   18.14
  -3   4   4  243.53   18.66
  -3   4   4  226.95   17.75
  -3   4   4  199.31   17.62
   3  -4  -4  213.43   15.09
   3  -4  -4  238.07   15.93
   3  -4  -4  243.27   18.14
   3  -4  -4  239.83   17.49
   3  -4  -4  191.71   15.74
  -3   4   3   -1.24    6.44
  -3   4   3    6.57    7.54
  -3   4   3   -0.52    6.96
  -3   4   3    1.56    7.54
   3  -4  -3   -3.58    5.20
   3  -4  -3    3.19    5.79
   3  -4  -3   -3.19    6.70
   3  -4  -3   -1.82    5.72
   3  -4  -3   -2.41    5.92
  -3   4   2   49.36   10.47
  -3   4   2   47.54   10.53
  -3   4   2   50.53   10.86
  -3   4   2   33.69    9.95
   3  -4  -2   61.26    9.88
   3  -4  -2   46.63    9.69
   3  -4  -2   52.09   10.79
   3  -4  -2   62.04   11.97
   3  -4  -2   58.79   10.53
  -3   4   1    6.31    7.22
  -3   4   1    5.01    7.15
  -3   4   1   13.46    8.39
  -3   4   1    7.35    8.13
   3  -4  -1    9.10    6.11
   3  -4  -1    4.03    6.70
   3  -4  -1   12.10    7.61
   3  -4  -1    1.24    6.57
   3  -4  -1    8.19    5.85
  -3   4   0  280.15   18.14
  -3   4   0  247.70   18.66
  -3   4   0  260.44   17.82
  -3   4   0  245.74   18.40
   3  -4   0  252.83   15.22
   3  -4   0  248.09   17.75
   3  -4   0  260.44   16.97
   3  -4   0  269.81   19.12
   3  -4   0   87.33   11.64
  -3   4  -1   32.12    9.88
  -3   4  -1   30.89   10.40
  -3   4  -1   30.56    9.69
  -3   4  -1   27.57    9.88
   3  -4   1   24.13    7.87
   3  -4   1   26.53    8.91
   3  -4   1   26.53    8.19
   3  -4   1   18.21    8.58
   3  -4   1    3.71    4.94
  -3   4  -2  166.80   16.58
  -3   4  -2  176.36   17.95
  -3   4  -2  163.87   16.58
  -3   4  -2  176.03   17.62
   3  -4   2  167.19   14.11
   3  -4   2  168.62   16.65
   3  -4   2  183.25   13.79
   3  -4   2  178.11   16.58
   3  -4   2   47.80    9.69
  -3   4  -3  324.56   21.26
  -3   4  -3  330.74   22.24
  -3   4  -3  325.93   21.78
  -3   4  -3  318.25   22.44
   3  -4   3  343.74   19.31
   3  -4   3  355.38   22.89
   3  -4   3  297.77   15.74
   3  -4   3  322.28   20.81
   3  -4   3  150.09   14.31
  -3   4  -4   35.12   11.71
  -3   4  -4   38.82   12.03
  -3   4  -4   32.77   11.25
  -3   4  -4   39.67   12.36
   3  -4   4   34.47    9.56
   3  -4   4   40.32   14.24
   3  -4   4   26.66   11.45
   3  -4   4   36.22   10.34
  -3   4  -5    5.59   10.27
  -3   4  -5    4.81    9.36
  -3   4  -5    6.83   10.86
   3  -4   5    1.30    6.83
   3  -4   5    6.76    9.88
   3  -4   5    5.01    8.00
  -3   4  -6   55.21   15.35
  -3   4  -6   75.76   16.52
  -3   4  -6   70.62   16.78
   3  -4   6   70.56   13.07
   3  -4   6   68.48   18.14
   3  -4   6   50.53   12.88
  -3   4  -7   12.16   12.29
  -3   4  -7   12.75   12.49
  -3   4  -7    3.45   12.81
   3  -4   7    9.36    9.30
   3  -4   7   -3.38   16.97
   3  -4   7    1.56   13.85
  -3   4  -8  184.81   24.45
  -3   4  -8  155.55   22.96
  -3   4  -8  186.24   25.36
   3  -4   8  141.63   19.64
   3  -4   8   95.27   20.74
   3  -4   8  174.73   19.96
  -3   4  -9  118.61   22.57
  -3   4  -9   91.76   20.42
  -3   4  -9   87.20   21.33
   3  -4   9   82.91   16.65
   3  -4   9   73.35   20.48
  -3   4 -10   13.01   15.80
  -3   4 -10   -3.06   15.15
  -3   4 -10   11.05   16.97
   3  -4  10    8.26   11.84
   3  -4  10   -5.72   14.57
  -3   4 -11    0.72   17.23
  -3   4 -11   -3.77   16.26
  -3   4 -11    7.93   16.78
   3  -4  11    6.11   12.03
   3  -4  11  -16.65   18.92
  -3   4 -12   15.15   19.44
  -3   4 -12   16.71   18.92
  -3   4 -12   21.39   19.44
   3  -4  12    6.70   14.05
   3  -4  12   -7.48   17.88
  -3   3  17   24.91   18.79
  -3   3  16   65.16   21.33
   3  -3 -16   63.34   22.70
  -3   3  15   22.17   15.87
  -3   3  15   32.58   18.60
  -3   3  15   25.17   22.24
   3  -3 -15   29.78   18.14
  -3   3  14   13.46   13.66
  -3   3  14   19.38   16.26
  -3   3  14   15.67   13.66
   3  -3 -14   52.48   18.47
  -3   3  13   12.23   13.33
  -3   3  13   22.89   15.22
  -3   3  13   36.55   14.83
   3  -3 -13   26.99   14.96
  -3   3  12   86.10   17.62
  -3   3  12   88.70   18.86
  -3   3  12   84.67   16.65
  -3   3  12   84.99   19.31
   3  -3 -12   95.98   19.18
   3  -3 -12   91.56   14.24
   3  -3 -12  110.16   22.24
  -3   3  11   10.40   10.79
  -3   3  11    3.45   11.19
  -3   3  11   11.19    9.82
  -3   3  11   10.86   11.45
   3  -3 -11   18.14   11.19
   3  -3 -11    9.43    8.32
   3  -3 -11    3.84   10.53
  -3   3  10    0.20    8.65
  -3   3  10    8.65   10.66
  -3   3  10    8.97    8.97
  -3   3  10    6.70   10.14
   3  -3 -10   -0.07    8.71
   3  -3 -10    9.17    7.61
   3  -3 -10   -1.63    8.58
  -3   3   9   49.42   12.62
  -3   3   9   66.33   14.18
  -3   3   9   49.94   11.38
  -3   3   9   50.66   13.85
   3  -3  -9   76.93   14.70
   3  -3  -9   58.72   10.92
   3  -3  -9   67.89   14.83
  -3   3   8  456.63   25.04
  -3   3   8  468.92   25.88
  -3   3   8  463.92   23.22
  -3   3   8  418.92   25.56
   3  -3  -8  482.71   24.78
   3  -3  -8  483.56   25.23
   3  -3  -8  503.91   22.44
   3  -3  -8  435.95   24.91
  -3   3   7  140.07   16.26
  -3   3   7  156.00   17.30
  -3   3   7  152.30   15.54
  -3   3   7  158.74   17.95
   3  -3  -7  159.39   16.13
   3  -3  -7  173.56   17.10
   3  -3  -7  171.22   14.96
   3  -3  -7  132.46   15.61
   3  -3  -7  158.02   11.64
  -3   3   6    6.24    7.67
  -3   3   6    8.84    8.58
  -3   3   6   16.32    9.23
   3  -3  -6   20.16    8.00
   3  -3  -6   10.53    8.06
   3  -3  -6   14.37    7.54
   3  -3  -6   19.83    8.45
  -3   3   5  666.74   25.82
  -3   3   5  670.84   26.92
  -3   3   5  671.62   26.53
  -3   3   5  604.51   26.01
   3  -3  -5  692.49   21.91
   3  -3  -5  687.88   26.79
   3  -3  -5  709.14   25.23
   3  -3  -5  651.01   25.88
  -3   3   4  373.33   20.09
  -3   3   4  370.60   21.00
  -3   3   4  403.96   21.00
  -3   3   4  345.43   20.48
   3  -3  -4  373.46   18.66
   3  -3  -4  375.54   16.97
   3  -3  -4  318.19   20.94
   3  -3  -4  370.93   20.22
   3  -3  -4  385.82   20.03
  -3   3   3  110.55   14.05
  -3   3   3  102.88   13.66
  -3   3   3  113.87   13.79
  -3   3   3  113.74   14.37
   3  -3  -3   99.36   12.03
   3  -3  -3  123.62   12.03
   3  -3  -3  134.42   16.71
   3  -3  -3  108.40   14.70
   3  -3  -3  103.98   12.75
  -3   3   2  395.25   19.64
  -3   3   2  386.66   20.42
  -3   3   2  430.43   20.42
  -3   3   2  396.09   20.74
   3  -3  -2  406.11   18.27
   3  -3  -2  426.79   18.34
   3  -3  -2  423.79   21.07
   3  -3  -2  439.73   21.91
   3  -3  -2  424.38   19.83
  -3   3   1  421.00   20.16
  -3   3   1  394.66   20.16
  -3   3   1  446.68   21.20
  -3   3   1  390.04   20.87
   3  -3  -1  435.50   18.73
   3  -3  -1  441.42   19.44
   3  -3  -1  433.94   21.33
   3  -3  -1  455.79   23.28
   3  -3  -1  447.66   20.22
  -3   3   0  166.93   15.09
  -3   3   0  160.43   15.02
  -3   3   0  165.69   15.15
  -3   3   0  147.55   15.61
   3  -3   0  157.50   13.01
   3  -3   0  121.73   14.11
   3  -3   0  157.24   18.99
   3  -3   0  166.67   18.99
   3  -3   0  161.08   14.24
  -3   3  -1   30.43    9.43
  -3   3  -1   31.28    9.75
  -3   3  -1   34.66    9.75
  -3   3  -1   31.80    9.95
   3  -3   1   32.32    8.32
   3  -3   1   31.80    8.97
   3  -3   1   41.68    9.49
   3  -3   1   30.24    8.78
   3  -3   1   48.84   10.40
  -3   3  -2  553.07   23.80
  -3   3  -2  518.48   23.93
  -3   3  -2  554.96   24.00
  -3   3  -2  501.24   24.06
   3  -3   2  519.58   21.65
   3  -3   2  575.57   24.91
   3  -3   2  525.76   20.22
   3  -3   2  533.30   23.87
   3  -3   2  530.77   23.09
  -3   3  -3  272.41   19.25
  -3   3  -3  291.98   15.28
  -3   3  -3  246.33   18.79
  -3   3  -3  288.60   19.64
  -3   3  -3  235.86   19.31
   3  -3   3  287.30   17.49
   3  -3   3  298.61   20.09
   3  -3   3  261.03   14.96
   3  -3   3  266.29   18.47
   3  -3   3  264.21   18.27
  -3   3  -4    7.93    8.97
  -3   3  -4   14.37    9.49
  -3   3  -4   11.97    9.10
  -3   3  -4   10.60   10.21
   3  -3   4   14.31    7.41
   3  -3   4    3.97    6.70
   3  -3   4   14.44    6.70
   3  -3   4   11.38    7.93
   3  -3   4   17.62    8.39
  -3   3  -5   20.81   10.66
  -3   3  -5   18.47   10.21
  -3   3  -5   22.50   10.99
  -3   3  -5    4.03    9.95
   3  -3   5   16.71    8.19
   3  -3   5    9.69    8.84
   3  -3   5   20.68    8.97
   3  -3   5    4.03    8.32
  -3   3  -6  109.18   17.95
  -3   3  -6  103.79   16.91
  -3   3  -6  117.38   18.79
   3  -3   6   91.76   14.57
   3  -3   6  100.34   17.56
   3  -3   6   81.42   13.98
  -3   3  -7   16.06   12.23
  -3   3  -7    9.56   11.12
  -3   3  -7   -2.93   11.12
   3  -3   7    9.49    9.10
   3  -3   7   -5.07    9.69
   3  -3   7    9.10    9.82
  -3   3  -8   56.38   16.58
  -3   3  -8   45.78   14.37
  -3   3  -8   76.86   19.05
   3  -3   8   52.67   14.11
   3  -3   8   64.12   21.13
   3  -3   8   78.10   16.52
  -3   3  -9   71.27   18.60
  -3   3  -9   90.46   18.66
  -3   3  -9  111.26   21.91
   3  -3   9   98.45   17.49
   3  -3   9   56.19   17.36
   3  -3   9   85.25   15.48
  -3   3 -10   16.00   15.74
  -3   3 -10   16.97   14.96
  -3   3 -10   28.94   17.95
   3  -3  10   22.30   13.20
   3  -3  10   13.85   17.10
  -3   3 -11    0.07   15.35
  -3   3 -11   10.08   15.61
  -3   3 -11    4.75   17.62
   3  -3  11   16.00   13.07
   3  -3  11    1.63   16.19
  -3   3 -12    7.67   17.43
  -3   3 -12   16.71   16.78
  -3   3 -12   13.40   18.60
   3  -3  12   11.51   14.05
   3  -3  12  -13.01   22.37
  -3   3 -13   -4.88   19.18
  -3   3 -13   -0.72   24.84
  -3   3 -13   28.09   19.05
  -3   3 -13  -16.32   17.82
   3  -3  13   22.24   15.54
   3  -3  13  -34.40   16.52
  -3   2  16   51.96   19.77
   3  -2 -16   67.89   22.76
  -3   2  15  113.41   23.35
  -3   2  15  104.76   21.59
   3  -2 -15  111.52   25.88
  -3   2  14   30.04   17.49
  -3   2  14   54.04   17.04
   3  -2 -14   63.08   18.60
  -3   2  13    7.93   12.10
  -3   2  13    2.93   14.24
  -3   2  13    5.72   12.49
   3  -2 -13    1.24   13.27
   3  -2 -13    3.19   14.50
  -3   2  12  164.59   23.09
  -3   2  12  182.73   26.47
  -3   2  12  190.34   23.15
   3  -2 -12  182.15   24.39
   3  -2 -12  179.55   25.49
  -3   2  11   73.55   16.00
  -3   2  11   63.60   15.93
  -3   2  11   86.10   16.52
  -3   2  11   89.94   18.53
   3  -2 -11   72.51   16.65
   3  -2 -11   81.94   11.45
   3  -2 -11   75.30   17.43
  -3   2  10   18.92   10.34
  -3   2  10   32.25   12.81
  -3   2  10   23.80   11.05
  -3   2  10    7.93   10.86
   3  -2 -10   30.95   11.64
   3  -2 -10   32.45    8.52
   3  -2 -10   24.78   11.90
  -3   2   9    1.76    7.87
  -3   2   9  -10.53    6.89
  -3   2   9    6.83    8.13
  -3   2   9   -2.47    8.52
   3  -2  -9    2.80    8.00
   3  -2  -9   -0.85    8.00
   3  -2  -9    8.06    6.57
   3  -2  -9    1.89    8.58
   3  -2  -9    1.76    6.76
  -3   2   8  130.77   15.93
  -3   2   8  123.43   16.39
  -3   2   8  125.57   15.09
  -3   2   8  117.12   17.36
   3  -2  -8  116.53   15.74
   3  -2  -8  132.98   16.84
   3  -2  -8  133.24   13.40
   3  -2  -8  117.64   16.58
   3  -2  -8  115.23   13.14
  -3   2   7  222.40   18.01
  -3   2   7  222.53   18.73
  -3   2   7  216.55   16.97
  -3   2   7  203.22   18.99
   3  -2  -7  241.52   18.34
   3  -2  -7  266.55   18.92
   3  -2  -7  240.48   15.54
   3  -2  -7  228.45   18.60
   3  -2  -7  217.13   14.24
  -3   2   6   25.95    9.62
  -3   2   6   25.56    8.84
  -3   2   6   16.26    8.71
  -3   2   6   28.22   10.08
   3  -2  -6   32.64    9.36
   3  -2  -6   26.08    9.17
   3  -2  -6   39.80    8.65
   3  -2  -6   38.89   10.27
   3  -2  -6   31.54    6.96
  -3   2   5  635.59   24.65
  -3   2   5  640.41   25.62
  -3   2   5  592.15   25.23
   3  -2  -5  615.63   26.34
   3  -2  -5  670.25   23.54
   3  -2  -5  651.14   25.56
   3  -2  -5  647.69   18.01
  -3   2   4  128.17   13.92
  -3   2   4  138.71   14.83
  -3   2   4  131.16   14.44
  -3   2   4  127.07   14.89
   3  -2  -4  127.52   12.75
   3  -2  -4  121.80   10.08
   3  -2  -4  156.98   14.89
   3  -2  -4  152.95   13.40
   3  -2  -4  129.34   13.79
  -3   2   3   84.15   11.71
  -3   2   3  110.61   13.66
  -3   2   3  111.20   13.53
  -3   2   3   72.57   11.38
   3  -2  -3  111.46   11.97
   3  -2  -3  104.37    9.69
   3  -2  -3  108.92   13.79
   3  -2  -3  100.53   12.23
   3  -2  -3  103.92   13.01
  -3   2   2  250.04   16.13
  -3   2   2  248.15   16.91
  -3   2   2  263.82   17.10
  -3   2   2  264.73   17.49
   3  -2  -2  255.24   15.15
   3  -2  -2  265.90   13.53
   3  -2  -2  259.60   16.32
   3  -2  -2  288.92   16.78
   3  -2  -2  278.06   16.71
  -3   2   1 1127.86   29.26
  -3   2   1 1067.32   28.55
  -3   2   1 1187.95   30.37
  -3   2   1 1069.86   29.65
   3  -2  -1 1229.70   29.07
   3  -2  -1 1257.01   27.05
   3  -2  -1 1223.52   29.98
   3  -2  -1 1274.90   31.34
   3  -2  -1 1211.04   30.24
  -3   2   0  222.07   16.13
  -3   2   0  204.13   15.09
  -3   2   0  221.81   16.45
  -3   2   0  216.22   16.84
   3  -2   0  239.44   15.02
   3  -2   0  257.71   14.83
   3  -2   0  214.47   14.57
   3  -2   0  239.89   16.00
   3  -2   0  197.49   15.28
  -3   2  -1  252.77   16.71
  -3   2  -1  228.64   16.06
  -3   2  -1  239.83   16.71
  -3   2  -1  234.62   17.23
   3  -2   1  275.33   15.93
   3  -2   1  277.61   16.32
   3  -2   1  243.34   14.83
   3  -2   1  234.23   16.26
   3  -2   1  247.70   16.26
  -3   2  -2  188.19   15.67
  -3   2  -2  179.61   11.25
  -3   2  -2  155.94   14.89
  -3   2  -2  191.32   15.87
  -3   2  -2  150.41   15.80
   3  -2   2  174.08   13.98
   3  -2   2  221.81   18.79
   3  -2   2  159.91   19.18
   3  -2   2  168.95   14.89
  -3   2  -3  143.52   15.61
  -3   2  -3  159.71   12.55
  -3   2  -3  153.53   15.02
  -3   2  -3  138.45   15.09
  -3   2  -3  160.49   17.04
   3  -2   3  151.06   13.72
   3  -2   3  183.71   15.80
   3  -2   3  118.94   11.90
   3  -2   3  141.70   14.37
  -3   2  -4  129.60   16.19
  -3   2  -4  127.72   13.27
  -3   2  -4  126.48   14.70
  -3   2  -4  126.42   15.67
  -3   2  -4  114.58   15.67
   3  -2   4  121.80   13.46
   3  -2   4  106.00   14.83
   3  -2   4   91.69   11.90
   3  -2   4  126.29   14.83
  -3   2  -5   38.43   11.05
  -3   2  -5   19.31    9.30
  -3   2  -5   25.36    9.43
  -3   2  -5   17.30   10.01
  -3   2  -5   21.39   10.53
   3  -2   5   20.48    8.39
   3  -2   5   35.38   11.05
   3  -2   5   19.70    7.54
   3  -2   5   31.93    9.82
  -3   2  -6   23.09   10.60
  -3   2  -6   36.94   11.84
  -3   2  -6   17.43    9.75
  -3   2  -6   22.24   11.19
  -3   2  -6   33.62   12.23
   3  -2   6   15.87    8.13
   3  -2   6   13.01    8.78
   3  -2   6   19.70    9.88
  -3   2  -7   83.30   16.26
  -3   2  -7   50.46   13.27
  -3   2  -7   63.73   15.22
   3  -2   7   65.09   13.40
   3  -2   7   53.00   13.66
   3  -2   7   75.17   14.89
  -3   2  -8  107.36   18.66
  -3   2  -8  115.95   18.27
  -3   2  -8  111.20   20.16
   3  -2   8  114.19   18.27
   3  -2   8   73.74   18.92
  -3   2  -9   -5.07   11.45
  -3   2  -9   -2.73   10.73
  -3   2  -9   -4.81   12.55
   3  -2   9   -0.26    9.17
   3  -2   9   10.14   21.07
  -3   2 -10   20.87   15.74
  -3   2 -10   37.00   17.43
   3  -2  10   24.06   12.75
   3  -2  10   10.53   14.89
   3  -2  10   38.17   16.84
  -3   2 -11  113.15   23.15
  -3   2 -11  142.02   27.83
   3  -2  11   80.25   17.88
   3  -2  11  127.33   27.70
  -3   2 -12   42.72   19.90
  -3   2 -12   34.40   23.41
   3  -2  12   27.12   15.35
   3  -2  12   35.64   20.42
  -3   2 -13   17.62   18.66
  -3   2 -13    0.78   23.35
   3  -2  13   12.23   14.96
   3  -2  13  -18.40   23.54
  -3   2 -14  139.94   29.78
  -3   2 -14  156.72   34.08
   3  -2  14   90.65   21.85
   3  -2  14   49.10   25.75
  -3   1  16    0.07   15.41
   3  -1 -16    5.01   20.03
  -3   1  15  145.67   25.56
  -3   1  15  151.52   25.17
   3  -1 -15  172.46   29.65
  -3   1  14   45.91   16.91
  -3   1  14   55.66   17.82
   3  -1 -14   54.10   20.03
  -3   1  13   26.21   13.66
  -3   1  13   36.74   14.96
   3  -1 -13   48.25   18.14
   3  -1 -13   23.22   15.28
  -3   1  12    7.48   10.79
  -3   1  12   -6.18   11.58
  -3   1  12    4.29   11.58
   3  -1 -12    6.24   11.64
   3  -1 -12    7.22   11.77
  -3   1  11   88.05   16.91
  -3   1  11  132.14   21.98
  -3   1  11  114.39   18.60
   3  -1 -11  113.28   19.31
   3  -1 -11   82.33   17.49
  -3   1  10  225.26   21.33
  -3   1  10  253.09   23.93
  -3   1  10  251.21   21.46
  -3   1  10  224.16   23.35
   3  -1 -10  253.61   22.70
   3  -1 -10  233.32   22.83
   3  -1 -10  268.38   21.07
  -3   1   9   61.97   13.01
  -3   1   9   55.01   12.49
  -3   1   9   52.80   12.62
  -3   1   9   55.40   13.46
   3  -1  -9   89.74   15.87
   3  -1  -9   87.85   14.24
   3  -1  -9   71.99    9.43
   3  -1  -9   65.48   14.57
   3  -1  -9   78.10   13.59
  -3   1   8    7.15    8.13
  -3   1   8   11.25    9.17
  -3   1   8   12.23    8.91
  -3   1   8   12.36    9.10
   3  -1  -8   26.60   10.21
   3  -1  -8   14.05    8.91
   3  -1  -8   13.85    6.50
   3  -1  -8   19.90    9.69
   3  -1  -8   18.79    8.39
  -3   1   7   50.85   11.05
  -3   1   7   65.09   12.55
  -3   1   7   56.58   11.19
  -3   1   7   53.19   11.84
   3  -1  -7   54.30   11.45
   3  -1  -7   48.51   11.25
   3  -1  -7   57.75    8.84
   3  -1  -7   53.32   11.58
   3  -1  -7   58.40   10.47
  -3   1   6   46.89   10.66
  -3   1   6   36.87   10.73
  -3   1   6   37.78    9.69
  -3   1   6   46.69   10.92
   3  -1  -6   43.18   10.08
   3  -1  -6   46.30   10.40
   3  -1  -6   50.33    8.45
   3  -1  -6   30.04    9.10
   3  -1  -6   44.81    9.10
  -3   1   5    9.17    7.28
  -3   1   5    5.27    4.16
  -3   1   5   12.62    7.48
  -3   1   5    8.26    7.35
  -3   1   5   -0.13    7.15
   3  -1  -5    6.37    8.71
   3  -1  -5    4.55    6.63
   3  -1  -5   11.05    7.15
   3  -1  -5    8.13    6.11
  -3   1   4  310.97   17.69
  -3   1   4  339.06   11.84
  -3   1   4  324.82   18.66
  -3   1   4  327.10   18.14
  -3   1   4  300.30   18.60
   3  -1  -4  349.08   18.08
   3  -1  -4  396.29   19.25
   3  -1  -4  362.86   16.58
   3  -1  -4  334.12   18.60
   3  -1  -4  347.26   14.89
  -3   1   3  981.09   27.05
  -3   1   3  963.34   18.27
  -3   1   3  968.41   27.44
  -3   1   3  911.12   27.44
   3  -1  -3 1030.19   27.38
   3  -1  -3  992.41   18.73
   3  -1  -3 1090.86   28.74
   3  -1  -3 1046.32   26.14
   3  -1  -3 1006.13   28.09
   3  -1  -3  925.75   28.48
  -3   1   2  630.98   21.98
  -3   1   2  683.91   16.39
  -3   1   2  670.77   22.83
  -3   1   2  706.35   23.54
  -3   1   2  650.88   23.28
   3  -1  -2  690.87   22.11
   3  -1  -2  678.19   16.45
   3  -1  -2  712.85   16.19
   3  -1  -2  728.98   23.35
   3  -1  -2  740.88   22.89
   3  -1  -2  706.02   23.67
   3  -1  -2  698.22   23.35
  -3   1   1   76.80   11.05
  -3   1   1   68.28    8.97
  -3   1   1   87.07   11.25
  -3   1   1   88.89   11.51
  -3   1   1   69.26   10.66
   3  -1  -1   91.43   11.25
   3  -1  -1   89.48    8.32
   3  -1  -1   89.94   11.32
   3  -1  -1   74.33   11.25
  -3   1   0   16.71    7.35
  -3   1   0   19.44    7.09
  -3   1   0   18.86    7.87
  -3   1   0   19.57    7.93
   3  -1   0   25.62    7.15
   3  -1   0   24.71    6.05
   3  -1   0   20.87    7.35
   3  -1   0   24.58    7.87
  -3   1  -1  101.38   12.36
  -3   1  -1   99.04    8.78
  -3   1  -1   95.07   11.19
  -3   1  -1  103.20   12.68
  -3   1  -1   95.66   12.49
   3  -1   1  106.19   11.32
   3  -1   1  125.44   10.92
   3  -1   1  107.75    8.26
   3  -1   1   70.88   10.40
   3  -1   1  113.54   12.81
  -3   1  -2  302.71   17.82
  -3   1  -2  312.40   13.72
  -3   1  -2  287.56   15.80
  -3   1  -2  305.83   17.69
  -3   1  -2  279.82   17.88
   3  -1   2  336.98   17.17
   3  -1   2  313.70   16.65
   3  -1   2  131.49   11.90
   3  -1   2  333.14   18.34
  -3   1  -3  104.57   13.46
  -3   1  -3   97.09   10.99
  -3   1  -3   84.93   11.25
  -3   1  -3   96.31   12.88
  -3   1  -3   79.99   12.62
   3  -1   3   98.19   11.84
   3  -1   3   87.59   12.75
   3  -1   3   43.05    8.71
   3  -1   3  105.48   13.27
  -3   1  -4  538.90   24.19
  -3   1  -4  536.88   20.74
  -3   1  -4  507.88   20.55
  -3   1  -4  495.46   23.48
  -3   1  -4  494.87   24.45
   3  -1   4  491.36   21.72
   3  -1   4  342.31   19.83
   3  -1   4  118.74   12.16
   3  -1   4  515.81   23.28
  -3   1  -5  251.47   19.57
  -3   1  -5  252.18   17.23
  -3   1  -5  205.62   15.87
  -3   1  -5  219.15   19.57
   3  -1   5  238.59   17.23
   3  -1   5  127.13   15.22
   3  -1   5   54.23    9.30
   3  -1   5  248.61   18.73
  -3   1  -6   28.68   10.99
  -3   1  -6   58.59   12.10
  -3   1  -6   46.11   10.53
  -3   1  -6   36.61   12.10
   3  -1   6   34.60   10.34
   3  -1   6   17.95    8.52
   3  -1   6    5.01    5.59
   3  -1   6   55.93   12.81
  -3   1  -7  160.56   18.99
  -3   1  -7  150.54   18.60
  -3   1  -7  137.28   16.65
  -3   1  -7  140.79   19.51
   3  -1   7  133.05   16.26
   3  -1   7   42.33   11.97
   3  -1   7  127.46   17.95
  -3   1  -8  130.32   19.31
  -3   1  -8  155.94   20.68
  -3   1  -8  156.20   18.40
  -3   1  -8  103.98   18.73
   3  -1   8  136.95   18.08
   3  -1   8   32.84   12.10
   3  -1   8  139.29   19.18
  -3   1  -9   48.77   15.22
  -3   1  -9   78.23   18.21
   3  -1   9   48.64   13.53
   3  -1   9    0.07   11.19
  -3   1 -10  494.09   33.10
  -3   1 -10  557.17   35.90
   3  -1  10  482.84   30.56
   3  -1  10  173.95   27.44
  -3   1 -11  151.65   25.23
  -3   1 -11  191.84   29.65
   3  -1  11  142.48   22.11
   3  -1  11   70.75   21.98
  -3   1 -12   15.22   16.19
  -3   1 -12    3.51   20.35
   3  -1  12   10.34   13.92
   3  -1  12    7.02   18.79
  -3   1 -13    9.30   17.30
  -3   1 -13    7.54   22.24
   3  -1  13   21.33   15.22
   3  -1  13   29.52   18.79
  -3   1 -14  121.41   27.38
  -3   1 -14  119.65   30.95
   3  -1  14   76.54   21.13
   3  -1  14   59.50   25.75
  -3   0  16    7.87   15.41
   3   0 -16   12.42   19.70
  -3   0  15  148.66   25.04
  -3   0  15  147.36   25.88
   3   0 -15  167.06   30.89
  -3   0  14  100.47   20.68
  -3   0  14  138.97   24.06
   3   0 -14  137.67   26.92
   3   0 -14  168.49   28.55
  -3   0  13   47.34   15.28
  -3   0  13   48.90   17.56
   3   0 -13   59.57   19.51
   3   0 -13   58.01   19.83
  -3   0  12   58.79   15.87
  -3   0  12   64.38   16.84
   3   0 -12   77.51   19.83
   3   0 -12   67.04   17.56
  -3   0  11    7.93   10.53
  -3   0  11    7.54   12.23
   3   0 -11   14.37   12.29
   3   0 -11   11.58   11.90
  -3   0  10  196.19   20.35
  -3   0  10  217.13   23.41
  -3   0  10  217.20   22.04
   3   0 -10  201.53   21.98
   3   0 -10  193.40   17.82
   3   0 -10  219.54   22.57
   3   0 -10  207.38   20.81
  -3   0   9  223.63   19.70
  -3   0   9  219.34   21.59
  -3   0   9  237.23   20.55
  -3   0   9  219.02   21.00
   3   0  -9  217.46   20.48
   3   0  -9  265.97   18.60
   3   0  -9  222.79   21.20
   3   0  -9  247.76   19.77
  -3   0   8  116.40   15.93
  -3   0   8  114.26   16.71
  -3   0   8  125.31   16.71
  -3   0   8  124.27   17.56
   3   0  -8  136.95   17.43
   3   0  -8  155.74   15.67
   3   0  -8  138.06   17.75
   3   0  -8  132.20   15.74
  -3   0   7  288.47   19.12
  -3   0   7  303.62   20.87
  -3   0   7  280.73   19.12
  -3   0   7  285.28   20.55
   3   0  -7  322.87   20.68
   3   0  -7  330.22   18.86
   3   0  -7  317.02   13.27
   3   0  -7  326.38   21.39
   3   0  -7  268.11   19.31
   3   0  -7  293.74   18.53
  -3   0   6 1498.86   36.55
  -3   0   6 1557.77   39.54
  -3   0   6 1581.83   38.30
  -3   0   6 1434.02   37.59
   3   0  -6 1578.00   38.37
   3   0  -6 1685.29   36.68
   3   0  -6 1716.64   28.42
   3   0  -6 1497.88   38.69
   3   0  -6 1476.49   37.78
   3   0  -6 1588.86   35.83
  -3   0   5 1061.73   29.72
  -3   0   5 1028.63   31.21
  -3   0   5 1082.41   31.41
  -3   0   5  988.38   30.30
   3   0  -5 1109.46   30.82
   3   0  -5 1145.88   25.23
   3   0  -5 1039.55   31.28
   3   0  -5 1020.83   30.37
   3   0  -5 1089.37   28.16
  -3   0   4 1275.68   30.63
  -3   0   4 1265.21   31.99
  -3   0   4 1265.99   31.86
  -3   0   4 1158.95   30.82
   3   0  -4 1358.00   31.93
   3   0  -4 1429.60   32.25
   3   0  -4 1384.40   27.05
   3   0  -4 1293.30   32.38
   3   0  -4 1253.11   31.54
   3   0  -4 1371.33   29.33
  -3   0   3  413.06   18.14
  -3   0   3  433.94   19.05
  -3   0   3  428.67   18.99
  -3   0   3  369.89   18.53
   3   0  -3  444.47   18.92
   3   0  -3  458.78   18.99
   3   0  -3  420.02   19.25
   3   0  -3  394.47   18.14
  -3   0   2  114.71   12.10
  -3   0   2  121.15   12.36
  -3   0   2  118.09   13.14
   3   0  -2  113.74   11.45
   3   0  -2  115.30   11.84
   3   0  -2  110.48   12.68
   3   0  -2  103.66   11.38
  -3   0   1  787.50   22.83
  -3   0   1   38.24    5.07
  -3   0   1  836.14   19.70
  -3   0   1  834.97   22.76
  -3   0   1  775.28   24.00
   3   0  -1  884.66   23.93
   3   0  -1  904.62   16.32
   3   0  -1  840.44   19.18
   3   0  -1  500.14   19.18
   3   0  -1  853.64   24.78
   3   0  -1  780.28   23.41
  -3   0   0  563.09   20.29
  -3   0   0  636.83   16.97
  -3   0   0  604.38   18.66
  -3   0   0  544.29   21.07
   3   0   0  692.62   21.65
   3   0   0  678.64   16.45
   3   0   0  642.55   16.52
   3   0   0  234.43   14.05
   3   0   0  639.89   21.98
   3   0   0  574.01   20.61
  -3   0  -1    7.74    6.44
  -3   0  -1   10.92    5.53
  -3   0  -1   11.45    5.92
  -3   0  -1    6.31    7.22
   3   0   1    8.32    5.85
   3   0   1   11.90    4.88
   3   0   1   14.31    5.07
   3   0   1    1.37    5.07
   3   0   1   14.89    6.76
   3   0   1    8.06    5.92
  -3   0  -2   -1.89    6.24
  -3   0  -2   -4.49    5.20
  -3   0  -2    2.80    5.40
  -3   0  -2   -0.59    6.70
   3   0   2   -3.32    5.20
   3   0   2    1.43    4.16
   3   0   2    0.65    4.94
   3   0   2   -1.63    5.66
   3   0   2   -0.26    5.72
  -3   0  -3  150.35   14.18
  -3   0  -3  169.73   13.14
  -3   0  -3  154.44   11.64
  -3   0  -3  159.58   15.15
   3   0   3  173.82   13.53
   3   0   3   -1.43    4.62
   3   0   3   55.60    8.84
   3   0   3  148.66   14.31
  -3   0  -4   -2.73    7.02
  -3   0  -4    5.20    6.89
  -3   0  -4    6.70    6.37
  -3   0  -4    1.43    7.61
   3   0   4   14.05    6.83
   3   0   4   -5.40    5.33
   3   0   4    4.88    5.85
   3   0   4    3.84    6.83
  -3   0  -5  100.40   14.70
  -3   0  -5  105.80   13.59
  -3   0  -5   98.39   11.45
  -3   0  -5   89.81   13.79
   3   0   5   99.56   13.66
   3   0   5   -1.76    4.94
   3   0   5   68.28   10.14
   3   0   5  104.57   14.63
  -3   0  -6  261.03   19.96
  -3   0  -6  276.63   19.05
  -3   0  -6  238.07   15.67
  -3   0  -6  228.51   20.16
   3   0   6  254.98   18.21
   3   0   6   -1.50    5.14
   3   0   6  190.01   13.46
   3   0   6  239.70   19.38
  -3   0  -7   33.36   11.32
  -3   0  -7   48.12   12.03
  -3   0  -7   31.02    9.88
  -3   0  -7   31.99   12.03
   3   0   7   42.59   11.51
   3   0   7   -5.20    5.27
   3   0   7   42.98    8.84
   3   0   7   34.66   11.05
  -3   0  -8   74.72   14.83
  -3   0  -8   99.36   17.10
   3   0   8   91.43   15.80
   3   0   8   11.77   11.19
   3   0   8   98.65   13.98
   3   0   8  109.12   17.23
  -3   0  -9  150.02   20.48
  -3   0  -9  160.36   21.46
   3   0   9  127.26   18.53
   3   0   9   -1.04    7.35
   3   0   9  115.56   12.88
   3   0   9  145.73   20.87
  -3   0 -10   11.97   12.29
  -3   0 -10   17.75   13.92
   3   0  10   10.34   10.79
   3   0  10    7.41    9.82
  -3   0 -11  174.02   25.36
  -3   0 -11  196.06   27.31
   3   0  11  158.02   22.17
   3   0  11   -5.40    9.95
  -3   0 -12  155.48   25.10
  -3   0 -12  211.08   30.30
   3   0  12  139.23   23.09
   3   0  12   -5.59   11.77
  -3   0 -13  148.20   26.53
  -3   0 -13  157.89   29.72
   3   0  13  135.72   24.19
   3   0  13   -0.39   15.67
  -3   0 -14   -1.56   19.12
  -3   0 -14    0.39   20.48
   3   0  14   -6.44   14.50
   3   0  14    6.31   18.99
  -3   0 -15   39.67   22.83
  -3   0 -15   52.28   28.61
   3   0  15   24.84   18.73
   3   0  15   12.88   20.48
  -3  -1  15   12.42   15.35
  -3  -1  15   32.12   19.25
   3   1 -15   12.55   19.18
   3   1 -15    3.19   15.54
  -3  -1  14   40.64   16.26
  -3  -1  14   29.59   18.99
   3   1 -14   26.79   18.66
   3   1 -14   10.08   15.09
  -3  -1  13  140.72   22.30
  -3  -1  13  133.76   23.80
   3   1 -13  181.89   27.51
   3   1 -13  172.00   26.92
  -3  -1  12  121.54   19.96
  -3  -1  12  135.52   22.70
   3   1 -12  134.29   22.83
   3   1 -12  130.90   22.57
  -3  -1  11   14.96   10.92
  -3  -1  11   28.22   14.05
   3   1 -11   42.40   15.02
   3   1 -11   36.16   14.57
   3   1 -11   15.22   11.77
  -3  -1  10   10.08    9.62
  -3  -1  10   14.37    7.67
  -3  -1  10    2.47   10.86
   3   1 -10   13.27   10.99
   3   1 -10   23.80    9.69
   3   1 -10   16.58   10.73
   3   1 -10    4.68   10.21
  -3  -1   9  280.67   21.00
  -3  -1   9   -2.02    4.75
  -3  -1   9  314.87   23.80
   3   1  -9  310.84   23.67
   3   1  -9  334.38   19.64
   3   1  -9  332.04   24.58
   3   1  -9  332.43   23.67
  -3  -1   8   23.74    9.43
  -3  -1   8   31.21   11.45
  -3  -1   8   33.69   11.32
  -3  -1   8   21.98   10.27
   3   1  -8   29.00   10.79
   3   1  -8   38.30    9.43
   3   1  -8   39.15   11.32
   3   1  -8   27.96   10.08
   3   1  -8   23.93   10.08
  -3  -1   7   76.15   12.03
  -3  -1   7   80.38   14.05
  -3  -1   7   94.23   14.50
  -3  -1   7   80.31   13.40
   3   1  -7  112.70   15.74
   3   1  -7  112.70   12.81
   3   1  -7   89.02   14.44
   3   1  -7   71.21   12.75
   3   1  -7   89.74   13.79
  -3  -1   6   29.39    8.45
  -3  -1   6   34.01   10.73
  -3  -1   6   31.99    9.69
  -3  -1   6   27.90    9.17
   3   1  -6   27.96    9.10
   3   1  -6   36.87    9.43
   3   1  -6   30.82    9.36
   3   1  -6   21.26    8.13
   3   1  -6   25.43    8.52
  -3  -1   5  921.46   26.99
  -3  -1   5  959.24   30.69
  -3  -1   5  960.48   30.24
  -3  -1   5  914.96   28.74
   3   1  -5 1057.05   29.65
   3   1  -5 1040.34   21.59
   3   1  -5  987.53   30.04
   3   1  -5  934.86   28.68
   3   1  -5 1024.27   29.52
  -3  -1   4   15.02    6.89
  -3  -1   4   17.30    8.13
  -3  -1   4   11.32    7.48
  -3  -1   4   16.71    7.61
   3   1  -4   23.54    7.67
   3   1  -4   18.14    6.89
   3   1  -4    7.80    7.15
   3   1  -4   14.63    6.70
   3   1  -4   16.58    7.41
  -3  -1   3   27.44    7.35
  -3  -1   3   26.79    8.13
  -3  -1   3   27.83    8.13
  -3  -1   3   25.23    7.80
   3   1  -3   28.09    7.87
   3   1  -3   39.28    8.71
   3   1  -3   41.16    8.97
   3   1  -3   29.39    7.67
   3   1  -3   29.59    8.13
  -3  -1   2   45.26    8.13
  -3  -1   2   58.92    9.62
  -3  -1   2   45.65    8.71
  -3  -1   2   40.64    8.13
   3   1  -2   59.63    8.91
   3   1  -2   27.70    7.74
   3   1  -2   59.44    9.56
   3   1  -2   56.19    9.04
  -3  -1   1  204.58   13.07
  -3  -1   1  212.12   13.20
  -3  -1   1  190.15   12.49
  -3  -1   1  204.78   13.14
  -3  -1   1  183.38   13.53
   3   1  -1  225.39   13.40
   3   1  -1   52.22    8.65
   3   1  -1  211.73   13.92
   3   1  -1  208.87   13.20
  -3  -1   0   56.77    8.39
  -3  -1   0   57.75    8.58
  -3  -1   0   66.07    8.26
  -3  -1   0   54.10    9.04
   3   1   0   58.53    8.84
   3   1   0   13.14    3.64
   3   1   0    9.56    5.27
   3   1   0   62.62    9.88
   3   1   0   56.64    9.04
  -3  -1  -1   93.38   10.79
  -3  -1  -1   90.20   10.47
  -3  -1  -1   89.81    8.71
  -3  -1  -1   82.85   10.53
   3   1   1  101.25   10.60
   3   1   1   51.83    8.78
   3   1   1   85.71    8.13
   3   1   1   98.78   11.51
   3   1   1   87.53   10.53
  -3  -1  -2  140.92   12.36
  -3  -1  -2  152.30   12.29
  -3  -1  -2  136.63    9.43
  -3  -1  -2  149.44   13.07
   3   1   2  151.58   12.16
   3   1   2  105.54   11.05
   3   1   2  140.98    8.45
   3   1   2  143.39   12.94
   3   1   2  144.17   12.42
  -3  -1  -3   74.00   11.05
  -3  -1  -3   70.49   10.53
  -3  -1  -3   69.91    7.61
  -3  -1  -3   62.36   10.53
   3   1   3   89.09   11.25
   3   1   3   72.31   10.47
   3   1   3   63.73    6.96
   3   1   3   76.73   11.25
   3   1   3   71.53   10.60
  -3  -1  -4   21.65    8.26
  -3  -1  -4   18.08    8.00
  -3  -1  -4   14.96    5.59
  -3  -1  -4   17.88    8.06
   3   1   4   11.97    6.96
   3   1   4   16.06    7.02
   3   1   4   19.44    7.67
   3   1   4   20.42    8.13
  -3  -1  -5  769.88   27.18
  -3  -1  -5  827.43   27.05
  -3  -1  -5  738.47   18.99
  -3  -1  -5  699.00   26.99
   3   1   5  820.67   27.38
   3   1   5  807.66   26.47
   3   1   5  780.61   27.96
  -3  -1  -6  462.75   23.28
  -3  -1  -6  435.17   22.37
  -3  -1  -6  375.02   15.67
  -3  -1  -6  379.51   22.63
   3   1   6  434.00   21.98
   3   1   6  415.08   18.60
   3   1   6  405.33   22.57
  -3  -1  -7    8.65    9.36
  -3  -1  -7   11.77    8.97
  -3  -1  -7   11.84    6.89
  -3  -1  -7    4.81    8.97
   3   1   7   17.75    8.97
   3   1   7   17.75    7.87
   3   1   7   18.66    9.49
  -3  -1  -8  152.95   18.34
  -3  -1  -8  158.48   19.31
   3   1   8  143.78   16.78
   3   1   8  144.04   14.11
   3   1   8  177.33   19.25
  -3  -1  -9   39.15   13.14
  -3  -1  -9   39.60   13.07
   3   1   9   41.36   12.23
   3   1   9   29.46    9.82
   3   1   9   41.16   12.94
  -3  -1 -10   61.97   16.26
  -3  -1 -10   54.10   16.97
  -3  -1 -10   56.71   14.89
   3   1  10   38.63   13.27
   3   1  10   60.22   12.03
   3   1  10   41.29   14.50
  -3  -1 -11   13.59   13.72
  -3  -1 -11    3.77   14.31
  -3  -1 -11   20.48   12.88
   3   1  11   13.79   11.58
  -3  -1 -12   26.53   15.67
  -3  -1 -12   36.68   18.01
   3   1  12   26.08   13.92
   3   1  12   10.86   13.14
  -3  -1 -13   31.02   18.73
  -3  -1 -13   42.07   21.07
   3   1  13   38.63   16.91
   3   1  13   14.83   16.91
  -3  -1 -14  138.58   26.34
  -3  -1 -14  169.01   31.80
   3   1  14  104.96   22.76
   3   1  14    2.54   13.59
  -3  -1 -15    5.40   19.18
  -3  -1 -15    7.61   22.57
   3   1  15  -12.03   14.18
   3   1  15   52.67   22.83
  -3  -2  15   71.14   19.77
  -3  -2  15   89.35   25.69
   3   2 -15   53.06   22.83
   3   2 -15   71.53   22.70
  -3  -2  14   -2.93   12.29
  -3  -2  14   14.44   18.47
   3   2 -14   21.13   18.79
   3   2 -14   -0.46   15.09
  -3  -2  13   32.77   14.89
  -3  -2  13   16.58   16.71
   3   2 -13   43.18   18.86
   3   2 -13   31.08   16.52
  -3  -2  12  118.68   19.44
  -3  -2  12  108.40   21.33
   3   2 -12  115.10   22.37
   3   2 -12  104.70   20.55
  -3  -2  11   16.65   10.99
  -3  -2  11   26.92   11.45
  -3  -2  11   23.80   14.57
   3   2 -11   44.54   15.87
   3   2 -11   16.32   12.42
   3   2 -11   37.07   14.96
  -3  -2  10  103.53   16.32
  -3  -2  10   48.84   11.45
  -3  -2  10  114.84   20.29
   3   2 -10  103.66   19.05
   3   2 -10  117.18   14.57
   3   2 -10  156.00   22.70
   3   2 -10  127.20   21.00
  -3  -2   9  160.62   17.30
  -3  -2   9   94.49   12.23
  -3  -2   9  161.60   21.78
   3   2  -9  177.07   20.16
   3   2  -9  162.96   15.35
   3   2  -9  160.23   19.64
   3   2  -9  159.19   19.57
  -3  -2   8   69.45   12.81
  -3  -2   8   52.54   10.86
  -3  -2   8   84.08   15.28
   3   2  -8   81.09   14.89
   3   2  -8   86.75   12.42
   3   2  -8   73.61   14.70
   3   2  -8   91.63   16.91
  -3  -2   7   15.48    7.54
  -3  -2   7   14.05    5.98
  -3  -2   7   15.22    9.88
  -3  -2   7    9.17    7.35
   3   2  -7   25.10    9.69
   3   2  -7   20.22    7.67
   3   2  -7   20.22    9.04
   3   2  -7   22.70    8.65
   3   2  -7   23.15    9.49
  -3  -2   6   52.28    9.82
  -3  -2   6   50.27   11.71
  -3  -2   6   17.10    6.83
   3   2  -6   66.91   11.97
   3   2  -6   70.56   10.66
   3   2  -6   60.15   11.90
   3   2  -6   61.45   11.84
   3   2  -6   55.27   11.97
  -3  -2   5   33.29    8.06
  -3  -2   5   28.74    9.49
  -3  -2   5   27.51    9.17
  -3  -2   5   -0.33    3.38
   3   2  -5   49.42    9.04
   3   2  -5   44.41    9.82
   3   2  -5   29.85    8.06
   3   2  -5   34.47    9.95
  -3  -2   4  184.36   12.81
  -3  -2   4  191.51   16.00
  -3  -2   4  194.31   16.00
  -3  -2   4    2.34    2.54
   3   2  -4  213.82   14.70
   3   2  -4  157.57   13.98
   3   2  -4  208.35   15.22
   3   2  -4  194.89   13.92
   3   2  -4  211.86   15.93
  -3  -2   3  114.26   10.73
  -3  -2   3  102.49   12.55
  -3  -2   3  109.18   12.49
   3   2  -3  129.15   12.03
   3   2  -3   39.54    8.06
   3   2  -3  108.79   12.23
   3   2  -3  119.13   11.45
   3   2  -3  121.34   12.94
  -3  -2   2   75.56    9.36
  -3  -2   2   80.83   10.34
  -3  -2   2   85.51   11.19
  -3  -2   2   30.11    6.11
   3   2  -2   82.00    9.95
   3   2  -2   17.10    6.37
   3   2  -2   94.29   11.25
   3   2  -2   80.83   10.14
  -3  -2   1   49.42    7.61
  -3  -2   1   54.88    9.30
  -3  -2   1   62.30    8.78
  -3  -2   1   55.60    9.30
  -3  -2   1   13.66    4.68
   3   2  -1   72.12    9.43
   3   2  -1   29.59    8.06
   3   2  -1   65.48    9.75
   3   2  -1   51.18    8.19
  -3  -2   0    7.28    5.01
  -3  -2   0    8.06    6.89
  -3  -2   0    3.12    4.55
  -3  -2   0    9.17    5.66
  -3  -2   0    1.69    2.34
   3   2   0    3.38    4.94
   3   2   0    8.45    5.72
   3   2   0    5.92    5.72
   3   2   0    9.62    5.33
  -3  -2  -1   26.92    6.63
  -3  -2  -1   29.59    7.74
  -3  -2  -1   37.98    6.18
  -3  -2  -1   37.78    7.48
  -3  -2  -1    0.07    2.60
   3   2   1   36.22    7.41
   3   2   1   40.84    8.71
   3   2   1   39.80    6.05
   3   2   1   36.87    7.93
   3   2   1   28.94    6.96
  -3  -2  -2 1726.98   30.17
  -3  -2  -2 1772.43   32.90
  -3  -2  -2 1832.58   29.00
  -3  -2  -2  942.21   24.06
   3   2   2 1926.75   32.64
   3   2   2 1879.99   34.73
   3   2   2 1839.80   33.29
   3   2   2 1662.53   31.41
  -3  -2  -3  143.71   12.55
  -3  -2  -3  137.34   13.59
  -3  -2  -3  124.99   12.42
   3   2   3  160.49   12.62
   3   2   3  151.71   13.33
   3   2   3  145.01   13.20
   3   2   3  114.78   11.58
  -3  -2  -4   -2.80    6.24
  -3  -2  -4    6.70    7.80
  -3  -2  -4    5.72    7.28
   3   2   4    0.98    5.98
   3   2   4    9.10    6.96
   3   2   4   11.32    6.37
   3   2   4    5.01    6.70
  -3  -2  -5  240.41   16.58
  -3  -2  -5  234.43   17.62
  -3  -2  -5  235.08   17.56
   3   2   5  234.17   16.26
   3   2   5  262.78   16.58
   3   2   5  250.49   16.97
   3   2   5  240.02   17.43
  -3  -2  -6  434.39   21.78
  -3  -2  -6  453.25   23.15
  -3  -2  -6  405.78   22.24
   3   2   6  416.51   21.13
   3   2   6  424.18   19.96
   3   2   6  408.58   21.72
   3   2   6  434.78   22.70
  -3  -2  -7    4.55    8.39
  -3  -2  -7   10.60    8.65
   3   2   7   10.21    7.41
   3   2   7    7.48    7.09
   3   2   7    5.72    8.19
  -3  -2  -8  145.73   17.30
  -3  -2  -8  137.34   18.47
   3   2   8  131.62   16.26
   3   2   8  130.25   14.50
   3   2   8  123.75   17.17
  -3  -2  -9  113.28   16.97
  -3  -2  -9   82.91   16.13
   3   2   9   98.00   15.74
   3   2   9  124.01   15.22
   3   2   9  106.97   17.69
  -3  -2 -10   38.50   13.33
  -3  -2 -10   31.67   14.05
  -3  -2 -10   33.69   12.16
   3   2  10   40.84   13.01
   3   2  10   27.44   10.60
   3   2  10   33.82   12.81
  -3  -2 -11    7.48   12.23
  -3  -2 -11  -11.97   13.14
  -3  -2 -11   -7.09   10.27
   3   2  11    2.02    9.82
   3   2  11   -7.74    8.58
   3   2  11   -1.43   10.73
  -3  -2 -12   45.52   17.10
  -3  -2 -12   43.70   19.51
   3   2  12   37.65   14.50
  -3  -2 -13    6.70   14.37
  -3  -2 -13    9.36   17.49
   3   2  13   -8.19   11.45
  -3  -2 -14   51.37   19.96
  -3  -2 -14   71.60   24.39
   3   2  14   53.65   18.99
  -3  -2 -15    4.88   17.30
  -3  -2 -15   -9.56   20.68
   3   2  15    7.80   16.65
   3   2  15  -11.84   17.23
  -3  -2 -16    1.95   19.25
  -3  -2 -16   -3.51   24.06
   3   2  16   -9.36   16.39
   3   2  16   27.70   19.90
  -3  -3  14   85.64   26.99
  -3  -3  14  131.42   27.90
   3   3 -14   95.92   26.14
   3   3 -14  114.13   24.52
  -3  -3  13    3.06   11.90
  -3  -3  13    4.03   16.84
   3   3 -13   10.40   16.52
   3   3 -13   10.21   14.18
  -3  -3  12   80.64   16.71
  -3  -3  12   64.44   20.03
   3   3 -12   95.46   22.83
   3   3 -12   70.43   19.77
  -3  -3  11  125.31   18.47
  -3  -3  11  113.15   22.44
   3   3 -11  119.72   22.24
   3   3 -11  110.03   20.42
   3   3 -11  145.41   24.32
  -3  -3  10  160.69   18.40
  -3  -3  10  155.35   17.62
  -3  -3  10  203.22   25.75
   3   3 -10  205.62   25.36
   3   3 -10  208.22   25.95
   3   3 -10  196.19   23.54
  -3  -3   9   24.78    9.49
  -3  -3   9   13.01    7.74
  -3  -3   9   18.21   12.10
   3   3  -9   18.34   11.38
   3   3  -9    9.75   10.34
   3   3  -9    8.39   10.86
  -3  -3   8  186.96   16.39
  -3  -3   8  183.97   14.24
  -3  -3   8  178.50   21.20
   3   3  -8  195.35   19.70
   3   3  -8  195.67   14.57
   3   3  -8  172.13   18.86
   3   3  -8  179.94   20.55
  -3  -3   7  217.39   15.93
  -3  -3   7  222.53   15.41
  -3  -3   7  258.43   21.65
  -3  -3   7  199.38   19.96
   3   3  -7  272.60   19.96
   3   3  -7  285.87   16.26
   3   3  -7  250.88   19.83
   3   3  -7  241.26   18.79
   3   3  -7  244.05   20.68
  -3  -3   6   11.12    6.57
  -3  -3   6   16.97    5.53
  -3  -3   6    6.11    8.39
  -3  -3   6   13.01    7.54
   3   3  -6    3.32    7.28
   3   3  -6   14.24    6.57
   3   3  -6   10.21    7.74
   3   3  -6   19.31    8.39
   3   3  -6    4.23    7.80
  -3  -3   5   10.01    5.98
  -3  -3   5   12.16    4.75
  -3  -3   5   21.07    9.17
  -3  -3   5    3.84    6.44
   3   3  -5   15.54    7.41
   3   3  -5   21.07    7.22
   3   3  -5   14.37    7.74
   3   3  -5   10.86    6.44
   3   3  -5   14.96    8.71
  -3  -3   4  375.41   15.74
  -3  -3   4  393.69   21.46
  -3  -3   4  414.43   18.60
   3   3  -4  441.35   19.05
   3   3  -4  169.01   12.68
   3   3  -4  394.92   19.12
   3   3  -4  387.57   18.27
   3   3  -4  425.75   21.78
  -3  -3   3   12.49    5.20
  -3  -3   3   16.45    8.13
  -3  -3   3   13.85    6.44
   3   3  -3   13.98    6.50
   3   3  -3   -2.34    4.68
   3   3  -3   17.95    7.28
   3   3  -3   14.89    6.50
   3   3  -3   16.91    7.41
  -3  -3   2  482.52   14.57
  -3  -3   2  463.14   14.63
  -3  -3   2  449.03   20.16
  -3  -3   2  450.72   16.97
   3   3  -2  537.92   18.01
   3   3  -2  212.12   13.07
   3   3  -2  493.05   18.47
   3   3  -2  427.76   16.91
   3   3  -2  478.35   21.00
  -3  -3   1  170.18    9.62
  -3  -3   1  195.15   15.41
  -3  -3   1  156.39   13.40
  -3  -3   1  161.60   11.51
   3   3  -1  191.71   11.71
   3   3  -1  159.84   12.23
   3   3  -1  181.82   12.62
   3   3  -1  146.06   10.92
  -3  -3   0    0.00    3.71
  -3  -3   0    1.82    4.03
  -3  -3   0    1.63    6.83
  -3  -3   0    4.23    5.53
  -3  -3   0    4.23    5.40
   3   3   0    1.82    4.49
   3   3   0    5.33    3.25
   3   3   0    0.72    5.01
   3   3   0    5.72    5.46
   3   3   0    2.67    4.42
  -3  -3  -1  349.14   12.16
  -3  -3  -1  321.70   12.29
  -3  -3  -1  349.60   17.62
  -3  -3  -1  339.58   15.09
  -3  -3  -1  313.57   14.18
   3   3   1  390.76   14.57
   3   3   1  364.68   17.62
   3   3   1  334.64   11.84
   3   3   1  354.21   15.15
   3   3   1  326.58   14.18
  -3  -3  -2   -1.69    3.97
  -3  -3  -2   -6.89    4.23
  -3  -3  -2    1.89    6.70
  -3  -3  -2   -3.77    4.49
  -3  -3  -2    3.90    5.40
   3   3   2    1.11    4.81
   3   3   2   -5.79    5.59
   3   3   2    5.46    5.72
   3   3   2   -1.69    4.62
  -3  -3  -3   -0.46    4.75
  -3  -3  -3    7.02    7.22
  -3  -3  -3    1.76    4.36
  -3  -3  -3    1.69    3.90
   3   3   3    5.92    5.59
   3   3   3   -0.39    6.50
   3   3   3    9.30    6.24
   3   3   3   -0.72    5.27
  -3  -3  -4   41.23    8.58
  -3  -3  -4   37.26    9.75
  -3  -3  -4   42.66    6.37
  -3  -3  -4    3.51    4.03
   3   3   4   47.34    8.91
   3   3   4   43.37   10.08
   3   3   4   43.18    8.78
   3   3   4   43.63    9.17
  -3  -3  -5   25.23    8.32
  -3  -3  -5   27.31    9.82
  -3  -3  -5   26.27    8.52
   3   3   5   26.01    8.26
   3   3   5   26.86    8.58
   3   3   5   32.64    8.32
   3   3   5   31.86    9.17
  -3  -3  -6    4.36    7.74
  -3  -3  -6   13.07    8.71
  -3  -3  -6   12.23    8.19
   3   3   6    9.75    6.96
   3   3   6   10.53    7.74
   3   3   6   -2.86    6.57
   3   3   6    8.45    7.80
  -3  -3  -7   26.14    9.82
  -3  -3  -7    3.25    8.26
   3   3   7   20.74    7.87
   3   3   7   22.70    9.10
   3   3   7   23.35    9.56
   3   3   7   16.71    9.10
  -3  -3  -8   83.50   14.50
  -3  -3  -8   71.27   13.79
   3   3   8   73.42   13.07
   3   3   8   75.63   12.81
   3   3   8   84.86   14.31
  -3  -3  -9   22.70   11.51
  -3  -3  -9   24.97   11.71
  -3  -3  -9   27.18   10.60
   3   3   9   35.64   11.05
   3   3   9   40.45   11.05
   3   3   9   20.68   11.05
  -3  -3 -10   63.60   15.54
  -3  -3 -10   57.75   15.35
  -3  -3 -10   58.98   13.92
   3   3  10   51.70   13.53
   3   3  10   71.53   13.46
   3   3  10   38.11   12.42
  -3  -3 -11   22.11   13.20
  -3  -3 -11   27.12   14.89
   3   3  11   13.53   11.38
   3   3  11   32.64   11.51
   3   3  11   26.73   13.66
  -3  -3 -12   -2.93   12.81
  -3  -3 -12   -2.73   14.44
   3   3  12   -2.21   10.21
   3   3  12   11.25   10.86
   3   3  12   20.74   14.37
  -3  -3 -13   21.78   15.80
  -3  -3 -13   35.64   19.70
   3   3  13   26.60   14.37
  -3  -3 -14   36.87   17.69
  -3  -3 -14   35.05   21.78
   3   3  14   58.53   18.60
  -3  -3 -15   54.62   20.42
  -3  -3 -15   78.69   27.18
   3   3  15   43.24   18.40
  -3  -3 -16   25.75   20.16
  -3  -3 -16    6.11   23.28
   3   3  16   -4.36   16.19
  -3  -4  13   -7.15   16.06
   3   4 -13   -1.04   18.08
   3   4 -13    2.08   14.37
  -3  -4  12   23.61   16.91
   3   4 -12   36.09   18.86
   3   4 -12   19.96   14.31
  -3  -4  11  110.22   17.17
  -3  -4  11  142.61   25.30
   3   4 -11  176.68   26.73
   3   4 -11  164.91   24.65
   3   4 -11  169.01   27.38
  -3  -4  10    0.26    8.39
  -3  -4  10   -4.55   12.16
   3   4 -10   11.25   13.01
   3   4 -10   19.12   12.10
   3   4 -10    4.16   12.88
  -3  -4   9   64.64   12.49
  -3  -4   9   -5.14   12.42
  -3  -4   9   83.17   18.27
   3   4  -9   45.59   13.98
   3   4  -9   73.55   16.58
   3   4  -9   66.78   16.84
  -3  -4   8    3.19    6.96
  -3  -4   8   -3.19    6.18
  -3  -4   8    3.64   11.32
   3   4  -8   21.52   10.53
   3   4  -8    3.06    9.10
   3   4  -8   -0.26    9.95
  -3  -4   7  100.73   12.29
  -3  -4   7   95.72   11.71
  -3  -4   7  110.61   18.21
   3   4  -7   89.48   14.89
   3   4  -7   91.69   14.76
   3   4  -7   74.78   15.28
  -3  -4   6    1.04    5.27
  -3  -4   6    2.15    5.01
  -3  -4   6   -7.74    7.67
  -3  -4   6   -3.90    6.37
   3   4  -6   -0.20    6.18
   3   4  -6    1.30    5.72
   3   4  -6    0.78    6.96
   3   4  -6    1.56    6.50
   3   4  -6   -2.99    7.54
  -3  -4   5   39.73    7.09
  -3  -4   5   36.48   11.25
  -3  -4   5   23.67    8.00
   3   4  -5   32.38    8.84
   3   4  -5   11.12    5.98
   3   4  -5   37.52    9.36
   3   4  -5   25.49    8.13
   3   4  -5   34.47   10.66
  -3  -4   4  349.60   13.92
  -3  -4   4  311.16   20.74
  -3  -4   4  322.87   16.52
   3   4  -4   65.09    9.23
   3   4  -4  335.68   17.75
   3   4  -4  301.41   16.58
   3   4  -4  363.77   21.65
  -3  -4   3  198.66   10.73
  -3  -4   3  222.27   17.56
  -3  -4   3  183.06   12.49
   3   4  -3  228.51   13.72
   3   4  -3   65.42    9.23
   3   4  -3  223.37   14.37
   3   4  -3  184.42   12.75
   3   4  -3  256.93   18.14
  -3  -4   2    6.37    7.15
  -3  -4   2    5.53    5.27
   3   4  -2   11.51    5.46
   3   4  -2   22.04    7.22
   3   4  -2   11.97    6.18
   3   4  -2   10.40    5.53
   3   4  -2   18.66    7.93
  -3  -4   1  154.44   15.54
  -3  -4   1  131.88   13.40
   3   4  -1  146.06   10.14
   3   4  -1  124.66    8.13
   3   4  -1  152.36   12.29
   3   4  -1  132.53   10.99
   3   4  -1  128.24   10.01
  -3  -4   0   97.35   13.01
  -3  -4   0   99.75   12.55
   3   4   0  113.02    9.10
   3   4   0   80.25    7.54
   3   4   0  113.02   12.16
   3   4   0   94.42    9.56
   3   4   0   90.98    9.04
  -3  -4  -1   45.07   10.27
  -3  -4  -1   44.48    8.58
  -3  -4  -1   43.24    6.70
   3   4   1   48.97    7.09
   3   4   1   60.28    8.52
   3   4   1   52.67   10.21
   3   4   1   47.54    7.48
   3   4   1   47.80    7.28
  -3  -4  -2   78.88   11.84
  -3  -4  -2   86.62    9.88
  -3  -4  -2   77.06    8.78
   3   4   2   90.46    8.97
   3   4   2   94.68   12.29
   3   4   2   88.63    9.82
   3   4   2   78.69    9.23
  -3  -4  -3    3.06    3.84
  -3  -4  -3   -1.95    4.03
  -3  -4  -3   -3.58    6.31
  -3  -4  -3    0.33    4.49
  -3  -4  -3   -1.43    5.14
   3   4   3    1.17    4.94
   3   4   3    2.60    6.63
   3   4   3    2.47    5.53
   3   4   3    3.38    5.01
  -3  -4  -4   37.20    7.41
  -3  -4  -4   41.10   10.21
  -3  -4  -4   38.69    6.24
  -3  -4  -4   34.53    7.93
   3   4   4   40.45    8.52
   3   4   4   43.89    9.82
   3   4   4   42.92    8.32
   3   4   4   45.91    9.10
  -3  -4  -5   23.93    7.41
  -3  -4  -5   31.15    9.62
  -3  -4  -5   31.28    7.41
   3   4   5   28.81    7.80
   3   4   5   30.30    9.10
   3   4   5   36.16    8.65
   3   4   5   24.32    8.52
  -3  -4  -6    8.52    7.09
  -3  -4  -6    6.89    8.65
  -3  -4  -6   -1.37    3.64
   3   4   6    6.83    6.57
   3   4   6    4.81    7.35
   3   4   6    5.07    6.63
   3   4   6   10.79    7.61
  -3  -4  -7  151.06   14.96
  -3  -4  -7  145.08   17.49
  -3  -4  -7  134.81   15.41
   3   4   7  129.15   14.11
   3   4   7  132.20   15.15
   3   4   7  132.98   15.35
   3   4   7  129.34   15.54
  -3  -4  -8  235.80   18.53
  -3  -4  -8  263.63   21.46
   3   4   8  226.63   18.08
   3   4   8  242.17   18.27
   3   4   8  185.72   17.82
   3   4   8  233.26   19.70
  -3  -4  -9   11.45    9.95
  -3  -4  -9    5.79   10.66
  -3  -4  -9   11.51    8.97
   3   4   9   13.14    9.10
   3   4   9   11.05    9.36
   3   4   9   13.79   10.27
   3   4   9   16.84    9.88
  -3  -4 -10    0.98    9.62
  -3  -4 -10   -1.17   10.21
  -3  -4 -10    4.10    9.75
   3   4  10    9.04    9.43
   3   4  10    7.22    9.10
   3   4  10   12.03    9.95
  -3  -4 -11   -3.38    9.95
  -3  -4 -11    0.07   11.97
   3   4  11   13.53   10.79
   3   4  11    3.12    9.62
   3   4  11    5.79   10.92
  -3  -4 -12   66.72   17.17
  -3  -4 -12   90.26   21.91
   3   4  12   87.59   17.43
   3   4  12   74.52   15.87
   3   4  12   62.62   17.17
  -3  -4 -13    0.65   14.18
  -3  -4 -13   -3.19   15.35
   3   4  13    8.45   12.42
   3   4  13   17.36   11.58
   3   4  13    9.82   13.85
  -3  -4 -14   44.87   18.34
  -3  -4 -14   48.84   21.65
   3   4  14   48.19   17.88
  -3  -4 -15  141.05   26.40
  -3  -4 -15  174.15   32.84
   3   4  15  102.42   22.70
  -3  -4 -16   77.19   23.15
  -3  -4 -16  109.51   30.50
   3   4  16   45.46   19.57
  -3  -5  13    6.18   19.44
   3   5 -13   21.59   19.83
   3   5 -13    3.71   14.63
  -3  -5  12   26.79   19.05
   3   5 -12   18.60   17.62
   3   5 -12   21.85   15.35
  -3  -5  11    8.19   16.19
   3   5 -11   -5.59   14.11
   3   5 -11    1.43   11.64
   3   5 -11   13.27   15.28
  -3  -5  10   29.91   16.26
   3   5 -10   27.18   14.70
   3   5 -10   10.34   12.62
   3   5 -10    2.73   13.14
  -3  -5   9  530.25   29.46
  -3  -5   9  479.85   34.21
   3   5  -9  568.61   32.19
   3   5  -9  526.35   31.02
   3   5  -9  533.50   35.51
  -3  -5   8   97.41   16.97
  -3  -5   8  195.15   26.21
   3   5  -8  169.47   21.52
   3   5  -8  171.74   21.59
   3   5  -8  185.46   25.69
  -3  -5   7   -5.79    5.92
  -3  -5   7    1.50   11.05
   3   5  -7    7.41    9.10
   3   5  -7    5.14    8.45
   3   5  -7   13.01   10.40
  -3  -5   6   33.10    8.45
  -3  -5   6   54.36   14.96
   3   5  -6   43.63   11.05
   3   5  -6   31.99    9.88
   3   5  -6   28.09   10.21
   3   5  -6   29.33   11.19
  -3  -5   5   48.25    8.91
  -3  -5   5   47.73   13.14
   3   5  -5   61.26   11.25
   3   5  -5   10.27    5.92
   3   5  -5   43.63   10.34
   3   5  -5   29.00    8.84
   3   5  -5   47.08   12.42
  -3  -5   4   23.28    6.76
  -3  -5   4   18.99    9.62
   3   5  -4    5.98    5.01
   3   5  -4   37.07    8.91
   3   5  -4   28.42    8.06
   3   5  -4   27.70    9.95
  -3  -5   3   66.07    8.78
  -3  -5   3   84.08   14.31
   3   5  -3   78.30   10.27
   3   5  -3   50.14    8.97
   3   5  -3   64.64    9.56
   3   5  -3   71.34    9.88
   3   5  -3   74.39   13.33
  -3  -5   2  333.92   14.57
  -3  -5   2  302.39   19.90
   3   5  -2  339.00   14.44
   3   5  -2  336.98   16.58
   3   5  -2  329.70   15.22
   3   5  -2  308.50   14.24
   3   5  -2  343.55   20.87
  -3  -5   1  160.95   11.45
  -3  -5   1  138.19   16.13
  -3  -5   1  145.67   15.02
   3   5  -1  197.49   17.62
   3   5  -1  143.26   15.02
  -3  -5   0   -0.20    7.41
  -3  -5   0   -1.37    6.11
   3   5   0    7.48    6.50
  -3  -5  -1    5.46    7.93
  -3  -5  -1    7.61    6.76
   3   5   1   18.66    7.41
  -3  -5  -2  238.14   17.43
  -3  -5  -2  252.44   14.63
   3   5   2  255.11   16.97
  -3  -5  -3   37.78   10.08
  -3  -5  -3   43.24    8.00
   3   5   3   49.75    7.48
   3   5   3   50.72   10.60
   3   5   3   44.94    7.93
   3   5   3   43.96    7.35
  -3  -5  -4  566.27   24.39
  -3  -5  -4  539.55   16.32
  -3  -5  -4  504.43   17.36
   3   5   4  557.56   18.08
   3   5   4  515.29   22.89
   3   5   4  540.07   18.40
   3   5   4  552.75   19.31
  -3  -5  -5  466.26   15.87
  -3  -5  -5  477.12   23.67
  -3  -5  -5  452.34   18.27
   3   5   5  495.85   18.86
   3   5   5  473.67   22.96
   3   5   5  462.94   19.05
   3   5   5  487.07   20.03
  -3  -5  -6   10.66    6.89
  -3  -5  -6    1.17    7.54
  -3  -5  -6    6.63    7.02
   3   5   6    4.10    6.50
   3   5   6    9.95    8.52
   3   5   6    8.06    7.02
   3   5   6    7.74    7.15
  -3  -5  -7   77.84   11.58
  -3  -5  -7   69.00   13.66
  -3  -5  -7   49.75   10.14
   3   5   7   60.48   11.45
   3   5   7   54.43   12.42
   3   5   7   48.51   10.86
   3   5   7   70.75   12.23
  -3  -5  -8  514.84   22.96
  -3  -5  -8  569.46   28.87
   3   5   8  532.13   24.71
   3   5   8  510.67   25.36
   3   5   8  506.84   25.23
   3   5   8  496.43   24.97
  -3  -5  -9  339.71   21.72
  -3  -5  -9  355.38   25.75
  -3  -5  -9  292.96   20.61
   3   5   9  318.45   21.91
   3   5   9  340.36   22.63
   3   5   9  351.55   23.74
   3   5   9  378.66   24.13
  -3  -5 -10   29.26   11.51
  -3  -5 -10    7.93   11.25
   3   5  10   13.98   10.53
   3   5  10   28.55   11.58
   3   5  10   23.15   11.38
  -3  -5 -11  457.93   27.70
  -3  -5 -11  541.56   33.62
   3   5  11  454.94   28.61
   3   5  11  479.07   27.96
   3   5  11  464.70   29.91
  -3  -5 -12  329.70   26.99
  -3  -5 -12  370.80   31.54
   3   5  12  318.45   27.12
   3   5  12  329.11   25.43
   3   5  12  331.84   28.74
  -3  -5 -13   14.11   13.98
  -3  -5 -13    4.49   16.84
   3   5  13   16.71   13.59
   3   5  13   -9.23    9.82
   3   5  13    9.30   13.98
  -3  -5 -14   37.52   16.52
  -3  -5 -14   19.90   17.95
   3   5  14   19.90   14.24
   3   5  14   17.17   13.20
   3   5  14   21.26   15.54
  -3  -5 -15  255.30   31.15
  -3  -5 -15  263.11   34.21
   3   5  15  278.78   31.99
  -3  -5 -16  138.06   26.27
  -3  -5 -16  162.38   33.88
   3   5  16  171.42   29.65
  -3  -5 -17   22.11   20.03
  -3  -5 -17    8.78   25.04
   3   5  17   -9.69   17.17
  -3  -6  12   51.96   23.28
   3   6 -12   38.89   20.81
   3   6 -12   43.24   18.53
  -3  -6  11  -23.48   14.31
   3   6 -11  -15.74   13.98
   3   6 -11   11.97   13.66
   3   6 -11    9.04   14.70
  -3  -6  10    3.71   15.93
   3   6 -10    0.00   12.88
   3   6 -10   -6.70   10.66
   3   6 -10    8.65   14.76
  -3  -6   9   33.56   16.84
   3   6  -9   38.76   14.70
   3   6  -9   27.05   13.14
   3   6  -9   39.15   17.23
  -3  -6   8   -7.87    7.74
  -3  -6   8   14.89   14.05
   3   6  -8    5.98   10.79
   3   6  -8    8.26    9.56
   3   6  -8    6.11   12.68
  -3  -6   7  -17.04    8.78
  -3  -6   7   18.34   13.33
   3   6  -7   26.60   11.25
   3   6  -7    9.56    9.30
   3   6  -7   28.48   13.01
  -3  -6   6    3.25    6.76
  -3  -6   6    8.45   11.05
   3   6  -6    6.57    8.65
   3   6  -6   -5.07    7.22
   3   6  -6    5.07    9.17
  -3  -6   5   93.25   13.07
  -3  -6   5   93.12   18.01
   3   6  -5  117.57   14.70
   3   6  -5  101.32   13.59
   3   6  -5  102.29   13.72
   3   6  -5   94.68   16.26
  -3  -6   4  165.11   14.37
  -3  -6   4  130.90   18.53
   3   6  -4  145.01   13.53
   3   6  -4   44.67    9.43
   3   6  -4  144.69   13.40
   3   6  -4  135.20   13.40
   3   6  -4  161.01   20.74
  -3  -6   3  294.97   16.65
  -3  -6   3  281.25   22.17
   3   6  -3  243.92   15.28
   3   6  -3  259.73   20.68
  -3  -6   2  603.79   21.26
  -3  -6   2  603.53   27.96
   3   6  -2  610.62   22.17
   3   6  -2  563.15   26.79
  -3  -6   1  115.49   12.10
  -3  -6   1  130.32   16.97
  -3  -6   1  124.21   16.19
   3   6  -1  137.08   13.20
   3   6  -1  124.21   15.28
  -3  -6   0    8.00    6.05
  -3  -6   0    6.89    8.45
  -3  -6   0    8.13    7.87
   3   6   0   13.46    6.76
  -3  -6  -1  247.18   19.51
  -3  -6  -1  251.14   17.17
   3   6   1  279.43   17.43
  -3  -6  -2 1060.43   33.23
  -3  -6  -2  990.39   27.70
   3   6   2 1016.21   30.69
  -3  -6  -3  378.14   21.26
  -3  -6  -3  364.29   16.91
   3   6   3  372.23   20.55
  -3  -6  -4   64.90   12.03
  -3  -6  -4   58.59    8.65
   3   6   4   55.60   11.71
   3   6   4   62.95    8.52
   3   6   4   59.63    8.91
  -3  -6  -5  745.88   29.07
  -3  -6  -5  703.35   18.27
  -3  -6  -5  595.80   20.16
   3   6   5  713.69   21.13
   3   6   5  660.83   27.18
   3   6   5  663.82   21.33
   3   6   5  736.97   22.63
  -3  -6  -6 1158.36   36.48
  -3  -6  -6  927.44   25.56
   3   6   6 1073.24   27.83
   3   6   6 1111.61   35.12
   3   6   6 1044.11   28.29
   3   6   6 1035.07   28.55
  -3  -6  -7   88.31   10.99
  -3  -6  -7  106.26   15.80
  -3  -6  -7   81.55   12.29
   3   6   7  119.26   13.85
   3   6   7  116.01   16.78
   3   6   7  103.59   13.27
   3   6   7  106.52   13.92
  -3  -6  -8  130.45   13.85
  -3  -6  -8  161.53   19.51
   3   6   8  133.76   15.61
   3   6   8  156.33   17.75
   3   6   8  129.99   16.26
   3   6   8  144.95   16.39
  -3  -6  -9  758.82   27.44
  -3  -6  -9  831.59   35.83
   3   6   9  772.29   30.50
   3   6   9  767.99   32.77
   3   6   9  716.56   30.37
   3   6   9  746.01   31.08
  -3  -6 -10  147.42   17.62
  -3  -6 -10  147.03   20.48
   3   6  10  150.48   19.70
   3   6  10  137.54   19.18
   3   6  10  138.45   18.40
  -3  -6 -11    7.93   10.40
  -3  -6 -11   -3.71   11.12
   3   6  11   17.36   12.75
   3   6  11    2.28   10.01
   3   6  11    2.86   10.92
  -3  -6 -12  144.04   20.35
  -3  -6 -12  158.09   25.23
   3   6  12  144.43   22.11
   3   6  12  141.05   21.59
   3   6  12  134.94   21.91
  -3  -6 -13  365.72   28.35
  -3  -6 -13  385.17   34.14
   3   6  13  346.60   30.04
   3   6  13  317.67   27.12
   3   6  13  321.24   30.24
  -3  -6 -14  312.14   29.72
  -3  -6 -14  329.89   35.70
   3   6  14  283.92   29.91
   3   6  14  286.19   27.05
   3   6  14  314.29   32.06
  -3  -6 -15   18.53   16.00
  -3  -6 -15   18.53   20.09
   3   6  15   24.26   16.32
   3   6  15   -0.72   13.20
   3   6  15   11.77   16.39
  -3  -6 -16   60.74   21.13
  -3  -6 -16   88.76   26.73
   3   6  16   55.27   20.87
  -3  -6 -17   62.62   22.37
  -3  -6 -17   77.64   28.68
   3   6  17   67.76   23.67
  -3  -7  11   38.95   20.74
   3   7 -11   32.84   19.25
   3   7 -11   23.74   15.22
   3   7 -11   58.07   21.91
  -3  -7  10    1.69   16.58
   3   7 -10    7.67   15.35
   3   7 -10    7.41   12.42
   3   7 -10    9.10   16.06
  -3  -7   9    6.96   15.41
   3   7  -9   -8.78   12.10
   3   7  -9    6.37   11.32
   3   7  -9   -0.52   13.33
  -3  -7   8  283.01   31.02
   3   7  -8  304.66   25.75
   3   7  -8  278.32   24.26
   3   7  -8  262.52   29.98
  -3  -7   7   77.06   14.24
  -3  -7   7   94.03   20.68
   3   7  -7  103.79   17.36
   3   7  -7   98.00   16.39
   3   7  -7  115.62   22.30
  -3  -7   6  111.85   16.45
  -3  -7   6  118.35   21.20
   3   7  -6  110.29   16.58
   3   7  -6  106.06   15.28
   3   7  -6   89.09   18.01
  -3  -7   5   74.85   12.81
  -3  -7   5  107.30   19.90
   3   7  -5  111.52   14.96
   3   7  -5   82.26   13.20
   3   7  -5   90.65   17.82
  -3  -7   4  142.80   15.67
  -3  -7   4  135.72   20.29
   3   7  -4  143.39   14.37
   3   7  -4   74.33   11.45
   3   7  -4  134.87   13.72
   3   7  -4  157.18   19.31
  -3  -7   3   10.86    7.09
  -3  -7   3    2.34    9.23
   3   7  -3   -3.25    6.83
   3   7  -3    2.15    8.00
  -3  -7   2   84.60   12.03
  -3  -7   2   85.38   15.80
   3   7  -2   87.53   13.07
   3   7  -2  107.88   17.36
  -3  -7   1  108.14   13.20
  -3  -7   1  115.36   17.30
   3   7  -1  116.34   14.50
   3   7  -1  106.52   15.74
  -3  -7   0    1.69    6.11
  -3  -7   0    5.46    8.13
  -3  -7   0   -3.19    7.09
   3   7   0   -4.03    5.33
   3   7   0    1.95    7.02
  -3  -7  -1   38.82    9.17
  -3  -7  -1   34.47   10.53
  -3  -7  -1   47.28   10.73
   3   7   1   37.39    9.49
  -3  -7  -2  179.61   17.75
  -3  -7  -2  190.93   16.06
   3   7   2  201.59   16.45
  -3  -7  -3  164.98   17.23
  -3  -7  -3  144.88   13.85
   3   7   3  140.53   15.28
  -3  -7  -4   68.93   13.07
  -3  -7  -4   84.21   11.32
   3   7   4   71.53   13.53
   3   7   4   87.27    9.30
  -3  -7  -5   -0.13    7.67
  -3  -7  -5    9.69    6.11
   3   7   5    2.86    7.74
  -3  -7  -6  515.62   26.73
  -3  -7  -6  476.08   15.87
   3   7   6  477.57   19.05
   3   7   6  524.13   26.34
   3   7   6  464.05   19.31
   3   7   6  473.74   19.83
  -3  -7  -7   78.62   14.96
  -3  -7  -7   68.28   17.17
   3   7   7   71.99   11.51
   3   7   7   58.59   13.20
   3   7   7   75.69   12.23
   3   7   7   50.79   10.99
  -3  -7  -8    2.47    8.97
  -3  -7  -8    5.92    8.39
   3   7   8    5.53    7.48
   3   7   8    1.50    8.45
   3   7   8    8.19    7.87
   3   7   8   -1.17    7.74
  -3  -7  -9  633.97   23.48
  -3  -7  -9  689.76   33.69
   3   7   9  571.61   26.79
   3   7   9  583.18   30.11
   3   7   9  545.98   32.19
   3   7   9  587.28   27.70
  -3  -7 -10  382.83   21.91
  -3  -7 -10  482.06   31.34
   3   7  10  388.48   25.10
   3   7  10  393.69   26.86
   3   7  10  397.46   25.69
  -3  -7 -11   34.14   12.62
  -3  -7 -11   46.69   15.87
   3   7  11   72.25   16.00
   3   7  11   41.49   14.50
   3   7  11   48.51   14.89
  -3  -7 -12   54.56   14.70
  -3  -7 -12   72.25   18.92
   3   7  12   44.09   15.09
   3   7  12   47.15   16.65
   3   7  12   57.94   16.84
  -3  -7 -13   94.94   19.05
  -3  -7 -13  123.43   25.36
   3   7  13   95.66   20.68
   3   7  13  103.53   20.55
   3   7  13  112.63   21.46
  -3  -7 -14   49.16   16.45
  -3  -7 -14   49.81   20.29
   3   7  14   34.34   17.04
   3   7  14   48.19   16.97
   3   7  14   22.57   15.87
  -3  -7 -15   23.93   16.13
  -3  -7 -15   10.92   18.34
   3   7  15   20.16   16.32
   3   7  15   20.35   16.13
   3   7  15    3.90   15.09
  -3  -7 -16    6.76   15.54
  -3  -7 -16   -4.88   19.90
   3   7  16   10.66   17.43
   3   7  16   -6.24   13.46
   3   7  16   27.70   19.12
  -3  -7 -17   14.11   18.34
  -3  -7 -17   32.32   25.30
   3   7  17   41.29   20.48
  -3  -8  10   11.58   18.53
   3   8 -10   -2.67   12.94
   3   8 -10    2.08   17.23
  -3  -8   9   10.99   17.75
   3   8  -9   13.27   12.94
   3   8  -9   34.08   19.12
  -3  -8   8  212.25   31.15
   3   8  -8  217.33   25.30
   3   8  -8  214.47   31.54
  -3  -8   7  259.21   32.45
   3   8  -7  186.44   20.68
   3   8  -7  227.67   32.45
  -3  -8   6    0.39    9.17
  -3  -8   6  -15.87   11.71
   3   8  -6    4.75    8.19
   3   8  -6   11.90   13.33
  -3  -8   5   10.99    9.36
  -3  -8   5   17.43   14.31
   3   8  -5    9.10    9.82
   3   8  -5    2.86   10.21
  -3  -8   4   46.76   12.03
  -3  -8   4   59.63   17.56
   3   8  -4   77.97   12.55
   3   8  -4   54.95   16.32
  -3  -8   3   -0.26    7.54
  -3  -8   3   -1.04   10.73
   3   8  -3   -3.38    7.41
   3   8  -3    7.61    9.56
  -3  -8   2  138.25   16.19
  -3  -8   2  161.40   22.44
   3   8  -2  140.40   15.15
   3   8  -2  128.24   18.53
  -3  -8   1  180.46   16.97
  -3  -8   1  198.47   20.35
   3   8  -1  186.18   16.45
   3   8  -1  181.95   19.57
  -3  -8   0   11.77    7.80
  -3  -8   0   14.24   10.60
  -3  -8   0    9.30    9.23
   3   8   0    9.69    7.54
   3   8   0    6.05    8.52
  -3  -8  -1   11.45    7.87
  -3  -8  -1   14.44   10.14
  -3  -8  -1   20.09    9.75
   3   8   1   21.98    8.78
   3   8   1   19.38    9.56
  -3  -8  -2   70.88   14.37
  -3  -8  -2   88.44   14.31
   3   8   2   84.02   13.85
  -3  -8  -3  139.94   18.40
  -3  -8  -3  172.07   15.93
   3   8   3  127.98   15.80
   3   8   3  152.88   13.33
  -3  -8  -4  335.88   22.89
  -3  -8  -4  304.34   18.21
   3   8   4  314.29   21.46
   3   8   4  254.78   14.89
  -3  -8  -5   -2.08    8.58
  -3  -8  -5    8.26    6.83
   3   8   5   12.36    9.10
   3   8   5    2.99    5.33
  -3  -8  -6  349.47   24.13
  -3  -8  -6  337.05   16.19
   3   8   6  323.06   23.22
  -3  -8  -7  439.08   26.60
   3   8   7  418.20   19.31
   3   8   7  431.79   26.34
   3   8   7  381.27   19.31
   3   8   7  415.21   19.96
  -3  -8  -8  114.26   18.79
   3   8   8   94.03   13.46
   3   8   8  116.40   18.73
   3   8   8   82.98   13.53
   3   8   8   90.91   13.98
  -3  -8  -9  150.87   21.72
   3   8   9  160.23   17.43
   3   8   9  178.18   21.07
   3   8   9  167.84   18.34
  -3  -8 -10  330.61   27.70
   3   8  10  333.60   23.67
   3   8  10  297.90   25.69
   3   8  10  314.22   23.48
  -3  -8 -11   86.68   14.31
  -3  -8 -11   82.33   20.09
   3   8  11   53.52   14.44
   3   8  11   72.96   17.23
   3   8  11   69.97   15.93
  -3  -8 -12    9.82   10.53
  -3  -8 -12   12.75   15.61
   3   8  12  -14.63   10.27
   3   8  12    4.55   11.84
   3   8  12    3.19   11.77
  -3  -8 -13   33.75   13.59
  -3  -8 -13   34.60   19.70
   3   8  13   28.22   15.02
   3   8  13   28.68   15.80
   3   8  13   22.50   14.31
  -3  -8 -14    0.13   12.42
  -3  -8 -14   -3.45   16.19
   3   8  14   -5.59   13.79
   3   8  14    1.37   13.92
   3   8  14   -4.16   13.53
  -3  -8 -15   20.03   15.09
  -3  -8 -15    5.07   18.34
   3   8  15    9.04   16.84
   3   8  15    6.50   13.66
   3   8  15   17.82   17.56
  -3  -8 -16   -9.17   14.57
  -3  -8 -16    5.20   20.48
   3   8  16  -14.96   16.00
   3   8  16    3.19   15.80
   3   8  16   -8.00   15.67
  -3  -8 -17    6.83   17.04
  -3  -8 -17   19.96   23.02
   3   8  17   -4.75   17.43
   3   8  17   12.75   16.78
   3   8  17    0.00   18.08
  -3  -9   9   46.56   22.37
   3   9  -9   46.24   16.52
   3   9  -9   38.43   21.07
  -3  -9   8   23.15   17.75
   3   9  -8   12.49   11.32
   3   9  -8   12.42   16.71
  -3  -9   7  168.17   30.11
   3   9  -7  135.26   19.12
   3   9  -7  149.31   26.47
  -3  -9   6  115.49   22.83
  -3  -9   6  127.33   24.91
   3   9  -6  151.78   18.73
   3   9  -6  130.77   24.52
  -3  -9   5    2.34    9.23
  -3  -9   5    9.95   14.50
   3   9  -5    5.33   12.42
  -3  -9   4   10.08    8.97
  -3  -9   4   15.41   13.53
   3   9  -4    7.15   12.10
  -3  -9   3   82.33   14.83
  -3  -9   3   92.60   20.09
   3   9  -3  116.14   15.54
   3   9  -3  106.45   19.64
  -3  -9   2   -0.07    8.39
  -3  -9   2    3.32   11.58
   3   9  -2   -7.80    7.41
   3   9  -2   -6.83    8.78
  -3  -9   1  269.94   21.13
  -3  -9   1  246.27   24.00
   3   9  -1  253.35   19.51
   3   9  -1  258.95   23.54
  -3  -9   0  220.45   19.31
  -3  -9   0  226.24   22.17
   3   9   0  224.81   18.66
   3   9   0  236.19   22.17
  -3  -9  -1   75.24   14.05
  -3  -9  -1   84.21   16.39
  -3  -9  -1   74.33   15.09
   3   9   1   85.25   14.57
   3   9   1   74.39   14.63
  -3  -9  -2   73.29   13.53
  -3  -9  -2   59.83   13.85
  -3  -9  -2   71.99   14.70
   3   9   2   73.29   13.85
  -3  -9  -3   12.29   10.21
  -3  -9  -3   17.82    9.36
   3   9   3   13.92    8.91
   3   9   3   12.10    7.35
  -3  -9  -4  318.71   24.00
  -3  -9  -4  325.73   20.35
   3   9   4  284.96   22.11
   3   9   4  311.55   18.14
  -3  -9  -5   75.82   15.54
  -3  -9  -5   68.41   12.42
   3   9   5   57.49   13.98
   3   9   5   63.40   10.79
  -3  -9  -6    6.05    9.49
  -3  -9  -6   13.40    7.28
   3   9   6    8.65    9.43
   3   9   6   12.62    6.96
  -3  -9  -7   -6.11    8.71
   3   9   7    1.24    6.70
   3   9   7   -7.35    8.52
  -3  -9  -8    1.69    9.56
   3   9   8    0.78    7.48
   3   9   8    8.13   10.99
   3   9   8   -5.20    7.22
   3   9   8    7.67    8.00
  -3  -9  -9  161.86   23.54
   3   9   9  131.16   16.84
   3   9   9  150.15   22.96
   3   9   9  142.54   17.10
  -3  -9 -10   70.88   17.49
   3   9  10   59.83   14.11
   3   9  10   53.78   15.41
   3   9  10   70.30   14.96
  -3  -9 -11   54.62   17.10
   3   9  11   50.98   14.31
   3   9  11   67.50   18.53
   3   9  11   59.96   14.89
  -3  -9 -12    8.06   15.22
   3   9  12    6.96   12.23
   3   9  12    9.04   12.29
   3   9  12    5.72   11.77
  -3  -9 -13   76.34   21.00
   3   9  13   53.19   17.56
   3   9  13   75.69   20.03
   3   9  13   79.27   18.53
  -3  -9 -14   33.16   18.79
   3   9  14    6.05   15.41
   3   9  14   36.55   16.65
   3   9  14   31.28   16.13
  -3  -9 -15   83.63   24.45
   3   9  15   97.22   23.22
   3   9  15   81.48   22.04
   3   9  15   84.02   21.85
  -3  -9 -16   51.18   23.35
   3   9  16   71.47   22.44
   3   9  16   51.05   20.22
   3   9  16   38.76   19.96
  -3  -9 -17   15.35   21.78
   3   9  17   13.72   20.29
   3   9  17   14.18   18.21
   3   9  17    7.41   18.01
  -3 -10   7    3.45   17.17
   3  10  -7    3.32   10.86
   3  10  -7  -11.38   15.87
  -3 -10   6    6.63   16.13
   3  10  -6   -2.41   14.24
  -3 -10   5   77.97   16.97
  -3 -10   5  130.45   25.30
   3  10  -5   87.07   21.91
  -3 -10   4   65.03   16.00
  -3 -10   4   61.65   18.86
   3  10  -4   75.89   19.18
  -3 -10   3    6.18    9.95
  -3 -10   3   14.57   13.79
   3  10  -3   23.09   14.63
  -3 -10   2   27.70   11.05
  -3 -10   2    8.13   12.03
   3  10  -2    9.43   10.34
   3  10  -2   18.27   12.55
  -3 -10   1    5.14    9.95
  -3 -10   1   -4.94   10.01
   3  10  -1    4.36    9.17
   3  10  -1   10.40   11.19
  -3 -10   0  109.12   16.78
  -3 -10   0  127.85   20.68
   3  10   0  133.24   18.92
   3  10   0  130.38   21.33
  -3 -10  -1  204.13   20.42
  -3 -10  -1  206.66   23.28
  -3 -10  -1  188.26   22.30
  -3 -10  -1  173.37   19.83
   3  10   1  154.25   18.40
   3  10   1  190.34   21.26
  -3 -10  -2   73.55   14.96
  -3 -10  -2   63.60   16.19
  -3 -10  -2  102.49   17.69
  -3 -10  -2   65.29   14.63
   3  10   2   80.44   15.22
   3  10   2   62.17   13.66
   3  10   2   68.67   15.22
  -3 -10  -3   65.61   16.45
  -3 -10  -3   45.26   13.27
  -3 -10  -3   59.31   13.98
   3  10   3   47.60   13.72
   3  10   3   51.70   11.58
  -3 -10  -4  165.76   21.33
  -3 -10  -4  162.44   18.34
  -3 -10  -4  165.89   20.74
   3  10   4  158.80   21.00
   3  10   4  142.54   15.87
  -3 -10  -5  212.45   22.24
  -3 -10  -5  202.11   18.60
  -3 -10  -5  213.30   22.44
   3  10   5  203.48   21.85
   3  10   5  191.19   16.71
  -3 -10  -6   42.27   13.98
  -3 -10  -6   36.09   10.40
   3  10   6   22.17   12.10
   3  10   6   30.82    9.43
  -3 -10  -7  158.61   20.81
   3  10   7  181.43   24.13
   3  10   7  156.72   14.70
  -3 -10  -8  139.75   21.59
   3  10   8  175.71   16.26
   3  10   8  173.04   25.17
  -3 -10  -9  222.14   24.65
   3  10   9  187.67   18.40
   3  10   9  203.02   27.05
   3  10   9  193.59   18.53
  -3 -10 -10   36.87   15.48
   3  10  10   43.63   12.94
   3  10  10   35.57   16.32
   3  10  10   29.59   11.51
  -3 -10 -11   97.67   20.68
   3  10  11  104.11   17.36
   3  10  11  109.18   21.85
   3  10  11   84.93   16.26
  -3 -10 -12   93.84   22.89
   3  10  12   65.48   17.36
   3  10  12   86.68   20.81
   3  10  12   43.24   14.57
  -3 -10 -13   51.44   19.90
   3  10  13   69.91   19.05
   3  10  13   49.10   19.05
   3  10  13   31.99   14.63
  -3 -10 -14   -2.21   15.87
   3  10  14    1.17   14.70
   3  10  14   14.50   17.10
   3  10  14   -8.78   12.49
  -3 -10 -15   76.15   23.61
   3  10  15   90.39   23.35
   3  10  15   98.97   24.78
   3  10  15   81.68   21.20
  -3 -10 -16  146.32   30.17
   3  10  16  148.53   29.13
   3  10  16  174.73   32.19
   3  10  16  173.95   29.13
  -3 -11   6    2.02   18.01
   3  11  -6   11.32   17.10
  -3 -11   5   85.45   23.35
   3  11  -5   60.28   21.91
  -3 -11   4   38.30   13.98
  -3 -11   4   44.41   20.29
   3  11  -4   22.89   16.45
  -3 -11   3   13.85   11.51
  -3 -11   3    2.67   15.09
   3  11  -3   12.42   14.05
  -3 -11   2  225.20   24.00
  -3 -11   2  185.33   27.57
   3  11  -2  234.75   27.31
  -3 -11   1  202.37   23.02
  -3 -11   1  221.23   26.79
   3  11  -1  186.05   20.74
   3  11  -1  229.88   28.74
  -3 -11   0   13.14   11.19
  -3 -11   0    6.50   13.01
  -3 -11   0    8.71   10.27
   3  11   0   12.42   11.12
   3  11   0   14.24   11.64
  -3 -11  -1  119.65   18.40
  -3 -11  -1  153.47   23.28
  -3 -11  -1  147.68   20.74
   3  11   1  143.78   20.35
   3  11   1  141.63   20.16
   3  11   1  124.47   20.22
  -3 -11  -2  233.58   23.41
  -3 -11  -2  241.19   25.43
  -3 -11  -2  259.14   25.04
  -3 -11  -2  218.76   23.93
   3  11   2  257.32   22.83
   3  11   2  253.81   22.63
   3  11   2  274.29   24.39
  -3 -11  -3   65.35   15.02
  -3 -11  -3  101.19   19.90
  -3 -11  -3   86.42   17.36
  -3 -11  -3   78.62   16.91
   3  11   3   76.02   16.19
   3  11   3   74.46   14.89
   3  11   3   72.57   15.28
  -3 -11  -4   39.08   15.09
  -3 -11  -4   26.92   12.49
  -3 -11  -4   18.66   13.14
   3  11   4   32.06   13.01
   3  11   4   21.59   10.86
  -3 -11  -5  836.21   38.50
  -3 -11  -5  860.53   34.34
  -3 -11  -5  800.44   38.30
   3  11   5  798.30   37.26
   3  11   5  790.82   31.02
  -3 -11  -6  792.90   37.26
  -3 -11  -6  844.34   39.73
   3  11   6  758.76   37.26
   3  11   6  696.46   28.29
  -3 -11  -7   -6.11   10.34
  -3 -11  -7   -3.58   10.14
   3  11   7    2.47   11.84
   3  11   7    2.02    8.71
  -3 -11  -8   60.09   16.32
   3  11   8   79.21   18.92
  -3 -11  -9  328.07   28.87
   3  11   9  320.07   29.07
  -3 -11 -10  273.38   28.29
   3  11  10  266.81   35.18
   3  11  10  235.02   27.64
   3  11  10  251.92   21.33
  -3 -11 -11   14.18   13.66
   3  11  11   11.64   12.10
   3  11  11   18.99   15.02
   3  11  11   10.66   11.51
  -3 -11 -12  310.19   31.60
   3  11  12  272.08   26.08
   3  11  12  283.66   30.95
   3  11  12  295.95   26.08
  -3 -11 -13  284.11   32.51
   3  11  13  240.80   28.42
   3  11  13  291.92   31.86
   3  11  13  290.22   27.70
  -3 -11 -14   24.65   18.79
   3  11  14   28.74   18.47
   3  11  14   37.00   20.55
   3  11  14   31.08   16.13
  -3 -11 -15    1.37   17.04
   3  11  15  -22.70   15.02
   3  11  15   -2.28   15.28
   3  11  15    5.40   14.44
  -3 -11 -16   55.53   23.22
   3  11  16   18.92   19.96
   3  11  16   74.33   24.39
   3  11  16   41.88   20.29
  -3 -12   4  164.39   30.69
   3  12  -4  144.62   27.57
  -3 -12   3    5.66   12.62
  -3 -12   3   -1.69   15.22
   3  12  -3   25.88   17.10
  -3 -12   2   36.22   15.74
  -3 -12   2   51.70   19.31
   3  12  -2   59.70   19.12
  -3 -12   1   26.73   13.72
  -3 -12   1   32.90   17.04
   3  12  -1   44.87   17.56
   3  12  -1   40.77   16.32
  -3 -12   0   18.99   13.14
  -3 -12   0    5.98   13.98
  -3 -12   0   10.86   12.23
   3  12   0    7.15   13.85
   3  12   0   11.58   13.14
   3  12   0    5.85   12.62
  -3 -12  -1   10.14   10.73
  -3 -12  -1   12.81   14.24
  -3 -12  -1   24.06   13.14
   3  12   1   11.05   11.19
   3  12   1    5.59   12.10
   3  12   1   22.76   13.27
  -3 -12  -2  265.51   25.88
  -3 -12  -2  268.31   27.77
  -3 -12  -2  258.10   26.92
  -3 -12  -2  231.37   25.23
   3  12   2  247.44   24.71
   3  12   2  217.72   24.45
   3  12   2  236.77   25.36
  -3 -12  -3   40.84   14.63
  -3 -12  -3   42.07   16.00
  -3 -12  -3   36.42   15.15
  -3 -12  -3   36.42   15.41
   3  12   3   47.99   15.09
   3  12   3   36.68   13.20
   3  12   3   31.93   13.20
  -3 -12  -4  146.25   23.67
  -3 -12  -4  139.62   20.94
  -3 -12  -4  131.62   21.07
   3  12   4  121.99   21.91
   3  12   4   87.27   16.52
   3  12   4  107.04   18.79
  -3 -12  -5   -1.50   12.36
  -3 -12  -5    0.46   11.32
   3  12   5    4.16   11.64
   3  12   5    1.17    9.49
  -3 -12  -6  190.47   25.30
  -3 -12  -6  149.50   22.96
   3  12   6  187.02   26.01
   3  12   6  174.47   19.25
  -3 -12  -7  308.17   27.70
  -3 -12  -7  247.05   27.18
   3  12   7  256.15   27.90
   3  12   7  255.89   21.26
  -3 -12  -8   35.12   14.50
  -3 -12  -8   59.57   17.95
   3  12   8   62.43   19.18
  -3 -12  -9   64.12   18.86
   3  12   9   45.52   18.01
  -3 -12 -10  379.51   31.86
   3  12  10  356.75   33.56
  -3 -12 -11   51.50   18.60
   3  12  11   29.91   17.43
   3  12  11   46.43   13.66
  -3 -12 -12    8.78   14.83
   3  12  12   15.35   15.87
   3  12  12    0.91   11.97
  -3 -12 -13   91.89   23.22
   3  12  13   73.22   22.96
   3  12  13   79.40   18.79
  -3 -12 -14   51.96   21.39
   3  12  14   60.28   22.63
   3  12  14   66.46   18.21
  -3 -12 -15   50.92   23.22
   3  12  15   34.27   20.48
   3  12  15   53.45   21.91
   3  12  15   31.47   18.60
  -3 -13   3   39.34   21.00
   3  13  -3   21.46   18.66
   3  13  -3   39.34   20.74
  -3 -13   2    6.83   13.20
  -3 -13   2   24.32   18.01
   3  13  -2    4.81   16.52
   3  13  -2   21.52   17.36
  -3 -13   1   48.84   16.58
  -3 -13   1   46.69   19.77
   3  13  -1   40.64   19.64
   3  13  -1   73.42   21.13
  -3 -13   0  115.04   21.46
  -3 -13   0  168.43   28.55
   3  13   0  125.70   25.04
   3  13   0  142.28   25.17
  -3 -13  -1   -0.20   11.32
  -3 -13  -1   -5.79   13.01
  -3 -13  -1   10.14   13.72
   3  13   1    8.06   13.40
   3  13   1   36.94   16.06
  -3 -13  -2  109.18   20.55
  -3 -13  -2  123.69   24.45
  -3 -13  -2  102.29   20.55
   3  13   2  110.42   20.87
   3  13   2   90.52   19.70
   3  13   2  117.83   21.39
  -3 -13  -3  394.34   31.86
  -3 -13  -3  470.10   34.34
  -3 -13  -3  368.39   32.12
  -3 -13  -3  363.97   32.12
   3  13   3  407.47   30.76
   3  13   3  347.39   29.07
   3  13   3  350.51   29.46
  -3 -13  -4  336.59   31.54
  -3 -13  -4  290.61   29.91
   3  13   4  363.84   29.65
   3  13   4  315.72   26.60
   3  13   4  362.99   28.35
  -3 -13  -5  185.33   26.01
  -3 -13  -5  162.83   25.56
   3  13   5  162.96   25.75
   3  13   5  153.14   21.65
   3  13   5  150.74   21.72
  -3 -13  -6  115.88   22.44
  -3 -13  -6  120.24   22.96
   3  13   6  133.18   25.04
   3  13   6   92.86   17.95
   3  13   6   91.37   18.21
  -3 -13  -7  562.83   36.55
  -3 -13  -7  467.23   35.38
   3  13   7  519.71   36.68
  -3 -13  -8   55.47   17.75
  -3 -13  -8   57.36   17.75
   3  13   8   49.03   19.25
  -3 -13  -9    0.26   13.01
   3  13   9   23.61   16.84
  -3 -13 -10  135.07   24.00
   3  13  10  127.52   26.66
  -3 -13 -11  147.62   26.27
   3  13  11  147.94   28.03
  -3 -13 -12   68.09   21.65
   3  13  12   55.86   21.98
   3  13  12   48.58   15.22
  -3 -13 -13    7.80   15.87
   3  13  13   11.45   17.43
   3  13  13   12.49   12.68
  -3 -13 -14    8.52   17.82
   3  13  14   43.50   22.50
   3  13  14   24.19   15.67
  -3 -14   0   49.29   16.97
  -3 -14   0   80.05   23.74
   3  14   0   66.07   22.37
   3  14   0   97.93   23.87
  -3 -14  -1   52.93   18.14
  -3 -14  -1   66.46   21.91
  -3 -14  -1   19.18   17.69
   3  14   1   45.98   18.47
   3  14   1   39.73   18.14
  -3 -14  -2   17.62   14.05
  -3 -14  -2   17.75   15.87
   3  14   2   21.65   15.87
   3  14   2   31.86   15.87
  -3 -14  -3   74.33   20.68
  -3 -14  -3   94.03   21.33
   3  14   3  113.48   23.15
   3  14   3   83.76   19.83
   3  14   3   94.29   19.77
  -3 -14  -4   72.83   20.48
  -3 -14  -4   59.05   19.38
   3  14   4   67.24   19.25
   3  14   4   32.77   15.48
   3  14   4   62.82   17.75
  -3 -14  -5  246.79   30.24
  -3 -14  -5  256.21   30.82
   3  14   5  268.44   29.13
   3  14   5  225.72   26.08
   3  14   5  250.95   26.34
  -3 -14  -6   43.50   17.56
  -3 -14  -6   50.33   18.53
   3  14   6   29.72   16.97
  -3 -14  -7  168.82   25.88
  -3 -14  -7  192.88   28.42
   3  14   7  138.32   26.86
  -3 -14  -8   96.11   22.24
  -3 -14  -8   95.14   22.76
   3  14   8  121.93   25.30
  -3 -14  -9   57.29   18.47
  -3 -14  -9   35.77   18.21
   3  14   9   37.78   18.99
  -3 -14 -10    0.46   14.70
   3  14  10    8.71   16.52
  -3 -14 -11   77.71   22.50
   3  14  11   58.46   23.28
  -3 -14 -12  134.35   25.75
   3  14  12  182.67   33.49
  -3 -14 -13   19.70   17.36
   3  14  13   25.75   20.55
   3  14  13   16.91   14.11
  -3 -15  -3   11.05   15.61
  -3 -15  -3   -1.82   15.74
   3  15   3   12.81   17.10
  -3 -15  -4    8.78   16.13
   3  15   4    7.35   16.19
   3  15   4    0.52   13.98
  -3 -15  -5  187.61   29.26
  -3 -15  -5  135.46   26.66
   3  15   5  188.91   29.91
  -3 -15  -6  161.40   27.96
  -3 -15  -6  105.35   24.00
   3  15   6  106.58   24.45
  -3 -15  -7    6.18   16.06
  -3 -15  -7   16.65   17.56
   3  15   7    7.35   15.87
  -3 -15  -8  103.46   24.58
  -3 -15  -8   99.43   25.10
   3  15   8   83.17   25.49
  -3 -15  -9  149.24   27.18
  -3 -15  -9  130.12   26.99
   3  15   9  158.87   30.50
  -3 -15 -10   67.37   21.85
   3  15  10   57.42   23.67
  -3 -15 -11    8.91   17.30
   3  15  11    4.94   18.99
  -4  12  10   42.79   20.22
  -4  12  10   25.36   22.63
  -4  12  10   21.00   16.91
   4 -12 -10   20.94   20.35
  -4  12   9    5.66   17.10
  -4  12   9    9.30   19.38
  -4  12   9   26.08   16.71
   4 -12  -9   -2.73   17.23
   4 -12  -9    5.98   17.36
  -4  12   8    8.71   19.83
  -4  12   8   28.74   22.30
  -4  12   8   13.53   16.39
   4 -12  -8   16.00   17.43
   4 -12  -8    9.17   17.43
  -4  12   7  139.55   30.69
  -4  12   7  170.31   25.82
   4 -12  -7  171.94   28.29
   4 -12  -7  196.26   31.93
  -4  12   6   11.77   20.03
  -4  12   6    8.84   14.83
   4 -12  -6    7.80   17.36
   4 -12  -6   13.59   16.71
  -4  12   5    8.45   16.97
  -4  12   5   23.48   16.78
   4 -12  -5   16.00   17.75
   4 -12  -5   18.40   15.87
  -4  12   4   39.80   20.35
  -4  12   4   38.76   17.95
   4 -12  -4   69.52   23.02
   4 -12  -4   48.64   20.09
  -4  12   3  115.30   27.77
  -4  12   3  101.97   22.11
   4 -12  -3  100.93   26.86
   4 -12  -3   63.92   20.16
  -4  12   2  -13.27   16.26
  -4  12   2    0.20   14.18
  -4  11  12   12.36   17.49
  -4  11  12  -20.48   17.23
  -4  11  12    8.71   17.56
   4 -11 -12   10.66   19.96
  -4  11  11   44.67   19.70
  -4  11  11   43.50   23.28
  -4  11  11   39.34   18.08
   4 -11 -11   57.42   23.02
  -4  11  10  -12.42   15.09
  -4  11  10  -10.92   15.80
  -4  11  10    8.58   14.96
   4 -11 -10  -11.71   15.48
  -4  11   9   13.92   16.91
  -4  11   9    8.19   17.82
  -4  11   9   19.18   15.09
   4 -11  -9   -4.42   15.35
   4 -11  -9   -4.36   15.28
  -4  11   8   48.51   18.21
  -4  11   8   54.88   21.46
  -4  11   8   62.30   19.64
   4 -11  -8   60.93   20.29
   4 -11  -8   50.53   19.25
  -4  11   7  102.55   21.52
  -4  11   7  109.64   26.14
  -4  11   7  142.41   23.93
   4 -11  -7  135.00   24.65
   4 -11  -7  124.27   25.23
  -4  11   6   60.93   19.12
  -4  11   6   44.35   22.17
  -4  11   6   52.67   16.71
   4 -11  -6   37.07   18.08
   4 -11  -6   37.78   17.43
  -4  11   5  -12.75   13.66
  -4  11   5   -5.33   14.24
  -4  11   5    3.71   13.01
   4 -11  -5    8.13   15.61
   4 -11  -5    2.93   14.50
  -4  11   4   43.44   17.95
  -4  11   4   36.16   19.18
  -4  11   4   36.22   16.00
   4 -11  -4   46.95   19.64
   4 -11  -4   35.31   17.88
  -4  11   3   34.66   17.49
  -4  11   3    5.33   16.97
  -4  11   3   21.59   14.70
   4 -11  -3   23.87   18.34
   4 -11  -3   23.02   16.52
  -4  11   2   -1.24   15.09
  -4  11   2   10.47   13.79
   4 -11  -2   14.76   17.69
   4 -11  -2   10.99   14.76
  -4  11   1   22.04   17.23
  -4  11   1   14.57   15.80
   4 -11  -1   30.37   18.60
   4 -11  -1    4.29   14.63
  -4  11   0   76.73   24.19
  -4  11   0   84.86   20.48
   4 -11   0  104.18   26.53
   4 -11   0   80.90   21.13
  -4  11  -1   -3.90   18.53
  -4  11  -1   10.99   15.74
   4 -11   1   17.43   19.90
   4 -11   1   10.21   15.54
  -4  10  14   75.50   24.45
  -4  10  14   62.95   24.45
  -4  10  14   60.54   21.59
   4 -10 -14   74.46   24.65
  -4  10  13    8.58   17.88
  -4  10  13   15.35   20.03
  -4  10  13    6.96   17.49
   4 -10 -13   19.70   18.27
  -4  10  12    1.24   17.04
  -4  10  12    5.53   19.25
  -4  10  12   13.27   16.13
   4 -10 -12   31.93   21.20
  -4  10  11    4.88   15.35
  -4  10  11   23.35   19.64
  -4  10  11    3.71   15.09
   4 -10 -11   -2.41   16.06
  -4  10  10    6.11   15.02
  -4  10  10   -5.98   16.19
  -4  10  10    7.87   14.63
   4 -10 -10    9.36   16.00
  -4  10   9   11.38   14.57
  -4  10   9   -4.23   15.28
  -4  10   9   -5.40   13.46
   4 -10  -9   12.10   15.80
  -4  10   8   14.83   14.83
  -4  10   8    6.57   15.93
  -4  10   8   15.22   14.31
   4 -10  -8   11.12   13.79
   4 -10  -8   32.06   17.69
  -4  10   7   16.00   14.57
  -4  10   7   45.52   20.16
  -4  10   7   22.11   15.09
   4 -10  -7   24.39   15.02
   4 -10  -7   22.44   16.32
  -4  10   6  -14.11   12.29
  -4  10   6    3.77   15.41
  -4  10   6    2.34   12.49
   4 -10  -6   -5.85   12.55
   4 -10  -6  -16.52   11.64
  -4  10   5   -2.02   12.55
  -4  10   5   16.19   17.88
  -4  10   5    1.17   11.90
   4 -10  -5   -4.03   13.20
   4 -10  -5    5.79   12.55
  -4  10   4    3.45   13.07
  -4  10   4    8.52   14.44
  -4  10   4   -1.69   11.38
   4 -10  -4   -8.26   13.07
   4 -10  -4   -0.26   12.88
  -4  10   3   45.20   16.65
  -4  10   3   29.65   15.28
   4 -10  -3   49.29   18.08
   4 -10  -3   58.14   17.75
  -4  10   2  107.43   20.68
  -4  10   2   93.97   21.98
  -4  10   2   99.36   19.57
   4 -10  -2  122.97   23.74
   4 -10  -2   91.30   20.81
  -4  10   1    4.29   14.24
  -4  10   1   13.27   15.54
  -4  10   1    5.59   12.94
   4 -10  -1   -5.40   14.70
   4 -10  -1   -6.24   11.64
  -4  10   0   87.59   21.00
  -4  10   0  119.65   26.79
  -4  10   0   81.81   19.70
   4 -10   0  105.02   26.08
   4 -10   0   73.48   19.77
  -4  10  -1   81.74   20.81
  -4  10  -1   74.39   23.35
  -4  10  -1   61.97   18.27
   4 -10   1   39.60   20.55
   4 -10   1   78.10   20.68
  -4  10  -2   27.25   18.47
  -4  10  -2   -4.49   18.08
  -4  10  -2    0.91   15.09
   4 -10   2  -11.71   16.45
   4 -10   2    4.68   13.27
  -4  10  -3   -3.77   24.19
  -4  10  -3   -7.35   18.73
  -4  10  -3    6.89   15.80
   4 -10   3  -15.09   15.09
   4 -10   3   -0.46   13.14
  -4   9  15   12.49   18.73
  -4   9  15    9.36   19.51
  -4   9  15   17.17   18.86
   4  -9 -15    8.19   15.02
  -4   9  14   25.36   18.40
  -4   9  14   19.31   19.90
  -4   9  14   28.68   19.18
   4  -9 -14    1.56   13.85
   4  -9 -14   35.90   20.35
  -4   9  13   19.44   16.78
  -4   9  13   16.00   18.73
  -4   9  13   33.23   18.40
   4  -9 -13   36.35   15.35
   4  -9 -13   37.26   19.12
  -4   9  12  134.22   24.13
  -4   9  12  167.51   29.00
  -4   9  12   85.51   22.57
   4  -9 -12  110.22   20.35
   4  -9 -12  135.91   26.53
  -4   9  11   81.03   21.20
  -4   9  11   62.69   20.87
  -4   9  11   66.65   19.70
   4  -9 -11   76.93   17.23
   4  -9 -11   79.08   21.98
  -4   9  10    0.20   13.79
  -4   9  10    5.40   16.26
  -4   9  10    1.69   12.10
   4  -9 -10   15.87   11.12
   4  -9 -10    3.71   15.02
  -4   9   9    2.41   13.07
  -4   9   9    3.71   14.89
  -4   9   9   21.33   14.11
   4  -9  -9   17.62   10.99
   4  -9  -9    1.69   14.89
  -4   9   8  -11.12   11.64
  -4   9   8   -0.33   14.44
  -4   9   8    4.49   12.81
   4  -9  -8    0.59    9.04
   4  -9  -8    1.69   12.88
   4  -9  -8    4.36   14.57
  -4   9   7   24.45   14.11
  -4   9   7    6.18   14.57
  -4   9   7   19.57   13.72
   4  -9  -7    8.32    9.88
   4  -9  -7   20.74   13.46
   4  -9  -7    6.63   14.44
  -4   9   6  171.81   23.35
  -4   9   6  176.55   26.40
  -4   9   6  161.60   22.76
   4  -9  -6  154.64   21.46
   4  -9  -6  180.07   25.23
   4  -9  -6  219.86   29.98
  -4   9   5   25.49   14.89
  -4   9   5   25.49   15.80
  -4   9   5   31.02   13.85
   4  -9  -5   28.48   14.96
   4  -9  -5   24.26   14.76
  -4   9   4   47.93   15.28
  -4   9   4   46.04   16.19
  -4   9   4   68.41   16.65
   4  -9  -4   57.29   17.30
   4  -9  -4   47.08   15.54
  -4   9   3  150.80   22.37
  -4   9   3  114.65   22.44
  -4   9   3  144.36   21.98
   4  -9  -3  156.72   25.10
   4  -9  -3  126.87   23.41
  -4   9   2   55.60   16.52
  -4   9   2   51.57   16.84
  -4   9   2   55.99   16.45
   4  -9  -2   65.42   19.12
   4  -9  -2   49.23   16.65
  -4   9   1    4.49   12.81
  -4   9   1   -3.84   12.55
  -4   9   1    7.74   12.36
   4  -9  -1    1.24   14.76
   4  -9  -1   -0.52   10.92
  -4   9   0    3.38   13.59
  -4   9   0   -0.46   13.33
  -4   9   0    8.06   13.85
   4  -9   0   13.66   14.96
   4  -9   0   13.72   13.01
  -4   9  -1   60.54   18.47
  -4   9  -1   56.45   20.16
  -4   9  -1   36.68   16.00
   4  -9   1   31.47   17.56
   4  -9   1   50.27   16.58
  -4   9  -2   28.16   16.84
  -4   9  -2   12.36   17.17
  -4   9  -2   17.49   14.70
   4  -9   2    7.35   15.87
   4  -9   2   18.92   14.11
  -4   9  -3    1.69   15.74
  -4   9  -3   20.29   18.34
  -4   9  -3   11.19   15.22
   4  -9   3    8.06   16.45
   4  -9   3   11.58   13.72
  -4   9  -4    1.82   17.43
  -4   9  -4    4.62   16.97
  -4   9  -4   -6.44   14.11
   4  -9   4   -4.75   15.80
   4  -9   4   -9.82   12.55
  -4   9  -5   -9.49   17.62
  -4   9  -5  -20.94   16.52
  -4   9  -5    9.43   15.93
   4  -9   5    6.83   18.34
  -4   8  15   80.38   24.19
  -4   8  15   67.70   24.13
   4  -8 -15   75.89   21.39
  -4   8  14  -10.34   14.24
  -4   8  14   10.40   18.21
  -4   8  14   -2.93   19.05
  -4   8  14    9.49   16.32
   4  -8 -14   -3.32   13.27
   4  -8 -14    1.69   15.87
  -4   8  13   60.09   21.07
  -4   8  13   54.95   21.78
  -4   8  13   59.31   17.95
  -4   8  13   52.54   20.09
   4  -8 -13   48.51   16.39
   4  -8 -13   70.36   20.87
  -4   8  12   74.07   20.03
  -4   8  12   56.51   20.35
  -4   8  12   63.99   20.55
   4  -8 -12  106.58   20.22
   4  -8 -12   99.62   22.50
  -4   8  11  162.57   25.23
  -4   8  11  153.73   26.66
  -4   8  11  144.69   24.71
   4  -8 -11  157.11   21.91
   4  -8 -11  179.87   27.31
  -4   8  10    3.12   13.01
  -4   8  10    5.85   15.87
  -4   8  10    8.78   13.66
   4  -8 -10   -0.07   10.27
   4  -8 -10    0.00   13.59
  -4   8   9   83.17   18.92
  -4   8   9  125.77   22.44
  -4   8   9  108.27   21.13
   4  -8  -9   93.90   16.58
   4  -8  -9  112.89   23.02
  -4   8   8   14.18   12.81
  -4   8   8    6.76   13.20
  -4   8   8   19.12   13.79
   4  -8  -8   24.06   10.99
   4  -8  -8   17.30   12.03
   4  -8  -8   33.95   16.39
  -4   8   7   29.00   13.79
  -4   8   7   32.71   15.48
  -4   8   7   26.60   13.72
   4  -8  -7   27.05   11.32
   4  -8  -7   28.94   13.79
   4  -8  -7   39.86   16.91
  -4   8   6  208.35   23.48
  -4   8   6  229.68   27.44
  -4   8   6  200.09   24.39
   4  -8  -6  210.56   19.25
   4  -8  -6  208.22   24.19
   4  -8  -6  212.58   26.14
  -4   8   5  455.33   29.33
  -4   8   5  464.63   33.16
  -4   8   5  450.46   30.11
   4  -8  -5  419.31   23.48
   4  -8  -5  458.91   30.95
   4  -8  -5  445.71   31.15
  -4   8   4  265.84   24.71
  -4   8   4  287.04   27.38
  -4   8   4  266.10   25.69
   4  -8  -4  260.05   19.25
   4  -8  -4  312.07   27.38
   4  -8  -4  298.22   26.86
  -4   8   3    2.86   11.97
  -4   8   3    2.67   11.51
  -4   8   3    3.45   12.23
   4  -8  -3   19.44   13.07
   4  -8  -3   13.14   11.45
  -4   8   2   69.39   16.45
  -4   8   2   65.03   17.36
  -4   8   2   69.45   17.30
   4  -8  -2   82.85   18.01
   4  -8  -2   56.84   15.28
  -4   8   1  107.69   18.99
  -4   8   1   90.85   19.12
  -4   8   1   94.94   18.60
   4  -8  -1  111.98   14.31
   4  -8  -1  122.25   22.17
   4  -8  -1  106.13   19.18
  -4   8   0  129.15   20.74
  -4   8   0  106.84   22.50
  -4   8   0  124.99   20.87
   4  -8   0  137.54   23.54
   4  -8   0  101.12   20.22
  -4   8  -1    2.15   12.62
  -4   8  -1    3.06   14.89
  -4   8  -1    5.92   13.14
   4  -8   1   -4.23   12.10
   4  -8   1   -9.17    9.88
  -4   8  -2  124.47   21.65
  -4   8  -2  132.85   25.95
  -4   8  -2   98.39   20.42
   4  -8   2  131.23   24.06
   4  -8   2   88.24   18.60
  -4   8  -3  131.62   22.83
  -4   8  -3  105.15   23.22
  -4   8  -3  107.95   21.72
   4  -8   3  125.51   26.14
   4  -8   3  130.12   21.59
  -4   8  -4   53.39   19.18
  -4   8  -4   58.59   20.29
  -4   8  -4   33.42   17.36
   4  -8   4   58.27   20.22
   4  -8   4   72.64   18.60
  -4   8  -5   57.81   20.29
  -4   8  -5   42.40   21.72
  -4   8  -5   34.92   18.40
   4  -8   5   32.84   19.31
   4  -8   5   39.34   16.00
  -4   8  -6   78.23   22.57
  -4   8  -6   79.53   24.19
  -4   8  -6   95.98   24.06
   4  -8   6  123.88   26.21
  -4   7  16    1.24   17.69
  -4   7  16   19.51   20.61
   4  -7 -16   -5.85   16.00
  -4   7  15   28.87   18.86
  -4   7  15   24.39   18.79
   4  -7 -15   13.14   16.26
  -4   7  14   22.11   17.75
  -4   7  14   42.53   20.29
  -4   7  14   33.36   16.26
  -4   7  14   15.93   17.75
   4  -7 -14   40.06   16.91
   4  -7 -14   18.47   16.32
  -4   7  13    9.04   15.80
  -4   7  13   -0.13   15.61
  -4   7  13   11.25   13.59
  -4   7  13    8.19   15.41
   4  -7 -13    4.16   13.01
   4  -7 -13   15.22   14.50
  -4   7  12   13.98   14.37
  -4   7  12   10.66   15.80
  -4   7  12   -3.19   11.77
  -4   7  12   12.55   14.83
   4  -7 -12   19.25   13.20
   4  -7 -12   -0.65   13.92
  -4   7  11   86.94   19.77
  -4   7  11   88.18   21.20
  -4   7  11   62.23   19.51
   4  -7 -11   73.74   17.10
   4  -7 -11  128.37   22.50
  -4   7  10    4.23   11.71
  -4   7  10    5.01   13.33
  -4   7  10  -13.59   11.38
   4  -7 -10    6.24   10.73
   4  -7 -10    1.43   13.07
  -4   7   9   -1.69   11.12
  -4   7   9    7.80   13.01
  -4   7   9    4.62   12.16
   4  -7  -9   -5.98    8.71
   4  -7  -9   -4.68   12.29
  -4   7   8   70.30   16.19
  -4   7   8   49.42   17.23
  -4   7   8   36.55   14.63
   4  -7  -8   59.96   14.05
   4  -7  -8   86.88   19.70
  -4   7   7   62.88   15.28
  -4   7   7   76.73   17.95
  -4   7   7   67.76   16.26
   4  -7  -7   71.08   14.37
   4  -7  -7   65.03   15.22
   4  -7  -7   96.11   19.70
  -4   7   6   60.41   15.22
  -4   7   6   61.19   16.19
  -4   7   6   41.75   14.50
   4  -7  -6   40.71   11.71
   4  -7  -6   50.40   13.33
   4  -7  -6   54.23   15.41
  -4   7   5   25.43   12.62
  -4   7   5   30.24   13.20
  -4   7   5   18.08   11.90
   4  -7  -5    6.24    8.58
   4  -7  -5   16.71   11.25
   4  -7  -5   16.58   11.51
  -4   7   4  399.86   26.73
  -4   7   4  325.47   27.25
  -4   7   4  341.40   26.21
   4  -7  -4  380.23   26.79
   4  -7  -4  354.41   27.25
   4  -7  -4  319.62   26.01
  -4   7   3  187.54   21.33
  -4   7   3  185.46   22.63
  -4   7   3  194.63   22.63
   4  -7  -3  187.54   16.84
   4  -7  -3  208.87   22.50
   4  -7  -3  198.08   22.89
   4  -7  -3  208.42   22.17
  -4   7   2    0.59   10.53
  -4   7   2  -18.01    8.13
  -4   7   2   -4.68   10.53
   4  -7  -2   10.92    7.93
   4  -7  -2    3.19   10.66
   4  -7  -2   17.62   11.64
   4  -7  -2   11.38   10.27
  -4   7   1  211.93   22.44
  -4   7   1  213.30   24.13
  -4   7   1  186.76   22.70
   4  -7  -1  200.35   16.84
   4  -7  -1  216.35   24.19
   4  -7  -1  204.39   21.72
   4  -7  -1  222.40   23.15
  -4   7   0  225.78   23.22
  -4   7   0  214.79   25.88
  -4   7   0  211.73   24.00
   4  -7   0  224.03   17.82
   4  -7   0  217.00   25.49
   4  -7   0  204.52   21.72
   4  -7   0  204.26   25.04
  -4   7  -1   25.04   12.88
  -4   7  -1   27.70   14.18
  -4   7  -1   22.04   12.68
   4  -7   1   22.37    9.23
   4  -7   1   23.48   13.85
   4  -7   1   35.57   13.40
  -4   7  -2   99.49   18.73
  -4   7  -2  106.45   21.26
  -4   7  -2   84.28   18.53
   4  -7   2  107.49   15.15
   4  -7   2  111.98   23.09
   4  -7   2   72.57   17.36
  -4   7  -3   36.42   15.09
  -4   7  -3   32.71   16.00
  -4   7  -3   72.44   18.14
   4  -7   3   63.40   13.20
   4  -7   3   81.94   19.70
   4  -7   3   62.75   16.52
  -4   7  -4   56.97   17.82
  -4   7  -4   65.81   20.68
  -4   7  -4   53.78   17.36
   4  -7   4   43.05   16.97
   4  -7   4   58.72   17.82
  -4   7  -5   58.85   18.99
  -4   7  -5   71.66   21.78
  -4   7  -5   50.46   17.75
   4  -7   5   87.14   23.09
   4  -7   5   75.63   17.56
  -4   7  -6   16.13   16.32
  -4   7  -6   42.79   20.74
  -4   7  -6   43.11   18.27
   4  -7   6   47.08   18.66
   4  -7   6   31.47   14.44
  -4   7  -7   75.17   21.98
  -4   7  -7   79.66   22.89
  -4   7  -7   97.15   23.48
   4  -7   7   69.97   22.11
  -4   7  -8   11.19   19.90
  -4   7  -8   -5.98   18.08
  -4   7  -8   -8.58   17.17
   4  -7   8   -2.80   15.48
  -4   6  16   70.88   23.54
  -4   6  16  120.95   28.74
   4  -6 -16   93.90   25.10
  -4   6  15    4.29   15.80
  -4   6  15    1.24   18.01
   4  -6 -15   -8.84   13.27
  -4   6  14  240.09   32.19
  -4   6  14  254.91   32.45
  -4   6  14  240.48   27.31
   4  -6 -14  254.20   29.52
  -4   6  13   45.13   18.08
  -4   6  13   45.26   18.34
  -4   6  13   57.75   16.26
  -4   6  13   27.96   18.21
   4  -6 -13   42.46   17.36
   4  -6 -13   44.09   16.13
  -4   6  12    7.48   13.46
  -4   6  12   11.58   13.79
  -4   6  12   10.53   12.94
  -4   6  12   17.10   15.74
   4  -6 -12   -4.03   11.38
   4  -6 -12   16.78   13.72
  -4   6  11  102.16   21.13
  -4   6  11   95.79   21.13
  -4   6  11   87.20   17.88
  -4   6  11  114.39   22.44
   4  -6 -11  108.99   19.90
   4  -6 -11  119.59   20.68
  -4   6  10  240.74   25.23
  -4   6  10  237.75   27.31
  -4   6  10  225.13   27.51
   4  -6 -10  234.69   23.09
   4  -6 -10  236.25   19.70
   4  -6 -10  297.77   27.64
  -4   6   9  140.01   21.13
  -4   6   9  145.47   22.96
  -4   6   9  149.70   22.30
   4  -6  -9  146.51   19.51
   4  -6  -9  146.77   17.56
   4  -6  -9  199.90   24.97
  -4   6   8   32.06   13.27
  -4   6   8   32.25   14.11
  -4   6   8   23.74   13.27
   4  -6  -8   42.53   12.94
   4  -6  -8   40.38   14.31
  -4   6   7  139.62   19.38
  -4   6   7  129.28   19.64
  -4   6   7  132.01   20.03
   4  -6  -7  128.17   17.62
   4  -6  -7  148.14   18.66
   4  -6  -7  154.70   22.44
   4  -6  -7  140.33   20.74
  -4   6   6  235.67   22.37
  -4   6   6  228.51   24.26
  -4   6   6  206.60   22.70
   4  -6  -6  231.50   19.25
   4  -6  -6  247.24   21.00
   4  -6  -6  254.98   23.67
   4  -6  -6  239.50   23.09
  -4   6   5   13.72   10.53
  -4   6   5   10.99   11.58
  -4   6   5   21.07   12.10
   4  -6  -5   18.27    9.95
   4  -6  -5   24.78   12.16
   4  -6  -5   13.79   10.14
  -4   6   4  255.17   22.04
  -4   6   4  282.94   24.26
  -4   6   4  250.30   22.83
   4  -6  -4  225.59   17.82
   4  -6  -4  247.83   21.52
   4  -6  -4  283.01   24.00
   4  -6  -4  248.15   22.50
  -4   6   3  383.87   25.04
  -4   6   3  373.59   26.53
  -4   6   3  417.49   26.86
   4  -6  -3  404.09   21.72
   4  -6  -3  393.23   25.17
   4  -6  -3  473.09   27.57
   4  -6  -3  408.19   26.27
  -4   6   2    0.46   10.66
  -4   6   2    0.46    8.97
  -4   6   2   -4.75    9.82
   4  -6  -2   -4.10    6.24
   4  -6  -2    5.98    8.78
   4  -6  -2    4.03    9.23
   4  -6  -2    4.42    8.26
  -4   6   1  146.97   19.12
  -4   6   1  175.19   21.07
  -4   6   1  158.02   20.48
   4  -6  -1  175.06   16.00
   4  -6  -1  193.66   20.94
   4  -6  -1  198.14   20.03
   4  -6  -1  157.83   19.51
  -4   6   0  225.00   21.98
  -4   6   0  212.19   23.87
  -4   6   0  230.33   23.15
   4  -6   0  201.92   16.84
   4  -6   0  231.83   23.22
   4  -6   0  220.06   20.35
   4  -6   0  199.57   21.26
  -4   6  -1  434.46   27.70
  -4   6  -1  358.31   28.35
  -4   6  -1  387.31   27.90
   4  -6   1  438.49   23.02
   4  -6   1  458.98   29.85
   4  -6   1  442.46   24.78
   4  -6   1  416.51   27.38
  -4   6  -2   20.03   13.40
  -4   6  -2   28.74   14.37
  -4   6  -2   29.91   14.11
   4  -6   2   40.64   11.25
   4  -6   2   38.95   13.46
   4  -6   2   32.45   11.25
   4  -6   2   32.38   14.05
  -4   6  -3  216.68   23.93
  -4   6  -3  185.92   24.78
  -4   6  -3  262.65   26.21
   4  -6   3  258.95   19.83
   4  -6   3  244.05   26.27
   4  -6   3  217.33   18.73
   4  -6   3  221.68   23.15
  -4   6  -4  255.30   26.21
  -4   6  -4  226.04   28.81
  -4   6  -4  237.23   26.99
   4  -6   4  246.07   20.42
   4  -6   4  222.79   28.81
   4  -6   4  199.77   23.09
  -4   6  -5    8.84   13.98
  -4   6  -5    5.85   13.98
  -4   6  -5    6.37   13.79
   4  -6   5   13.40   10.47
   4  -6   5    6.18   12.75
   4  -6   5   17.82   11.71
  -4   6  -6   13.92   15.80
  -4   6  -6    2.73   15.22
  -4   6  -6    5.01   15.35
   4  -6   6    5.98    9.62
   4  -6   6   -0.65   13.79
   4  -6   6   13.79   11.90
  -4   6  -7  178.18   27.70
  -4   6  -7  175.64   28.48
  -4   6  -7  191.97   28.16
   4  -6   7  179.09   22.30
   4  -6   7  196.71   28.35
   4  -6   7  153.47   22.04
  -4   6  -8   58.46   21.46
  -4   6  -8   60.02   20.94
  -4   6  -8   70.88   21.98
   4  -6   8   29.20   23.28
  -4   6  -9   -3.45   17.36
  -4   6  -9   10.08   18.27
  -4   6  -9    9.30   18.73
   4  -6   9    5.85   16.00
  -4   5  16    5.72   16.84
  -4   5  16   16.19   20.35
   4  -5 -16    4.29   17.43
  -4   5  15    1.37   14.63
  -4   5  15   12.36   17.88
  -4   5  15   -7.67   27.38
   4  -5 -15    1.11   15.35
  -4   5  14    6.83   14.70
  -4   5  14    0.52   16.32
  -4   5  14  -11.90   11.71
   4  -5 -14   17.36   16.26
  -4   5  13   10.40   14.24
  -4   5  13   23.54   16.06
  -4   5  13   32.32   14.89
   4  -5 -13   31.93   16.32
   4  -5 -13   55.01   16.19
  -4   5  12  -15.41   11.38
  -4   5  12   -8.19   12.94
  -4   5  12    0.33   11.12
  -4   5  12    3.12   12.81
   4  -5 -12   -2.15   12.10
   4  -5 -12  -11.12   10.86
  -4   5  11   40.64   15.09
  -4   5  11   19.83   15.41
  -4   5  11   25.49   12.81
  -4   5  11   15.87   14.11
   4  -5 -11   29.46   13.79
   4  -5 -11   35.77   13.72
  -4   5  10  138.32   20.81
  -4   5  10  203.48   26.66
  -4   5  10  190.01   21.98
  -4   5  10  169.34   24.19
   4  -5 -10  181.24   21.52
   4  -5 -10  209.13   23.22
  -4   5   9   55.73   15.09
  -4   5   9   83.50   18.08
  -4   5   9   71.40   17.04
   4  -5  -9   80.25   15.67
   4  -5  -9   63.01   16.65
   4  -5  -9   62.23   15.28
  -4   5   8   23.41   11.77
  -4   5   8   34.34   13.59
  -4   5   8   59.31   14.83
   4  -5  -8   14.31    9.69
   4  -5  -8   33.62   13.33
   4  -5  -8   37.26   12.68
  -4   5   7    7.02    9.49
  -4   5   7    3.38   10.01
  -4   5   7   -3.64    8.97
   4  -5  -7    9.17    8.78
   4  -5  -7    6.11    9.10
   4  -5  -7    7.41   10.14
   4  -5  -7   13.27   10.01
  -4   5   6   95.66   16.06
  -4   5   6  106.78   17.23
  -4   5   6  111.00   17.82
   4  -5  -6  111.85   15.93
   4  -5  -6  113.02   15.15
   4  -5  -6  111.98   18.66
   4  -5  -6  127.26   17.95
   4  -5  -6   91.56   15.35
  -4   5   5   11.45   10.34
  -4   5   5    9.82   10.34
  -4   5   5    5.59    9.62
  -4   5   5    8.52   10.27
   4  -5  -5    2.47    7.15
   4  -5  -5    8.06   10.40
   4  -5  -5    3.38    8.39
   4  -5  -5    1.82    7.61
  -4   5   4   44.61   12.81
  -4   5   4   43.89   13.66
  -4   5   4   44.41   12.55
  -4   5   4   38.04   12.75
   4  -5  -4   35.90   10.21
   4  -5  -4   39.67   11.05
   4  -5  -4   38.24   12.23
   4  -5  -4   39.08   11.97
   4  -5  -4   37.52   10.99
  -4   5   3  498.12   26.34
  -4   5   3  526.35   28.55
  -4   5   3  527.78   27.70
  -4   5   3  526.67   28.16
   4  -5  -3  519.78   24.06
   4  -5  -3  534.34   26.21
   4  -5  -3  552.16   28.35
   4  -5  -3  489.08   27.12
   4  -5  -3  475.36   24.78
  -4   5   2  467.49   26.08
  -4   5   2  428.74   26.14
  -4   5   2  486.35   27.05
  -4   5   2  437.32   26.40
   4  -5  -2  476.92   23.02
   4  -5  -2  460.60   25.04
   4  -5  -2  430.75   25.43
   4  -5  -2  464.70   26.86
   4  -5  -2  458.65   24.19
  -4   5   1   15.67    9.95
  -4   5   1   15.41   10.08
  -4   5   1    6.44    9.62
  -4   5   1    4.75   10.27
   4  -5  -1   19.51    8.13
   4  -5  -1   15.15    9.49
   4  -5  -1    1.50    9.95
   4  -5  -1    1.24    9.56
   4  -5  -1   19.44    9.23
  -4   5   0   85.90   15.22
  -4   5   0   58.53   13.85
  -4   5   0   87.72   15.93
   4  -5   0   85.19   13.40
   4  -5   0   91.89   16.06
   4  -5   0   80.77   14.70
   4  -5   0   86.03   16.00
  -4   5  -1  262.07   22.17
  -4   5  -1  251.86   23.35
  -4   5  -1  265.90   23.48
   4  -5   1  279.17   18.92
   4  -5   1  265.64   22.76
   4  -5   1  243.08   18.99
   4  -5   1  264.15   21.78
  -4   5  -2  241.91   22.30
  -4   5  -2  244.38   23.67
  -4   5  -2  232.41   23.87
   4  -5   2  244.31   18.66
   4  -5   2  256.02   23.15
   4  -5   2  227.67   18.27
   4  -5   2  201.59   20.94
  -4   5  -3    4.29   10.34
  -4   5  -3    7.15   11.12
  -4   5  -3    2.60   11.05
   4  -5   3    1.24    7.74
   4  -5   3   -6.24    8.39
   4  -5   3   13.85    8.91
   4  -5   3   -2.73    8.19
  -4   5  -4   60.35   16.32
  -4   5  -4   74.39   13.98
  -4   5  -4   52.35   16.13
  -4   5  -4   54.69   16.26
   4  -5   4   94.23   15.41
   4  -5   4   39.15   16.58
   4  -5   4   42.66   12.49
   4  -5   4   50.33   17.04
  -4   5  -5   67.31   17.10
  -4   5  -5   61.91   18.40
  -4   5  -5   73.48   18.01
  -4   5  -5   55.99   17.36
   4  -5   5   64.96   14.37
   4  -5   5   65.61   18.47
   4  -5   5   50.33   14.05
  -4   5  -6  504.04   34.01
  -4   5  -6  417.29   32.45
  -4   5  -6  476.79   34.73
   4  -5   6  452.67   27.57
   4  -5   6  416.32   33.62
   4  -5   6  418.72   29.52
  -4   5  -7    1.11   14.89
  -4   5  -7   15.74   14.11
  -4   5  -7    9.30   15.28
   4  -5   7    7.15   10.86
   4  -5   7   -8.58   14.24
   4  -5   7  -13.33   11.71
  -4   5  -8   47.93   20.09
  -4   5  -8   44.15   19.18
  -4   5  -8   53.97   19.83
   4  -5   8   53.58   15.54
   4  -5   8   48.97   17.56
  -4   5  -9   90.33   23.93
  -4   5  -9   58.33   20.42
  -4   5  -9   64.64   22.37
   4  -5   9   58.66   16.84
   4  -5   9   31.54   21.26
  -4   5 -10   31.54   21.59
  -4   5 -10   17.69   18.47
  -4   5 -10   17.10   19.18
   4  -5  10   14.24   21.26
   4  -5  10   10.66   18.40
  -4   4  16   53.39   20.42
  -4   4  16   73.03   24.97
   4  -4 -16   59.57   22.89
  -4   4  15   37.65   20.16
  -4   4  15   27.12   19.57
  -4   4  15   11.19   16.52
   4  -4 -15   21.00   18.21
  -4   4  14   56.58   18.66
  -4   4  14   19.18   17.88
  -4   4  14   23.74   17.17
   4  -4 -14   30.04   17.30
  -4   4  13  120.37   21.52
  -4   4  13  124.40   24.58
  -4   4  13  123.43   21.26
   4  -4 -13  142.61   24.19
  -4   4  12   -0.20   12.23
  -4   4  12    8.78   14.96
  -4   4  12    6.11   11.38
  -4   4  12    3.12   14.70
   4  -4 -12   19.25   13.20
   4  -4 -12    0.39    9.88
  -4   4  11   13.79   12.36
  -4   4  11   25.17   14.05
  -4   4  11    5.40   10.08
  -4   4  11   19.96   14.63
   4  -4 -11   10.21   12.49
   4  -4 -11   14.89   11.05
  -4   4  10  100.08   18.21
  -4   4  10  101.19   19.05
  -4   4  10  117.57   18.14
  -4   4  10  135.78   21.26
   4  -4 -10  115.88   19.05
   4  -4 -10  158.09   22.50
   4  -4 -10  161.34   20.03
  -4   4   9   79.47   16.13
  -4   4   9   71.34   15.74
  -4   4   9   53.39   13.14
  -4   4   9   79.66   17.95
   4  -4  -9   67.96   15.48
   4  -4  -9   78.95   17.04
   4  -4  -9   77.71   15.09
   4  -4  -9   61.78   14.96
  -4   4   8  114.71   17.95
  -4   4   8  119.65   19.57
  -4   4   8  116.47   19.12
   4  -4  -8  120.76   17.23
   4  -4  -8  124.08   19.12
   4  -4  -8  115.30   17.30
   4  -4  -8   93.71   16.58
  -4   4   7   -2.60    8.78
  -4   4   7    2.28    9.43
  -4   4   7   -5.27    8.65
   4  -4  -7    2.34    7.61
   4  -4  -7    3.32    8.91
   4  -4  -7   -5.27    7.61
   4  -4  -7    8.32    8.45
  -4   4   6   38.56   11.84
  -4   4   6   66.59   14.76
  -4   4   6   31.41   12.49
   4  -4  -6   47.54    9.95
   4  -4  -6   36.87   12.49
   4  -4  -6   46.56   11.90
   4  -4  -6   47.02   11.90
  -4   4   5    1.89    8.71
  -4   4   5    1.30    8.78
  -4   4   5    8.58   10.47
  -4   4   5    4.55    9.10
   4  -4  -5    2.08    7.09
   4  -4  -5   -3.84    5.98
   4  -4  -5   -4.55    7.61
   4  -4  -5   -0.26    7.09
   4  -4  -5    3.58    7.54
  -4   4   4    0.26    8.26
  -4   4   4    6.05    9.23
  -4   4   4   12.42    9.23
  -4   4   4   14.11    9.95
   4  -4  -4    1.95    6.63
   4  -4  -4    6.89    6.89
   4  -4  -4   -2.60    7.48
   4  -4  -4    7.93    7.54
   4  -4  -4    2.54    6.89
  -4   4   3   12.29    8.58
  -4   4   3   22.44   10.99
  -4   4   3   16.58    9.49
  -4   4   3   19.12    9.95
   4  -4  -3   13.40    7.74
   4  -4  -3   14.50    7.41
   4  -4  -3   18.34   10.01
   4  -4  -3   32.84   10.27
   4  -4  -3   21.39    8.97
  -4   4   2  239.57   19.44
  -4   4   2  204.91   19.18
  -4   4   2  213.62   19.64
  -4   4   2  209.85   20.16
   4  -4  -2  209.26   16.19
   4  -4  -2  201.53   16.97
   4  -4  -2  199.51   18.60
   4  -4  -2  213.43   18.92
   4  -4  -2  204.78   17.75
  -4   4   1  186.44   18.08
  -4   4   1  167.12   18.01
  -4   4   1  183.25   18.73
  -4   4   1  159.97   18.79
   4  -4  -1  175.45   15.35
   4  -4  -1  186.63   17.23
   4  -4  -1  183.97   17.56
   4  -4  -1  176.29   17.88
   4  -4  -1  186.57   17.04
  -4   4   0   52.15   12.16
  -4   4   0   23.41   10.14
  -4   4   0   42.59   12.16
  -4   4   0   35.12   11.71
   4  -4   0   35.05    9.75
   4  -4   0   20.22    9.04
   4  -4   0   37.72   10.99
   4  -4   0   37.20   10.73
   4  -4   0   44.35   11.64
  -4   4  -1   66.33   13.59
  -4   4  -1   67.50   14.24
  -4   4  -1   67.18   14.18
  -4   4  -1   59.44   14.31
   4  -4   1   73.22   12.29
   4  -4   1   64.96   13.07
   4  -4   1   80.70   13.79
   4  -4   1   59.96   12.81
   4  -4   1   66.85   12.81
  -4   4  -2  100.27   16.26
  -4   4  -2  105.93   16.58
  -4   4  -2   62.75   15.74
  -4   4  -2  107.56   17.43
   4  -4   2   98.58   14.50
   4  -4   2   87.98   16.78
   4  -4   2   68.74   13.79
   4  -4   2   81.29   15.67
   4  -4   2   95.14   14.96
  -4   4  -3   90.07   16.45
  -4   4  -3   76.67   15.22
  -4   4  -3   66.07   15.67
   4  -4   3  109.12   16.06
   4  -4   3  114.13   17.95
   4  -4   3   95.85   14.76
   4  -4   3   85.32   16.13
  -4   4  -4   13.85   11.32
  -4   4  -4    2.54    8.45
  -4   4  -4    1.37    9.95
  -4   4  -4   -2.02   10.79
   4  -4   4    3.06    8.19
   4  -4   4   -0.72    9.04
   4  -4   4    0.98    7.87
   4  -4   4   -0.78    9.23
  -4   4  -5   11.25   12.62
  -4   4  -5    3.90    9.95
  -4   4  -5  -11.05    9.49
  -4   4  -5    3.38   12.10
   4  -4   5    5.40    8.32
   4  -4   5    2.41   10.21
   4  -4   5    5.33    7.41
   4  -4   5    0.33    9.36
  -4   4  -6  164.07   23.61
  -4   4  -6  175.77   21.13
  -4   4  -6  156.13   22.37
  -4   4  -6  162.90   23.80
   4  -4   6  163.74   19.12
   4  -4   6  127.59   22.70
   4  -4   6  131.10   20.29
  -4   4  -7   97.61   20.87
  -4   4  -7  126.35   19.77
  -4   4  -7  152.62   23.74
  -4   4  -7  135.07   23.93
   4  -4   7  120.24   19.18
   4  -4   7  118.35   24.71
   4  -4   7   82.78   19.12
  -4   4  -8   15.41   15.93
  -4   4  -8   22.50   15.35
  -4   4  -8   17.88   14.50
  -4   4  -8   42.20   18.47
   4  -4   8   18.99   12.55
   4  -4   8    2.99   16.13
   4  -4   8    3.77   13.33
  -4   4  -9    2.54   16.19
  -4   4  -9    7.93   17.56
  -4   4  -9   17.43   16.13
  -4   4  -9   -3.32   16.84
   4  -4   9    4.94   12.23
   4  -4   9    3.32   16.06
  -4   4 -10   -3.97   17.56
  -4   4 -10   28.22   21.26
  -4   4 -10    5.46   15.80
  -4   4 -10   10.60   17.36
   4  -4  10   10.08   13.40
   4  -4  10   -6.96   18.79
  -4   4 -11   41.81   21.85
  -4   4 -11   15.02   17.69
  -4   4 -11    0.52   18.86
   4  -4  11   19.77   14.05
   4  -4  11   17.95   19.57
  -4   3  16   61.00   22.37
  -4   3  16   61.00   23.22
   4  -3 -16   65.16   23.02
  -4   3  15   -5.33   13.92
  -4   3  15    2.28   16.91
  -4   3  15   -1.37   15.15
   4  -3 -15   16.71   18.08
  -4   3  14   42.59   18.27
  -4   3  14   -3.45   15.61
  -4   3  14    4.88   15.61
   4  -3 -14    4.03   16.00
  -4   3  13   55.40   17.95
  -4   3  13   78.03   21.00
  -4   3  13   82.59   20.16
   4  -3 -13   90.13   20.48
  -4   3  12   -6.31   10.21
  -4   3  12   30.50   16.19
  -4   3  12   23.54   15.28
   4  -3 -12   35.31   15.35
  -4   3  11    4.10   10.99
  -4   3  11   17.95   13.46
  -4   3  11   29.26   12.49
  -4   3  11   14.83   13.98
   4  -3 -11   33.62   15.09
   4  -3 -11   27.83   10.92
   4  -3 -11   18.34   14.18
  -4   3  10   33.69   13.59
  -4   3  10   45.91   14.70
  -4   3  10   40.51   12.75
  -4   3  10   45.59   15.61
   4  -3 -10   53.19   14.83
   4  -3 -10   40.25   13.46
   4  -3 -10   49.62   12.23
   4  -3 -10   62.10   15.54
  -4   3   9   -0.98    9.17
  -4   3   9   -2.86    9.43
  -4   3   9    8.84    9.17
  -4   3   9    0.52    9.88
   4  -3  -9   17.69   11.05
   4  -3  -9    2.80    9.30
   4  -3  -9    5.46    8.45
   4  -3  -9   14.44   10.60
   4  -3  -9   11.38    7.74
  -4   3   8   53.26   13.59
  -4   3   8   39.67   13.07
  -4   3   8   45.65   12.16
  -4   3   8   40.06   13.59
   4  -3  -8   55.01   13.07
   4  -3  -8   59.44   14.89
   4  -3  -8   60.09   12.49
   4  -3  -8   55.86   13.07
   4  -3  -8   45.91    9.23
  -4   3   7   22.04   10.08
  -4   3   7   24.84   11.19
  -4   3   7   19.57    9.88
  -4   3   7   20.29   11.25
   4  -3  -7   16.00    8.91
   4  -3  -7   28.22   11.84
   4  -3  -7   24.45    9.62
   4  -3  -7   23.80    9.82
  -4   3   6   -4.10    8.00
  -4   3   6    6.70    9.49
  -4   3   6    1.89    8.78
   4  -3  -6    2.47    7.87
   4  -3  -6    8.19    7.80
   4  -3  -6    5.59    8.19
  -4   3   5   50.85   11.84
  -4   3   5   58.01   13.07
  -4   3   5   69.13   14.18
   4  -3  -5   60.41   11.64
   4  -3  -5   51.76    8.97
   4  -3  -5   74.20   14.96
   4  -3  -5   61.32   11.77
   4  -3  -5   56.64   12.29
  -4   3   4  224.81   18.79
  -4   3   4  191.71   18.73
  -4   3   4  183.64   19.18
   4  -3  -4  224.68   17.17
   4  -3  -4  199.90   14.31
   4  -3  -4  222.33   18.92
   4  -3  -4  226.63   18.21
   4  -3  -4  188.45   17.36
  -4   3   3   17.17    9.43
  -4   3   3   24.13   10.60
  -4   3   3    3.77    9.36
  -4   3   3   10.73    9.43
   4  -3  -3   17.62    8.26
   4  -3  -3   17.04    6.83
   4  -3  -3   19.64    9.36
   4  -3  -3   18.53    8.71
   4  -3  -3   15.93    8.32
  -4   3   2  157.31   16.97
  -4   3   2  157.89   17.10
  -4   3   2  176.55   18.01
  -4   3   2  158.61   18.34
   4  -3  -2  167.58   15.22
   4  -3  -2  178.44   14.83
   4  -3  -2  166.54   17.10
   4  -3  -2  197.95   18.27
   4  -3  -2  185.07   17.23
  -4   3   1  548.07   25.43
  -4   3   1  532.20   25.23
  -4   3   1  581.29   26.66
  -4   3   1  518.87   26.21
   4  -3  -1  553.53   23.67
   4  -3  -1  609.84   24.13
   4  -3  -1  620.05   26.21
   4  -3  -1  598.53   26.99
   4  -3  -1  569.98   25.56
  -4   3   0   13.66    9.36
  -4   3   0    6.18    7.87
  -4   3   0   12.88    8.78
  -4   3   0    7.02    8.91
   4  -3   0    5.46    6.76
   4  -3   0   14.96    7.41
   4  -3   0   23.67    9.17
   4  -3   0   17.43    8.19
   4  -3   0   19.38    8.84
  -4   3  -1   -2.99    7.61
  -4   3  -1    8.06    8.39
  -4   3  -1   -2.28    8.00
  -4   3  -1    3.19    8.78
   4  -3   1    0.59    6.37
   4  -3   1    4.42    6.63
   4  -3   1   -0.91    7.22
   4  -3   1    4.81    6.83
   4  -3   1    1.04    7.22
  -4   3  -2   89.87   14.31
  -4   3  -2   96.76   14.83
  -4   3  -2  112.76   16.19
  -4   3  -2   96.63   15.93
   4  -3   2   97.48   14.37
   4  -3   2  119.00   16.32
   4  -3   2  111.72   15.35
   4  -3   2   98.78   15.48
   4  -3   2  107.10   15.74
  -4   3  -3  134.22   17.75
  -4   3  -3  144.43   13.59
  -4   3  -3  115.62   16.39
  -4   3  -3  134.94   18.01
  -4   3  -3  128.69   18.01
   4  -3   3  120.37   14.70
   4  -3   3  145.93   18.14
   4  -3   3  123.43   15.48
   4  -3   3  128.24   17.62
   4  -3   3  149.57   18.79
  -4   3  -4   74.85   16.00
  -4   3  -4   90.85   12.75
  -4   3  -4   73.87   14.11
  -4   3  -4   66.65   15.41
   4  -3   4   78.49   13.79
   4  -3   4   78.16   15.22
   4  -3   4   68.74   12.88
   4  -3   4   74.46   14.63
   4  -3   4   93.64   15.67
  -4   3  -5    3.77   10.73
  -4   3  -5    7.15    9.82
  -4   3  -5   -4.42    9.56
  -4   3  -5    0.98   10.99
   4  -3   5    5.20    7.87
   4  -3   5   -2.15    8.39
   4  -3   5    4.16    8.13
   4  -3   5   -2.67    8.84
  -4   3  -6   13.53   11.97
  -4   3  -6    2.73   10.53
  -4   3  -6   -0.26   10.34
  -4   3  -6   16.97   13.33
   4  -3   6   14.31    9.95
   4  -3   6   14.50   11.32
   4  -3   6   -4.81    8.32
   4  -3   6    0.72    9.69
  -4   3  -7  183.77   24.71
  -4   3  -7  183.25   22.83
  -4   3  -7  193.66   23.74
  -4   3  -7  182.47   25.95
   4  -3   7  170.90   20.29
   4  -3   7  128.89   24.97
   4  -3   7  161.66   21.72
  -4   3  -8   61.91   18.01
  -4   3  -8   89.81   19.51
  -4   3  -8   78.56   18.08
  -4   3  -8   76.41   20.22
   4  -3   8  100.34   19.31
   4  -3   8   57.29   19.25
   4  -3   8   73.55   17.62
  -4   3  -9   33.23   18.01
  -4   3  -9   53.78   18.86
  -4   3  -9   16.91   14.24
  -4   3  -9   28.68   17.23
   4  -3   9   28.29   13.72
   4  -3   9   14.70   16.65
   4  -3   9   26.73   15.41
  -4   3 -10   12.36   16.91
  -4   3 -10   25.04   18.01
  -4   3 -10   19.83   16.52
  -4   3 -10   16.78   17.10
   4  -3  10    4.03   13.33
   4  -3  10   12.49   16.06
  -4   3 -11   18.92   18.53
  -4   3 -11   43.24   22.63
  -4   3 -11   20.74   16.84
  -4   3 -11   -7.02   16.84
   4  -3  11   14.76   14.63
   4  -3  11   29.72   23.74
  -4   3 -12   16.13   20.09
  -4   3 -12   -3.64   22.63
  -4   3 -12   -6.50   24.84
   4  -3  12    8.32   14.83
   4  -3  12  -16.65   18.21
  -4   2  16   51.44   20.22
   4  -2 -16   83.30   26.01
  -4   2  15   95.92   23.02
  -4   2  15   56.38   20.09
   4  -2 -15  112.44   26.27
  -4   2  14   42.20   16.97
  -4   2  14   31.21   19.44
  -4   2  14   53.19   18.21
   4  -2 -14   56.71   20.09
  -4   2  13    4.62   12.55
  -4   2  13   -3.51   14.24
  -4   2  13    1.69   13.92
   4  -2 -13   13.07   14.57
  -4   2  12   70.56   17.23
  -4   2  12   69.97   18.92
  -4   2  12   58.53   16.71
   4  -2 -12   77.06   19.51
   4  -2 -12   43.11   16.52
  -4   2  11   39.21   13.85
  -4   2  11   55.14   16.52
  -4   2  11   58.72   16.32
   4  -2 -11   75.37   18.73
   4  -2 -11   71.66   17.49
   4  -2 -11   67.31   13.59
   4  -2 -11   43.18   14.96
  -4   2  10    5.14    9.75
  -4   2  10   26.14   13.53
  -4   2  10   36.74   12.81
  -4   2  10   17.10   11.90
   4  -2 -10   30.43   13.79
   4  -2 -10   19.57   11.77
   4  -2 -10   36.68   10.40
   4  -2 -10   22.83   12.62
   4  -2 -10   24.39   10.08
  -4   2   9   36.35   13.20
  -4   2   9   42.66   13.79
  -4   2   9   42.92   12.36
  -4   2   9   67.24   15.87
   4  -2  -9   29.72   11.84
   4  -2  -9   50.33   14.31
   4  -2  -9   44.94   10.86
   4  -2  -9   27.25   11.51
   4  -2  -9   53.06   11.51
  -4   2   8   83.37   16.06
  -4   2   8   74.52   14.96
  -4   2   8   75.30   14.18
  -4   2   8   70.69   14.89
   4  -2  -8   95.98   16.52
   4  -2  -8   90.72   17.04
   4  -2  -8  104.37   13.98
   4  -2  -8   73.29   14.76
   4  -2  -8   93.77   12.94
  -4   2   7  230.53   19.83
  -4   2   7  260.51   21.46
  -4   2   7  221.16   19.38
  -4   2   7  228.38   21.72
   4  -2  -7  216.74   19.25
   4  -2  -7  247.76   20.55
   4  -2  -7  250.04   17.95
   4  -2  -7  239.44   20.68
   4  -2  -7  225.00   15.35
  -4   2   6  206.73   18.53
  -4   2   6  232.54   19.83
  -4   2   6  189.36   18.08
  -4   2   6  176.10   19.64
   4  -2  -6  243.21   19.83
   4  -2  -6  262.72   17.95
   4  -2  -6  238.53   20.09
   4  -2  -6  208.55   13.85
  -4   2   5   -3.19    7.28
  -4   2   5    3.64    8.39
  -4   2   5    6.70    8.65
   4  -2  -5    7.15    7.61
   4  -2  -5    4.29    7.67
   4  -2  -5   10.92    7.22
   4  -2  -5   11.05    8.45
   4  -2  -5    9.23    5.66
  -4   2   4  965.10   31.80
  -4   2   4  932.58   32.06
  -4   2   4  898.83   32.19
   4  -2  -4  975.76   31.08
   4  -2  -4  958.33   23.67
   4  -2  -4  992.80   33.16
   4  -2  -4  981.61   31.15
   4  -2  -4  974.53   32.58
  -4   2   3  555.22   25.04
  -4   2   3  556.32   25.56
  -4   2   3  487.72   25.10
   4  -2  -3  589.16   24.52
   4  -2  -3  575.12   19.25
   4  -2  -3  587.41   26.08
   4  -2  -3  584.35   25.17
   4  -2  -3  589.94   25.43
  -4   2   2   17.17    8.84
  -4   2   2   19.90    9.75
  -4   2   2   25.43   10.73
   4  -2  -2   15.93    8.26
   4  -2  -2   16.71    6.24
   4  -2  -2   34.34    9.75
   4  -2  -2   23.54    8.71
   4  -2  -2   19.31    9.23
  -4   2   1  811.17   29.07
  -4   2   1  803.17   28.48
  -4   2   1  765.91   30.04
   4  -2  -1  853.70   28.35
   4  -2  -1  883.16   25.49
   4  -2  -1  840.31   29.13
   4  -2  -1  850.78   29.85
   4  -2  -1  825.74   29.52
  -4   2   0  572.19   25.49
  -4   2   0  538.51   23.74
  -4   2   0  522.18   26.14
   4  -2   0  608.22   24.78
   4  -2   0  643.79   23.48
   4  -2   0  614.00   25.10
   4  -2   0  611.34   26.47
   4  -2   0  565.95   25.43
  -4   2  -1  156.33   16.71
  -4   2  -1  163.61   15.74
  -4   2  -1  145.86   17.69
   4  -2   1  196.52   16.06
   4  -2   1  201.59   15.93
   4  -2   1  178.89   16.78
   4  -2   1  201.20   17.56
   4  -2   1  170.51   16.39
  -4   2  -2   51.24   12.16
  -4   2  -2   46.04    7.93
  -4   2  -2   35.77    9.95
  -4   2  -2   39.67   11.71
   4  -2   2   48.19   10.66
   4  -2   2   49.29   10.40
   4  -2   2   35.90   10.08
   4  -2   2   41.49   10.60
  -4   2  -3  236.38   19.70
  -4   2  -3  251.08   15.35
  -4   2  -3  262.00   18.99
  -4   2  -3  262.85   21.59
   4  -2   3  265.12   18.53
   4  -2   3  262.07   19.44
   4  -2   3  208.74   16.32
   4  -2   3  239.18   19.57
  -4   2  -4  511.32   26.99
  -4   2  -4  571.80   22.63
  -4   2  -4  496.63   24.97
  -4   2  -4  527.45   28.74
   4  -2   4  490.51   24.71
   4  -2   4  512.23   26.66
   4  -2   4  372.62   20.29
   4  -2   4  538.90   27.51
  -4   2  -5  183.38   20.48
  -4   2  -5  212.52   17.82
  -4   2  -5  185.20   18.86
  -4   2  -5  216.74   22.89
   4  -2   5  199.51   18.34
   4  -2   5  159.91   20.61
   4  -2   5  122.19   17.17
   4  -2   5  177.98   19.83
  -4   2  -6  244.38   23.35
  -4   2  -6  197.04   19.77
  -4   2  -6  180.59   19.70
  -4   2  -6  196.13   24.06
   4  -2   6  178.44   18.73
   4  -2   6  191.45   21.13
   4  -2   6  130.06   15.35
   4  -2   6  233.58   26.01
  -4   2  -7  246.33   25.43
  -4   2  -7  244.44   23.54
  -4   2  -7  241.06   22.57
  -4   2  -7  236.97   26.66
   4  -2   7  225.46   21.52
   4  -2   7  197.30   24.32
   4  -2   7  132.98   16.58
  -4   2  -8  128.56   21.72
  -4   2  -8  139.16   21.00
  -4   2  -8  136.76   19.96
  -4   2  -8  149.31   23.93
   4  -2   8  133.63   19.57
   4  -2   8   77.51   24.91
  -4   2  -9   36.74   16.58
  -4   2  -9   16.32   16.45
  -4   2  -9   18.99   13.59
  -4   2  -9   39.99   17.30
   4  -2   9   37.20   14.37
   4  -2   9   35.38   18.08
  -4   2 -10   52.80   19.05
  -4   2 -10   75.50   21.65
  -4   2 -10   65.68   18.73
  -4   2 -10   60.93   20.94
   4  -2  10   55.47   16.13
   4  -2  10   54.82   22.11
   4  -2  10  100.21   18.86
  -4   2 -11   81.94   22.04
  -4   2 -11   65.68   23.28
  -4   2 -11   41.62   16.91
  -4   2 -11   70.17   22.37
   4  -2  11   34.99   16.00
   4  -2  11   36.68   19.57
  -4   2 -12   13.33   19.18
  -4   2 -12   -6.24   21.20
   4  -2  12   13.79   14.96
   4  -2  12   -1.95   25.88
  -4   2 -13    0.52   19.12
  -4   2 -13   -6.18   22.83
   4  -2  13   20.03   15.74
   4  -2  13  -20.87   19.64
  -4   1  15   15.15   15.54
  -4   1  15   25.10   18.79
   4  -1 -15   23.41   20.35
  -4   1  14   88.83   20.61
  -4   1  14  111.07   22.83
   4  -1 -14   99.75   24.32
  -4   1  13   60.09   17.95
  -4   1  13   78.95   21.13
  -4   1  13   77.90   19.77
   4  -1 -13   86.16   21.59
   4  -1 -13   86.68   21.07
  -4   1  12    2.67   11.64
  -4   1  12    4.75   14.11
  -4   1  12   -4.36   12.81
   4  -1 -12   -3.77   13.14
   4  -1 -12   -8.97   10.92
  -4   1  11   -2.93   10.14
  -4   1  11   15.28   13.98
  -4   1  11   -6.11   10.66
   4  -1 -11    6.63   11.97
   4  -1 -11    0.78   10.47
   4  -1 -11    3.84   10.79
   4  -1 -11   13.66   10.86
  -4   1  10    0.72    9.62
  -4   1  10   -4.75   10.86
  -4   1  10   -2.73   10.27
   4  -1 -10   -4.94    8.84
   4  -1 -10    4.75    9.88
   4  -1 -10   -2.86    6.76
   4  -1 -10   -1.11    9.69
   4  -1 -10   -0.59    8.45
  -4   1   9   -4.29    8.52
  -4   1   9   11.19   11.58
  -4   1   9   -2.93    8.39
  -4   1   9   -7.35    9.88
   4  -1  -9   -5.72    8.45
   4  -1  -9    2.86    9.04
   4  -1  -9   -6.63    6.31
   4  -1  -9   -6.70    8.58
   4  -1  -9   -2.34    7.67
  -4   1   8   -2.41    8.00
  -4   1   8    0.33    9.49
  -4   1   8   -1.30    8.26
  -4   1   8    5.40    9.75
   4  -1  -8    5.53    8.91
   4  -1  -8    7.87    9.30
   4  -1  -8    4.81    6.70
   4  -1  -8    2.80    8.45
   4  -1  -8    9.36    7.80
  -4   1   7  261.16   20.55
  -4   1   7  256.47   21.59
  -4   1   7  219.73   19.70
  -4   1   7  261.61   21.91
   4  -1  -7  261.48   20.42
   4  -1  -7  280.34   20.74
   4  -1  -7  302.91   17.69
   4  -1  -7  264.67   21.39
   4  -1  -7  234.69   16.78
  -4   1   6  360.65   21.85
  -4   1   6  317.73   22.11
  -4   1   6  306.94   21.00
  -4   1   6  279.30   21.98
   4  -1  -6  351.74   21.85
   4  -1  -6  352.00   18.73
   4  -1  -6  313.90   21.78
   4  -1  -6  343.94   18.14
  -4   1   5    4.36    8.00
  -4   1   5    7.54    8.13
  -4   1   5   -0.72    6.70
  -4   1   5   -7.09    7.35
   4  -1  -5    2.54    6.18
   4  -1  -5    1.50    8.06
   4  -1  -5    2.41    6.50
   4  -1  -5    9.69    8.00
   4  -1  -5    6.63    5.98
  -4   1   4   30.63    9.56
  -4   1   4   37.46    5.79
  -4   1   4   34.53   10.47
  -4   1   4   24.91    9.17
  -4   1   4   35.96   10.73
   4  -1  -4   34.73    9.75
   4  -1  -4   41.68    6.31
   4  -1  -4   39.73   10.34
   4  -1  -4   35.05    9.10
   4  -1  -4   40.06   10.40
   4  -1  -4   37.98    8.32
  -4   1   3    9.62    8.06
  -4   1   3    6.76    4.68
  -4   1   3    4.88    7.35
  -4   1   3    5.79    8.26
   4  -1  -3   11.97    7.28
   4  -1  -3    8.06    4.62
   4  -1  -3    6.24    7.67
   4  -1  -3    3.90    7.28
   4  -1  -3    6.57    7.09
  -4   1   2   11.64    8.45
  -4   1   2   14.63    8.52
  -4   1   2   11.84    9.04
   4  -1  -2   11.84    6.76
   4  -1  -2   12.36    5.14
   4  -1  -2   15.28    8.39
  -4   1   1   33.49    9.62
  -4   1   1   26.60    8.06
  -4   1   1   58.33   11.12
  -4   1   1   41.23   10.92
   4  -1  -1   57.88   10.66
   4  -1  -1   51.44    8.97
   4  -1  -1   13.92   15.09
   4  -1  -1   57.55   11.19
  -4   1   0  827.17   28.42
  -4   1   0  886.22   20.22
  -4   1   0  797.52   26.40
  -4   1   0  778.85   28.94
   4  -1   0  887.26   28.29
   4  -1   0  861.57   24.71
   4  -1   0  838.48   19.44
   4  -1   0  516.79   28.16
   4  -1   0  902.41   29.85
  -4   1  -1  297.70   19.51
  -4   1  -1  322.74   14.57
  -4   1  -1  307.72   17.88
  -4   1  -1  270.98   20.03
   4  -1   1  304.01   18.53
   4  -1   1  327.62   17.30
   4  -1   1  179.03   16.52
   4  -1   1  311.55   19.70
  -4   1  -2  190.41   16.97
  -4   1  -2  174.54   12.94
  -4   1  -2  171.35   14.89
  -4   1  -2  147.42   17.30
   4  -1   2  163.81   15.02
   4  -1   2  216.35   15.74
   4  -1   2  116.73   14.96
   4  -1   2  175.84   16.65
  -4   1  -3  116.40   15.28
  -4   1  -3  120.30   13.14
  -4   1  -3  112.44   13.92
  -4   1  -3  109.64   15.41
   4  -1   3  115.56   13.92
   4  -1   3  126.55   14.76
   4  -1   3   48.77   11.32
   4  -1   3  126.94   15.74
  -4   1  -4  171.55   17.95
  -4   1  -4  202.63   16.32
  -4   1  -4  164.98   16.06
  -4   1  -4  210.63   20.42
   4  -1   4  179.48   16.71
   4  -1   4  163.48   16.71
   4  -1   4   59.70   11.32
   4  -1   4  189.62   18.34
  -4   1  -5   39.67   11.97
  -4   1  -5   61.52   12.36
  -4   1  -5   39.28   10.27
  -4   1  -5   39.86   12.88
   4  -1   5   38.95   11.38
   4  -1   5   43.37   11.32
   4  -1   5   17.17    8.32
   4  -1   5   41.94   12.03
  -4   1  -6    0.39    9.56
  -4   1  -6    5.98    9.62
  -4   1  -6    3.19    8.39
  -4   1  -6    0.13   10.99
   4  -1   6    3.25    7.48
   4  -1   6  -13.72    9.88
   4  -1   6    1.56   10.79
   4  -1   6    6.37    8.39
  -4   1  -7  336.66   26.21
  -4   1  -7  378.99   25.10
  -4   1  -7  392.26   23.61
  -4   1  -7  354.60   28.61
   4  -1   7  342.44   24.13
   4  -1   7  213.69   21.85
   4  -1   7   89.81   12.88
   4  -1   7  304.99   24.91
  -4   1  -8  230.85   25.17
  -4   1  -8  214.60   24.52
  -4   1  -8  218.63   21.20
  -4   1  -8  241.26   27.44
   4  -1   8  211.34   21.91
   4  -1   8  107.95   19.38
   4  -1   8   53.39   11.38
  -4   1  -9   -3.77   12.94
  -4   1  -9    1.89   13.66
  -4   1  -9   -2.99   11.25
  -4   1  -9    0.85   14.31
   4  -1   9   -2.67   10.14
   4  -1   9   -5.27   14.11
  -4   1 -10  117.57   22.89
  -4   1 -10  171.29   26.40
  -4   1 -10  152.75   21.52
  -4   1 -10  140.66   25.56
   4  -1  10  133.76   22.30
   4  -1  10   86.23   22.96
  -4   1 -11  144.88   25.88
  -4   1 -11  164.91   28.09
  -4   1 -11  141.18   21.33
  -4   1 -11  177.14   28.94
   4  -1  11  148.92   24.13
   4  -1  11   94.36   24.00
  -4   1 -12   11.45   18.79
  -4   1 -12   34.21   21.26
   4  -1  12   11.77   15.15
   4  -1  12   -3.90   18.08
  -4   1 -13    7.35   18.79
  -4   1 -13   15.74   22.24
   4  -1  13   -5.40   13.79
   4  -1  13  -12.62   21.52
  -4   0  15   -2.02   14.24
  -4   0  15    0.85   17.10
   4   0 -15    7.28   18.21
  -4   0  14   21.39   14.70
  -4   0  14   34.08   18.34
   4   0 -14    8.58   17.75
   4   0 -14   56.51   20.74
  -4   0  13  161.40   24.45
  -4   0  13  163.74   25.56
   4   0 -13  221.36   30.69
   4   0 -13  195.22   28.55
  -4   0  12   94.16   19.05
  -4   0  12   93.32   20.22
   4   0 -12  123.36   24.00
   4   0 -12  110.42   22.30
   4   0 -12  105.41   19.64
  -4   0  11   23.28   11.84
  -4   0  11    3.38   14.05
  -4   0  11    8.00   12.62
   4   0 -11   11.19   13.27
   4   0 -11   17.17   11.45
   4   0 -11   16.00   12.42
   4   0 -11    8.26   11.05
  -4   0  10  773.20   34.73
  -4   0  10  832.50   39.60
  -4   0  10  859.29   37.98
   4   0 -10  877.44   39.02
   4   0 -10  949.94   35.57
   4   0 -10  847.52   38.95
   4   0 -10  849.73   35.64
  -4   0   9  637.15   30.82
  -4   0   9  650.42   33.75
  -4   0   9  697.50   33.62
   4   0  -9  725.33   34.14
   4   0  -9  718.44   30.69
   4   0  -9  711.74   34.60
   4   0  -9  713.37   30.89
  -4   0   8    2.34    8.32
  -4   0   8   10.01    9.30
  -4   0   8    5.33    9.23
  -4   0   8    9.30   10.01
   4   0  -8   15.80   10.21
   4   0  -8   19.18   10.08
   4   0  -8   15.28    6.70
   4   0  -8    8.13    9.23
   4   0  -8   16.19    8.84
  -4   0   7  922.70   32.84
  -4   0   7  986.95   36.42
  -4   0   7  929.46   34.66
  -4   0   7  910.54   34.73
   4   0  -7 1002.10   35.18
   4   0  -7 1043.00   34.01
   4   0  -7 1050.15   26.79
   4   0  -7  991.50   35.90
   4   0  -7 1050.28   32.77
  -4   0   6 2305.93   48.06
  -4   0   6 2339.75   51.44
  -4   0   6 2238.63   49.94
  -4   0   6 2120.21   48.77
   4   0  -6 2460.90   49.42
   4   0  -6 2508.17   41.23
   4   0  -6 2350.74   51.44
   4   0  -6 2285.84   44.67
  -4   0   5  935.70   30.69
  -4   0   5 1017.97   33.56
  -4   0   5  873.99   31.15
  -4   0   5  878.80   31.73
   4   0  -5 1015.04   32.19
   4   0  -5 1045.02   33.03
   4   0  -5 1057.70   28.29
   4   0  -5  981.35   33.16
   4   0  -5  866.71   30.89
   4   0  -5 1001.71   29.20
  -4   0   4    6.83    7.80
  -4   0   4   27.25    9.04
  -4   0   4   13.27    7.74
  -4   0   4   13.20    8.97
   4   0  -4   19.44    8.00
   4   0  -4   30.89    9.56
   4   0  -4   17.30    7.41
   4   0  -4   16.32    8.19
   4   0  -4   20.74    8.58
   4   0  -4   18.66    7.48
  -4   0   3 1573.83   36.81
  -4   0   3 1663.18   38.11
  -4   0   3 1555.76   38.04
  -4   0   3 1584.30   38.56
   4   0  -3 1705.45   38.30
   4   0  -3 1508.87   39.34
   4   0  -3 1724.77   39.99
   4   0  -3 1582.87   37.98
  -4   0   2 1616.17   36.74
  -4   0   2 1629.11   36.22
  -4   0   2 1521.49   37.46
   4   0  -2 1757.35   38.30
   4   0  -2 1346.43   37.78
   4   0  -2 1714.56   39.41
   4   0  -2 1532.15   36.87
  -4   0   1   20.94    9.17
  -4   0   1    1.24    8.52
  -4   0   1   33.69    9.23
  -4   0   1   25.23   10.14
   4   0  -1   24.13    8.91
   4   0  -1   35.38    6.44
   4   0  -1   11.05    8.06
   4   0  -1   18.92    9.36
   4   0  -1   26.53    9.49
  -4   0   0 1322.89   33.36
  -4   0   0 1397.41   27.64
  -4   0   0 1338.04   30.89
  -4   0   0 1276.98   34.47
   4   0   0 1472.13   34.86
   4   0   0 1413.99   27.12
   4   0   0  602.75   24.45
   4   0   0 1445.66   35.96
   4   0   0 1342.59   39.47
  -4   0  -1  421.06   21.52
  -4   0  -1  471.33   18.34
  -4   0  -1  444.28   19.18
  -4   0  -1  375.54   21.78
   4   0   1  462.36   21.13
   4   0   1  470.29   20.55
   4   0   1  200.81   20.68
   4   0   1  470.36   22.76
  -4   0  -2  833.54   28.22
  -4   0  -2  879.19   24.19
  -4   0  -2  853.25   24.26
  -4   0  -2  798.17   29.13
   4   0   2  909.56   28.87
   4   0   2  722.15   25.10
   4   0   2  190.34   21.26
   4   0   2  931.80   30.69
  -4   0  -3  163.35   16.06
  -4   0  -3  189.04   14.76
  -4   0  -3  159.91   13.33
  -4   0  -3  155.09   17.17
   4   0   3  196.39   16.06
   4   0   3  109.96   12.81
   4   0   3   38.63    9.62
   4   0   3  172.26   17.04
  -4   0  -4   85.64   13.66
  -4   0  -4   91.63   13.07
  -4   0  -4   64.96   10.47
  -4   0  -4   61.52   12.68
   4   0   4   58.33   11.19
   4   0   4    9.95    7.15
   4   0   4   19.96    8.26
   4   0   4   65.68   13.01
  -4   0  -5  401.16   23.74
  -4   0  -5  429.06   22.24
  -4   0  -5  413.71   19.31
  -4   0  -5  389.33   25.04
   4   0   5  391.61   22.24
   4   0   5   56.38   11.19
   4   0   5   83.24   12.36
   4   0   5  403.44   23.93
  -4   0  -6   46.37   12.55
  -4   0  -6   40.32   11.90
  -4   0  -6   31.86    9.62
  -4   0  -6   39.21   12.94
   4   0   6   51.57   12.36
   4   0   6   -3.71    6.57
   4   0   6    8.00    7.35
   4   0   6   45.52   12.42
  -4   0  -7   -4.10    9.82
  -4   0  -7    6.37   10.14
  -4   0  -7    4.42    8.45
  -4   0  -7   -0.46   10.92
   4   0   7    0.39    8.32
   4   0   7  -11.32    7.15
   4   0   7    1.24    7.54
   4   0   7    6.37   10.40
  -4   0  -8  198.73   23.22
  -4   0  -8  225.72   23.35
  -4   0  -8  181.63   18.21
  -4   0  -8  204.97   24.97
   4   0   8  180.91   20.16
   4   0   8   15.09    9.88
   4   0   8   54.88   11.05
   4   0   8  219.41   22.89
  -4   0  -9  165.37   23.22
  -4   0  -9  193.46   25.23
  -4   0  -9  180.39   19.64
  -4   0  -9  198.92   25.82
   4   0   9  173.82   21.26
   4   0   9    0.33   10.14
   4   0   9   61.78   11.45
  -4   0 -10   35.44   16.39
  -4   0 -10   53.00   19.83
  -4   0 -10   51.89   14.50
  -4   0 -10   36.42   18.40
   4   0  10   28.94   13.98
   4   0  10    8.00   12.62
  -4   0 -11   22.04   16.39
  -4   0 -11  -11.71   16.06
  -4   0 -11   -3.77   22.44
   4   0  11   -2.28   11.58
   4   0  11   -3.71   12.36
  -4   0 -12   -6.70   14.70
  -4   0 -12    2.21   19.12
   4   0  12   -1.24   12.94
   4   0  12    3.45   14.83
  -4   0 -13   -3.90   16.91
  -4   0 -13   16.91   21.07
   4   0  13  -12.88   13.46
   4   0  13   -8.78   17.62
  -4   0 -14   13.33   20.55
  -4   0 -14   13.20   25.04
   4   0  14   -3.58   15.15
   4   0  14    2.47   19.96
  -4  -1  15    5.20   15.02
  -4  -1  15   17.62   19.64
   4   1 -15   10.01   19.90
  -4  -1  14   82.00   20.03
  -4  -1  14   95.46   23.74
   4   1 -14  120.63   26.01
   4   1 -14   64.18   21.65
  -4  -1  13   92.02   19.38
  -4  -1  13   76.02   20.55
   4   1 -13  113.41   25.17
   4   1 -13   80.25   20.68
  -4  -1  12   94.03   18.47
  -4  -1  12  113.87   22.96
   4   1 -12  119.59   23.67
   4   1 -12  106.91   21.78
   4   1 -12  114.84   21.72
  -4  -1  11   -3.71    9.69
  -4  -1  11    7.80   12.49
   4   1 -11   -4.81   11.32
   4   1 -11    1.63    9.82
   4   1 -11  -10.47   10.34
   4   1 -11    4.03   11.38
  -4  -1  10  182.86   20.48
  -4  -1  10  224.29   24.91
   4   1 -10  243.60   25.10
   4   1 -10  205.04   21.07
   4   1 -10  223.96   24.78
   4   1 -10  209.78   22.63
  -4  -1   9  226.56   20.81
  -4  -1   9  228.25   24.45
  -4  -1   9  240.15   23.87
   4   1  -9  239.57   23.09
   4   1  -9  271.30   21.00
   4   1  -9  284.70   24.32
   4   1  -9  254.72   21.91
  -4  -1   8  158.61   17.49
  -4  -1   8  164.85   20.48
  -4  -1   8  165.17   19.18
   4   1  -8  185.92   19.90
   4   1  -8  172.07   17.43
   4   1  -8  177.20   20.09
   4   1  -8  156.46   17.69
  -4  -1   7  100.53   14.24
  -4  -1   7  142.80   18.86
  -4  -1   7  129.60   17.95
  -4  -1   7  127.46   17.17
   4   1  -7  140.66   17.10
   4   1  -7  185.27   17.43
   4   1  -7  169.86   12.10
   4   1  -7  155.22   17.95
   4   1  -7  118.22   16.58
   4   1  -7  143.13   16.26
  -4  -1   6  129.15   15.02
  -4  -1   6  118.42   16.26
  -4  -1   6  112.89   16.13
  -4  -1   6  125.64   16.52
   4   1  -6  138.84   15.74
   4   1  -6  146.12   12.23
   4   1  -6  154.70   18.79
   4   1  -6  131.03   15.74
   4   1  -6  153.40   15.80
  -4  -1   5  294.84   18.66
  -4  -1   5  326.97   21.39
  -4  -1   5  320.59   20.94
  -4  -1   5  297.57   20.42
   4   1  -5  362.60   20.68
   4   1  -5  341.01   20.35
   4   1  -5  338.41   16.78
   4   1  -5  345.95   21.39
   4   1  -5  339.39   20.55
   4   1  -5  345.95   19.96
  -4  -1   4  468.14   21.33
  -4  -1   4  460.28   23.02
  -4  -1   4  449.09   23.15
  -4  -1   4  420.02   21.85
   4   1  -4  504.69   22.83
   4   1  -4  446.42   21.72
   4   1  -4  491.94   23.48
   4   1  -4  477.70   22.50
   4   1  -4  480.17   21.91
  -4  -1   3   32.97    9.10
  -4  -1   3   23.54    8.71
  -4  -1   3   32.84    9.62
  -4  -1   3   26.73    9.23
   4   1  -3   36.94    8.84
   4   1  -3    6.05   10.47
   4   1  -3   35.31    9.82
   4   1  -3   39.21    9.36
  -4  -1   2   18.27    7.87
  -4  -1   2    9.10    7.28
  -4  -1   2   13.27    7.87
  -4  -1   2   19.70    8.26
   4   1  -2   18.27    7.54
   4   1  -2   15.28    9.62
   4   1  -2   13.79    7.87
   4   1  -2   14.89    7.54
  -4  -1   1  734.11   24.65
  -4  -1   1  748.48   23.54
  -4  -1   1  743.02   23.80
  -4  -1   1  713.56   25.43
  -4  -1   1  710.51   25.49
   4   1  -1  784.32   25.62
   4   1  -1  263.76   17.30
   4   1  -1  804.41   26.79
   4   1  -1  714.93   25.10
  -4  -1   0  209.00   15.54
  -4  -1   0  253.29   15.61
  -4  -1   0  224.16   14.31
  -4  -1   0  200.81   16.71
   4   1   0  245.81   16.32
   4   1   0  242.75   10.99
   4   1   0   58.98   11.32
   4   1   0  198.47   16.58
   4   1   0  185.98   15.35
  -4  -1  -1  114.78   13.66
  -4  -1  -1  122.71   12.88
  -4  -1  -1  120.89   11.64
  -4  -1  -1   90.72   12.75
   4   1   1  131.23   13.33
   4   1   1   54.62    7.80
   4   1   1   36.29    9.95
   4   1   1  138.25   14.70
   4   1   1  112.76   13.27
  -4  -1  -2  349.27   19.31
  -4  -1  -2  366.70   18.73
  -4  -1  -2  345.89   15.54
  -4  -1  -2  315.07   19.64
   4   1   2  373.14   19.38
   4   1   2    2.67    6.96
   4   1   2  137.15   16.97
   4   1   2  369.04   20.61
   4   1   2  341.40   19.38
  -4  -1  -3  501.83   22.70
  -4  -1  -3  536.49   22.04
  -4  -1  -3  498.97   17.30
  -4  -1  -3  479.46   23.48
   4   1   3  543.84   23.02
   4   1   3   11.05    6.24
   4   1   3  244.57   20.29
   4   1   3  532.13   24.06
   4   1   3  478.87   22.89
  -4  -1  -4   73.87   13.01
  -4  -1  -4   64.12   11.90
  -4  -1  -4   54.04    8.58
  -4  -1  -4   57.42   12.23
   4   1   4   60.74   11.71
   4   1   4  -11.19    4.42
   4   1   4   40.71   10.08
   4   1   4   77.64   13.27
  -4  -1  -5   39.60   11.51
  -4  -1  -5   42.14   11.45
  -4  -1  -5   43.44    8.32
  -4  -1  -5   26.73   10.92
   4   1   5   31.67    9.62
   4   1   5   -0.52    5.01
   4   1   5   18.40    8.32
   4   1   5   37.46   10.79
  -4  -1  -6   30.69   11.32
  -4  -1  -6   41.62   11.64
  -4  -1  -6   39.60    8.58
  -4  -1  -6   37.59   12.10
   4   1   6   31.15    9.82
   4   1   6   -6.63    5.07
   4   1   6   24.78    9.30
   4   1   6   35.51   11.38
  -4  -1  -7  357.01   24.52
  -4  -1  -7  402.86   25.10
  -4  -1  -7  336.33   17.95
  -4  -1  -7  328.27   25.36
   4   1   7  318.58   22.17
   4   1   7   -8.84    6.89
   4   1   7  268.38   18.73
   4   1   7  336.27   24.19
  -4  -1  -8   43.24   14.44
  -4  -1  -8   27.57   13.53
  -4  -1  -8   37.46    9.62
  -4  -1  -8   40.12   14.31
   4   1   8   53.65   13.79
   4   1   8    0.52    7.48
   4   1   8   35.64   11.05
   4   1   8   29.00   12.55
  -4  -1  -9   12.36   12.16
  -4  -1  -9   10.40   13.40
  -4  -1  -9   11.25    9.30
  -4  -1  -9   -2.73   12.42
   4   1   9   18.66   10.73
   4   1   9   22.57   12.75
   4   1   9   17.62   10.60
   4   1   9    4.23   11.19
  -4  -1 -10   62.36   17.30
  -4  -1 -10   66.85   19.31
  -4  -1 -10   62.04   13.14
  -4  -1 -10   68.35   19.18
   4   1  10   58.14   15.93
   4   1  10    8.19   18.66
   4   1  10   81.03   18.14
   4   1  10   61.32   17.69
  -4  -1 -11    6.70   14.76
  -4  -1 -11   22.83   17.95
   4   1  11   19.31   14.37
   4   1  11    3.58   12.49
  -4  -1 -12    9.82   15.02
  -4  -1 -12   21.72   19.05
   4   1  12   10.14   13.59
   4   1  12    3.38   15.74
  -4  -1 -13  -10.34   14.96
  -4  -1 -13  -14.76   19.51
   4   1  13   -9.36   12.68
   4   1  13    1.89   13.85
  -4  -1 -14  -14.05   17.04
  -4  -1 -14    4.88   23.87
   4   1  14   -8.91   14.31
   4   1  14   27.05   28.03
  -4  -1 -15    5.92   19.64
  -4  -1 -15   -9.23   23.74
   4   1  15   23.74   18.79
   4   1  15  -19.25   18.73
  -4  -2  14    6.05   13.59
  -4  -2  14    7.54   18.34
   4   2 -14   18.66   18.01
   4   2 -14   11.64   15.15
  -4  -2  13  114.78   20.68
  -4  -2  13  121.47   25.82
   4   2 -13  118.68   25.56
   4   2 -13  132.85   25.75
  -4  -2  12   86.23   18.14
  -4  -2  12  116.99   24.13
   4   2 -12  145.47   25.36
   4   2 -12   97.54   21.52
   4   2 -12  106.78   22.30
  -4  -2  11   19.25   11.45
  -4  -2  11   36.74   16.39
   4   2 -11   26.60   15.74
   4   2 -11   41.75   15.41
   4   2 -11   15.15   12.81
  -4  -2  10    8.13    9.88
  -4  -2  10    0.91   12.16
   4   2 -10    2.60   11.71
   4   2 -10    1.17    9.43
   4   2 -10  -13.40    9.10
   4   2 -10    7.74   12.23
  -4  -2   9   12.62    9.56
  -4  -2   9   14.37   12.75
   4   2  -9    5.46   11.32
   4   2  -9   12.62    8.91
   4   2  -9   17.82   11.12
   4   2  -9   16.84   11.19
  -4  -2   8    6.89    8.13
  -4  -2   8   -0.78    9.04
   4   2  -8    7.61    9.23
   4   2  -8    6.31    8.13
   4   2  -8   -6.96    8.45
   4   2  -8    2.28    8.26
  -4  -2   7   10.79    8.19
  -4  -2   7    2.41    9.49
  -4  -2   7    2.67    9.04
  -4  -2   7   22.63   13.72
   4   2  -7   10.66    9.10
   4   2  -7   25.43   10.34
   4   2  -7   11.90    8.84
   4   2  -7    8.39    8.45
  -4  -2   6    3.25    7.09
  -4  -2   6    3.97    8.45
  -4  -2   6    0.72    8.26
  -4  -2   6   15.93    7.93
   4   2  -6   12.29    8.13
   4   2  -6   -0.98    5.20
   4   2  -6   10.27    8.13
   4   2  -6   17.10    8.52
   4   2  -6   15.15    8.71
  -4  -2   5   29.39    8.45
  -4  -2   5   24.00    9.88
  -4  -2   5   26.21    9.88
  -4  -2   5   29.78    8.97
   4   2  -5   38.17    9.82
   4   2  -5   38.17   10.21
   4   2  -5   46.17   10.92
   4   2  -5   34.79    9.88
   4   2  -5   36.81   10.34
  -4  -2   4  347.45   18.21
  -4  -2   4  377.17   21.72
  -4  -2   4  339.84   20.81
  -4  -2   4  155.09   14.11
   4   2  -4  389.13   20.42
   4   2  -4  263.63   18.47
   4   2  -4  368.65   20.74
   4   2  -4  328.14   19.12
   4   2  -4  340.62   20.29
  -4  -2   3   97.02   12.03
  -4  -2   3  106.52   14.11
  -4  -2   3   78.30   12.81
  -4  -2   3   22.63    7.41
   4   2  -3   92.93   12.49
   4   2  -3   31.08    8.91
   4   2  -3  119.52   14.70
   4   2  -3   86.88   12.42
  -4  -2   2    2.28    5.92
  -4  -2   2    7.74    7.02
  -4  -2   2   -3.64    6.18
  -4  -2   2    0.52    5.01
   4   2  -2    9.69    6.50
   4   2  -2   28.22   13.20
   4   2  -2    8.26    6.96
   4   2  -2   14.24    6.89
  -4  -2   1  557.36   20.55
  -4  -2   1  623.69   23.87
  -4  -2   1  549.37   20.81
  -4  -2   1  530.44   22.50
  -4  -2   1  243.92   15.35
   4   2  -1  636.11   22.70
   4   2  -1  177.59   15.41
   4   2  -1  581.42   22.83
   4   2  -1  534.02   21.52
  -4  -2   0  562.31   21.00
  -4  -2   0  616.28   23.35
  -4  -2   0  590.85   19.83
  -4  -2   0  559.32   21.98
  -4  -2   0  431.66   19.83
   4   2   0  619.08   22.50
   4   2   0  656.14   24.13
   4   2   0  541.17   21.65
  -4  -2  -1  225.33   15.22
  -4  -2  -1  247.70   16.52
  -4  -2  -1  266.42   13.53
  -4  -2  -1  231.63   14.96
  -4  -2  -1  204.52   16.19
   4   2   1  263.43   16.13
   4   2   1  134.35   13.27
   4   2   1  236.77   16.71
   4   2   1  223.31   15.54
  -4  -2  -2  130.19   13.72
  -4  -2  -2  112.70   13.59
  -4  -2  -2  120.37   10.01
  -4  -2  -2  107.04   13.27
   4   2   2  138.12   13.40
   4   2   2  109.25   14.96
   4   2   2  134.94   14.83
   4   2   2  124.60   13.27
  -4  -2  -3  709.53   24.71
  -4  -2  -3  747.38   26.21
  -4  -2  -3  649.32   25.23
   4   2   3  744.19   25.56
   4   2   3  659.85   31.60
   4   2   3  733.72   26.79
   4   2   3  670.51   25.17
  -4  -2  -4  372.10   20.42
  -4  -2  -4  390.69   21.13
  -4  -2  -4  358.05   21.13
   4   2   4  386.86   20.29
   4   2   4  378.99   20.42
   4   2   4  394.27   21.59
   4   2   4  348.10   20.16
  -4  -2  -5   -1.69    7.48
  -4  -2  -5   12.03    8.78
  -4  -2  -5    9.82    8.84
   4   2   5   -2.67    5.92
   4   2   5   -1.50    7.09
   4   2   5   -1.37    6.96
   4   2   5    2.54    7.61
  -4  -2  -6   53.45   12.42
  -4  -2  -6   45.26   11.71
  -4  -2  -6   40.84   11.84
   4   2   6   39.54   10.53
   4   2   6   45.46   11.05
   4   2   6   43.05   11.19
  -4  -2  -7  266.03   21.20
  -4  -2  -7  278.65   22.50
  -4  -2  -7  239.37   21.78
   4   2   7  264.67   20.61
   4   2   7  291.85   19.51
   4   2   7  290.42   22.70
  -4  -2  -8   42.20   13.40
  -4  -2  -8   67.89   15.35
  -4  -2  -8   82.78   16.39
   4   2   8   55.86   13.01
   4   2   8   77.90   13.40
   4   2   8   62.17   14.50
  -4  -2  -9    6.18   11.45
  -4  -2  -9    4.81   12.88
  -4  -2  -9    2.60   11.77
   4   2   9    2.15    9.04
   4   2   9   -4.88    8.19
   4   2   9    7.74   10.86
  -4  -2 -10   63.53   17.30
  -4  -2 -10   76.34   18.14
  -4  -2 -10   71.47   23.28
   4   2  10   71.14   16.78
   4   2  10   75.56   14.44
   4   2  10   60.93   16.26
  -4  -2 -11   15.28   14.44
  -4  -2 -11   18.79   18.27
   4   2  11    7.48   12.10
   4   2  11    8.13   10.66
   4   2  11   13.33   13.66
  -4  -2 -12   -3.58   13.33
  -4  -2 -12    8.52   17.49
   4   2  12    2.41   13.07
  -4  -2 -13    1.69   15.15
  -4  -2 -13   20.68   19.77
   4   2  13   20.68   16.19
   4   2  13   22.50   14.76
  -4  -2 -14   20.35   18.27
  -4  -2 -14   33.69   24.19
   4   2  14   35.05   16.97
   4   2  14   16.13   16.26
  -4  -2 -15   18.99   20.48
  -4  -2 -15   61.32   29.00
   4   2  15   39.08   20.09
   4   2  15   23.09   18.66
  -4  -3  14   73.94   24.58
   4   3 -14   67.50   24.78
   4   3 -14   36.16   19.51
  -4  -3  13   -6.11   11.64
  -4  -3  13   14.83   17.82
   4   3 -13   -0.26   16.39
   4   3 -13    5.98   14.70
  -4  -3  12   77.45   16.65
  -4  -3  12   98.19   23.54
   4   3 -12  102.94   23.09
   4   3 -12  103.46   23.22
   4   3 -12  100.08   23.28
  -4  -3  11   72.12   16.19
  -4  -3  11   42.66   18.08
   4   3 -11   63.92   19.64
   4   3 -11   42.01   16.71
   4   3 -11   86.16   20.42
  -4  -3  10  137.34   18.40
  -4  -3  10  155.09   24.52
   4   3 -10  201.72   25.82
   4   3 -10  196.52   24.06
   4   3 -10  153.14   23.22
  -4  -3   9   15.67    9.49
  -4  -3   9   22.30   14.70
   4   3  -9   22.44   13.01
   4   3  -9   14.50   10.14
   4   3  -9   22.04   11.97
   4   3  -9   21.39   11.77
  -4  -3   8   14.11    9.04
  -4  -3   8   10.14   11.19
   4   3  -8   18.08   11.25
   4   3  -8   17.49   10.01
   4   3  -8   11.38   10.21
   4   3  -8    0.59    8.39
  -4  -3   7   14.24    8.00
  -4  -3   7   23.35   11.51
   4   3  -7   24.84   10.40
   4   3  -7   17.62    8.78
   4   3  -7   23.67   10.73
   4   3  -7   33.95   11.77
  -4  -3   6  123.95   13.53
  -4  -3   6  109.05   17.49
  -4  -3   6   79.40   14.89
   4   3  -6  120.56   16.26
   4   3  -6  105.09   14.76
   4   3  -6  126.42   17.23
   4   3  -6   87.27   14.11
   4   3  -6  110.87   17.10
  -4  -3   5    0.20    5.98
  -4  -3   5   -1.17    7.80
  -4  -3   5   -0.91    6.44
   4   3  -5   -0.85    6.11
   4   3  -5    0.91    6.76
   4   3  -5    0.26    6.96
   4   3  -5    2.28    6.31
   4   3  -5   -5.27    6.57
  -4  -3   4  259.40   15.15
  -4  -3   4  287.49   20.68
  -4  -3   4  274.62   17.75
   4   3  -4  308.24   18.34
   4   3  -4  137.34   13.98
   4   3  -4  305.57   19.18
   4   3  -4  279.23   18.01
   4   3  -4  300.24   20.42
  -4  -3   3  584.68   20.16
  -4  -3   3  590.85   24.91
  -4  -3   3  563.54   25.49
  -4  -3   3  587.15   22.83
   4   3  -3  640.47   23.35
   4   3  -3  178.89   15.09
   4   3  -3  625.19   24.32
   4   3  -3  558.73   22.50
   4   3  -3  639.43   26.53
  -4  -3   2  244.70   13.92
  -4  -3   2  233.06   16.52
  -4  -3   2  235.02   17.43
  -4  -3   2  236.19   15.61
   4   3  -2  259.21   15.74
   4   3  -2   59.89   10.73
   4   3  -2  250.30   16.71
   4   3  -2  215.38   14.96
  -4  -3   1  126.09   11.12
  -4  -3   1  134.55   15.41
  -4  -3   1  134.55   12.94
  -4  -3   1  137.21   14.31
  -4  -3   1  130.97   12.94
   4   3  -1  141.50   12.81
   4   3  -1   57.23   13.20
   4   3  -1  135.33   13.59
   4   3  -1  129.80   12.42
  -4  -3   0   26.14    7.15
  -4  -3   0   18.60    9.43
  -4  -3   0   29.98    7.54
  -4  -3   0   24.45    8.39
  -4  -3   0   22.24    7.48
   4   3   0   29.72    7.87
   4   3   0   26.40    8.78
   4   3   0   35.90    8.39
   4   3   0   30.11    8.06
  -4  -3  -1    3.25    5.98
  -4  -3  -1   -1.82    7.09
  -4  -3  -1   14.70    5.92
  -4  -3  -1    6.83    6.44
  -4  -3  -1   -0.65    5.01
   4   3   1    3.58    6.11
   4   3   1   10.40    7.22
   4   3   1    6.70    6.50
   4   3   1    3.06    5.53
  -4  -3  -2  181.17   13.20
  -4  -3  -2  178.89   15.87
  -4  -3  -2  166.93   13.20
  -4  -3  -2    6.96    3.19
   4   3   2  195.15   14.31
   4   3   2  209.72   17.49
   4   3   2  171.22   14.83
   4   3   2  156.79   13.53
  -4  -3  -3   18.27    7.61
  -4  -3  -3   20.03    9.17
  -4  -3  -3   25.75    7.41
  -4  -3  -3    3.84    5.14
   4   3   3   23.41    7.87
   4   3   3   69.00   16.26
   4   3   3   28.03    8.58
   4   3   3   26.14    8.00
  -4  -3  -4  209.33   15.74
  -4  -3  -4  234.56   18.66
  -4  -3  -4  220.58   13.07
  -4  -3  -4  193.07   16.19
   4   3   4  220.38   16.19
   4   3   4  224.03   18.08
   4   3   4  230.33   17.43
   4   3   4  224.35   16.58
  -4  -3  -5  891.94   28.61
  -4  -3  -5  927.96   31.67
  -4  -3  -5  800.05   28.81
   4   3   5  901.76   29.72
   4   3   5  936.22   31.21
   4   3   5  828.60   28.87
   4   3   5  922.89   31.28
  -4  -3  -6  137.60   15.67
  -4  -3  -6  147.36   18.14
  -4  -3  -6  106.19   15.41
   4   3   6  128.04   16.52
   4   3   6  136.56   15.93
   4   3   6  106.78   14.96
   4   3   6  113.87   15.54
  -4  -3  -7    9.75    9.88
  -4  -3  -7    9.30   10.53
  -4  -3  -7    8.06    9.49
   4   3   7   14.76    9.04
   4   3   7    9.75    8.91
   4   3   7    6.24    8.52
   4   3   7    3.06    8.71
  -4  -3  -8   27.83   11.19
  -4  -3  -8   25.95   12.29
  -4  -3  -8   25.10   12.23
   4   3   8   19.64   10.01
   4   3   8   37.85   11.45
   4   3   8   26.53   10.99
  -4  -3  -9   11.32   11.25
  -4  -3  -9   10.01   11.58
  -4  -3  -9    8.71   11.45
   4   3   9   -2.15    8.71
   4   3   9    1.17    9.88
   4   3   9    8.19   10.40
  -4  -3 -10   15.41   12.81
  -4  -3 -10    6.50   13.85
   4   3  10   11.25   10.92
   4   3  10    8.65   10.79
   4   3  10   27.25   13.07
  -4  -3 -11  123.88   20.35
  -4  -3 -11  128.63   24.26
   4   3  11   79.86   17.82
   4   3  11  131.49   19.57
   4   3  11  119.91   21.26
  -4  -3 -12   -9.82   12.68
  -4  -3 -12    4.94   16.84
   4   3  12    9.04   13.72
   4   3  12   -9.62   10.92
   4   3  12   -1.30   12.75
  -4  -3 -13   33.75   17.95
  -4  -3 -13   21.07   19.90
   4   3  13   14.18   14.50
  -4  -3 -14   -0.20   16.32
  -4  -3 -14   12.29   21.00
   4   3  14   -0.46   13.85
  -4  -3 -15   18.66   18.92
  -4  -3 -15  -11.38   21.59
   4   3  15    6.24   17.43
  -4  -4  13   -6.89   17.23
   4   4 -13    2.73   17.36
   4   4 -13    1.04   14.44
  -4  -4  12    9.36   17.56
   4   4 -12    3.97   16.65
   4   4 -12   17.95   15.28
   4   4 -12   -6.57   14.24
  -4  -4  11   -6.24   14.70
   4   4 -11    5.53   13.98
   4   4 -11    7.28   13.14
   4   4 -11    3.58   13.07
  -4  -4  10   16.00   10.14
  -4  -4  10   27.31   16.06
   4   4 -10   27.12   15.09
   4   4 -10   37.07   15.67
   4   4 -10   35.12   16.91
  -4  -4   9   69.45   13.33
  -4  -4   9   59.18   18.01
   4   4  -9   98.78   18.34
   4   4  -9   86.03   17.69
   4   4  -9   90.65   19.18
  -4  -4   8    2.41    7.48
  -4  -4   8    8.52   12.55
   4   4  -8    6.18   10.66
   4   4  -8   30.04    9.95
   4   4  -8    9.69   10.27
   4   4  -8   -1.89    8.78
  -4  -4   7   34.66    9.56
  -4  -4   7   40.90   14.24
   4   4  -7   51.24   12.94
   4   4  -7   43.96   11.12
   4   4  -7   46.63   12.42
   4   4  -7   50.07   13.53
  -4  -4   6  147.88   13.66
  -4  -4   6  173.63   20.29
   4   4  -6  200.42   18.21
   4   4  -6  148.79   15.54
   4   4  -6  187.41   17.95
   4   4  -6  183.45   19.77
  -4  -4   5   48.97    8.78
  -4  -4   5   69.19   15.22
  -4  -4   5   50.46   11.71
   4   4  -5   26.73    9.04
   4   4  -5   63.34   12.16
   4   4  -5   51.31   10.99
   4   4  -5   57.88   13.53
  -4  -4   4   -1.69    7.54
  -4  -4   4    5.79    6.96
   4   4  -4    1.50    6.37
   4   4  -4    2.54    6.57
   4   4  -4    1.82    6.57
   4   4  -4    4.75    6.50
   4   4  -4    6.44    8.32
  -4  -4   3  771.57   30.37
  -4  -4   3  736.39   24.26
   4   4  -3  849.93   26.27
   4   4  -3  196.84   15.15
   4   4  -3  841.87   27.18
   4   4  -3  745.56   25.30
   4   4  -3  809.03   31.08
  -4  -4   2  244.57   18.53
  -4  -4   2  214.01   14.70
   4   4  -2  261.42   15.35
   4   4  -2   99.36   12.29
   4   4  -2  252.96   16.19
   4   4  -2  224.16   14.89
  -4  -4   1   13.72    9.56
  -4  -4   1   14.24    7.74
  -4  -4   1   14.24    6.83
   4   4  -1   12.62    6.37
   4   4  -1   12.68    7.15
   4   4  -1   16.91    7.54
   4   4  -1   15.35    6.70
  -4  -4   0   36.74   10.66
  -4  -4   0   36.09    9.23
  -4  -4   0   43.96    8.26
   4   4   0   45.91    8.39
   4   4   0   39.15   10.92
   4   4   0   44.94    9.10
   4   4   0   38.69    8.26
  -4  -4  -1  180.07   11.19
  -4  -4  -1  199.64   17.49
  -4  -4  -1  184.42   14.44
  -4  -4  -1  185.33   13.72
   4   4   1  215.90   13.92
   4   4   1  233.91   21.13
   4   4   1  197.23   14.57
   4   4   1  181.04   13.46
  -4  -4  -2   17.62    6.44
  -4  -4  -2   14.76    8.45
  -4  -4  -2   16.84    7.02
  -4  -4  -2   16.26    7.48
   4   4   2   26.53    7.41
   4   4   2   31.34   13.20
   4   4   2   18.08    8.06
   4   4   2   18.60    6.83
  -4  -4  -3  282.42   14.76
  -4  -4  -3  313.77   20.09
  -4  -4  -3  292.05   15.28
  -4  -4  -3  268.57   16.06
   4   4   3  328.85   17.04
   4   4   3  350.18   21.85
   4   4   3  308.17   17.49
   4   4   3  279.10   16.45
  -4  -4  -4  217.98   14.57
  -4  -4  -4  236.12   19.05
  -4  -4  -4  210.82   12.94
  -4  -4  -4  164.13   13.79
   4   4   4  257.91   16.45
   4   4   4  227.41   18.08
   4   4   4  229.88   16.58
   4   4   4  198.73   15.15
  -4  -4  -5  254.07   16.26
  -4  -4  -5  255.89   20.35
  -4  -4  -5  255.50   13.01
  -4  -4  -5    1.69    3.71
   4   4   5  264.15   17.69
   4   4   5  289.51   20.09
   4   4   5  259.01   17.49
   4   4   5  278.65   18.92
  -4  -4  -6  176.10   15.80
  -4  -4  -6  166.34   18.73
  -4  -4  -6  125.12   14.83
   4   4   6  186.05   16.65
   4   4   6  191.51   17.82
   4   4   6  166.08   16.52
   4   4   6  160.17   16.84
  -4  -4  -7    3.32    8.45
  -4  -4  -7    0.26    9.56
  -4  -4  -7    7.61    8.26
   4   4   7    1.89    7.74
   4   4   7    4.23    8.78
   4   4   7    3.25    8.39
   4   4   7    8.32    8.52
  -4  -4  -8  141.89   17.49
  -4  -4  -8  181.82   22.24
  -4  -4  -8  134.74   18.53
   4   4   8  151.13   19.18
   4   4   8  153.53   17.88
   4   4   8  129.15   17.62
   4   4   8  129.21   18.34
  -4  -4  -9   95.14   16.65
  -4  -4  -9   82.26   18.01
   4   4   9   66.85   14.83
   4   4   9   79.08   15.80
   4   4   9   65.03   14.76
  -4  -4 -10   12.49   11.64
  -4  -4 -10    9.75   12.94
   4   4  10    4.23   10.47
   4   4  10   19.70   11.77
   4   4  10   17.23   12.55
  -4  -4 -11  268.31   25.82
  -4  -4 -11  301.21   30.56
   4   4  11  291.01   26.21
   4   4  11  272.54   24.32
   4   4  11  253.55   26.53
  -4  -4 -12   91.43   19.96
  -4  -4 -12  154.05   27.70
   4   4  12   92.93   20.09
   4   4  12   98.45   18.92
   4   4  12   80.18   20.29
  -4  -4 -13   -6.70   13.66
  -4  -4 -13    6.96   17.95
   4   4  13    9.69   14.31
   4   4  13   -0.91   12.94
   4   4  13   -4.94   12.42
  -4  -4 -14   -0.65   14.44
  -4  -4 -14   11.05   19.44
   4   4  14    2.28   14.44
  -4  -4 -15   24.58   19.31
  -4  -4 -15   29.13   23.09
   4   4  15   12.94   17.30
  -4  -4 -16   48.25   21.52
  -4  -4 -16   84.47   29.59
   4   4  16   57.68   22.50
  -4  -5  12  -13.85   16.32
   4   5 -12    9.17   16.52
   4   5 -12    1.82   14.05
   4   5 -12    1.17   15.67
  -4  -5  11  127.72   26.60
   4   5 -11  129.34   25.04
   4   5 -11  108.01   22.37
   4   5 -11  118.03   25.62
  -4  -5  10  204.65   29.78
   4   5 -10  220.32   28.42
   4   5 -10  208.03   25.75
   4   5 -10  165.63   26.14
  -4  -5   9   29.91   17.30
   4   5  -9   42.92   15.22
   4   5  -9   30.37   13.79
   4   5  -9   38.69   16.06
  -4  -5   8   15.15   14.44
   4   5  -8   -3.38   10.34
   4   5  -8   18.53   11.38
   4   5  -8   18.60   12.16
  -4  -5   7   66.33   17.88
   4   5  -7   54.04   13.98
   4   5  -7   72.25   13.14
   4   5  -7   72.64   15.41
   4   5  -7   78.03   16.39
  -4  -5   6  347.91   26.99
   4   5  -6  363.06   22.70
   4   5  -6  252.44   18.27
   4   5  -6  356.03   22.83
   4   5  -6  343.74   25.95
  -4  -5   5  146.12   20.61
   4   5  -5   45.13   10.47
   4   5  -5  134.29   15.67
   4   5  -5  123.75   14.89
   4   5  -5  143.91   19.38
  -4  -5   4   22.70   11.12
   4   5  -4   23.93    8.65
   4   5  -4    6.11    6.70
   4   5  -4   32.19    9.62
   4   5  -4   30.17    8.65
   4   5  -4   37.91   11.97
  -4  -5   3  510.54   26.79
   4   5  -3  548.07   21.52
   4   5  -3  184.55   15.15
   4   5  -3  524.52   22.04
   4   5  -3  463.92   20.48
   4   5  -3  502.61   26.66
  -4  -5   2  316.24   21.20
   4   5  -2  347.32   16.97
   4   5  -2  200.81   15.74
   4   5  -2  329.24   17.62
   4   5  -2  274.94   15.87
   4   5  -2  345.11   22.24
  -4  -5   1    3.84    8.78
  -4  -5   1    5.72    6.96
   4   5  -1    1.50    5.40
   4   5  -1    2.47    6.89
   4   5  -1   -0.13    5.53
   4   5  -1   -0.52    5.27
  -4  -5   0   11.05    8.84
  -4  -5   0   30.04    9.95
   4   5   0   21.26    6.63
   4   5   0   15.54    8.06
   4   5   0   22.50    7.41
   4   5   0   19.83    6.50
  -4  -5  -1  178.24   17.56
  -4  -5  -1  162.96   14.89
  -4  -5  -1  164.00   12.29
   4   5   1  201.66   12.94
   4   5   1  206.34   17.43
   4   5   1  213.62   13.98
   4   5   1  178.63   12.62
  -4  -5  -2   68.22   12.62
  -4  -5  -2   55.47   10.01
  -4  -5  -2   58.20    8.91
   4   5   2   65.29    9.62
   4   5   2   52.28   11.97
   4   5   2   62.10   10.08
   4   5   2   58.79    9.04
  -4  -5  -3   53.71   11.45
  -4  -5  -3   51.37    9.10
  -4  -5  -3   39.73    8.19
   4   5   3   52.09    9.17
   4   5   3   65.94   13.46
   4   5   3   57.36    9.82
   4   5   3   47.47    8.97
  -4  -5  -4   12.81    5.98
  -4  -5  -4    4.36    8.13
  -4  -5  -4    3.90    5.72
  -4  -5  -4    3.84    6.44
   4   5   4    6.44    6.44
   4   5   4    0.00    7.80
   4   5   4    1.37    6.05
  -4  -5  -5   62.88    9.75
  -4  -5  -5   72.83   14.37
  -4  -5  -5   71.14    9.10
  -4  -5  -5   58.59   10.40
   4   5   5   72.64   11.71
   4   5   5   66.39   13.07
   4   5   5   72.31   11.71
   4   5   5   88.83   13.14
  -4  -5  -6  323.71   17.62
  -4  -5  -6  351.87   23.80
  -4  -5  -6  304.53   18.86
   4   5   6  334.05   19.90
   4   5   6  355.25   22.50
   4   5   6  304.14   19.38
   4   5   6  343.22   20.87
  -4  -5  -7   44.41   10.73
  -4  -5  -7   14.76   10.73
  -4  -5  -7   -2.02    3.97
   4   5   7   48.71   11.90
   4   5   7   35.70   11.58
   4   5   7   43.11   11.19
   4   5   7   42.46   11.05
  -4  -5  -8   56.90   12.29
  -4  -5  -8   74.13   16.32
  -4  -5  -8   53.71   13.98
   4   5   8   84.41   14.96
   4   5   8   70.49   14.63
   4   5   8   52.35   12.81
   4   5   8   60.87   13.53
  -4  -5  -9   15.61    9.88
  -4  -5  -9   26.34   13.14
   4   5   9   36.87   11.64
   4   5   9   11.58   10.21
   4   5   9   26.99   11.25
  -4  -5 -10   21.46   12.10
  -4  -5 -10    8.32   13.92
   4   5  10   16.91   11.45
   4   5  10   14.18   10.79
   4   5  10   11.90   11.38
  -4  -5 -11   16.06   13.14
  -4  -5 -11   29.39   16.39
   4   5  11   40.12   14.96
   4   5  11   20.48   12.49
   4   5  11   12.55   12.49
  -4  -5 -12   85.19   18.79
  -4  -5 -12   58.92   19.51
   4   5  12   51.24   16.58
   4   5  12   43.70   14.63
   4   5  12   67.83   18.40
  -4  -5 -13   80.57   20.61
  -4  -5 -13   63.27   22.44
   4   5  13   57.03   18.73
   4   5  13   50.20   16.58
   4   5  13   52.02   19.12
  -4  -5 -14   20.48   16.00
  -4  -5 -14   20.48   21.91
   4   5  14   20.35   17.23
   4   5  14   19.57   13.85
   4   5  14   16.39   16.26
  -4  -5 -15    9.10   16.39
  -4  -5 -15   15.15   21.46
   4   5  15   23.74   18.01
  -4  -5 -16    0.13   17.36
  -4  -5 -16   22.11   25.43
   4   5  16   16.97   18.73
  -4  -6  11   12.16   18.08
   4   6 -11    9.69   16.84
   4   6 -11    1.50   12.75
   4   6 -11   -8.65   13.92
  -4  -6  10   31.02   18.92
   4   6 -10   65.74   19.38
   4   6 -10   32.25   14.57
   4   6 -10   45.20   19.77
  -4  -6   9  251.60   30.82
   4   6  -9  227.28   25.95
   4   6  -9  243.08   25.10
   4   6  -9  238.27   29.59
  -4  -6   8  699.97   40.77
   4   6  -8  663.95   33.88
   4   6  -8  658.74   33.23
   4   6  -8  672.60   38.37
  -4  -6   7   31.60   15.87
   4   6  -7   53.26   14.44
   4   6  -7   28.35   12.23
   4   6  -7   17.43   11.90
  -4  -6   6  245.94   25.82
   4   6  -6  227.15   20.03
   4   6  -6  146.97   16.00
   4   6  -6  251.60   20.61
   4   6  -6  265.90   24.71
  -4  -6   5  344.39   17.49
  -4  -6   5  353.30   27.83
   4   6  -5  346.60   21.13
   4   6  -5   86.81   13.01
   4   6  -5  332.82   21.13
   4   6  -5  370.21   26.79
  -4  -6   4  249.97   14.89
  -4  -6   4  281.64   24.32
   4   6  -4   61.13   11.05
   4   6  -4  266.55   17.95
   4   6  -4  239.83   17.36
   4   6  -4  273.45   23.02
  -4  -6   3    1.89    9.10
   4   6  -3   10.40    7.09
   4   6  -3   11.51    8.52
   4   6  -3    9.43    6.63
   4   6  -3    6.11    6.76
   4   6  -3    4.03    8.58
  -4  -6   2 1195.75   25.95
  -4  -6   2 1199.66   39.28
   4   6  -2 1321.20   29.59
   4   6  -2 1050.15   31.93
   4   6  -2 1206.55   29.46
   4   6  -2 1147.11   28.55
   4   6  -2 1248.62   40.32
  -4  -6   1 1119.41   38.43
  -4  -6   1 1016.86   34.73
   4   6  -1 1163.05   26.27
   4   6  -1 1062.45   32.38
  -4  -6   0   74.33   13.66
  -4  -6   0   75.24   12.75
   4   6   0   78.16   13.07
  -4  -6  -1  214.14   19.44
  -4  -6  -1  190.08   17.04
   4   6   1  254.26   13.33
   4   6   1  235.28   18.27
  -4  -6  -2   29.33   10.53
  -4  -6  -2   27.90    9.17
   4   6   2   34.66    7.54
   4   6   2   46.95   11.77
   4   6   2   42.14    8.45
   4   6   2   31.73    7.35
  -4  -6  -3  167.78   18.01
  -4  -6  -3  190.21   14.89
   4   6   3  196.26   13.27
   4   6   3  201.79   18.21
   4   6   3  204.39   14.18
   4   6   3  175.32   12.88
  -4  -6  -4   73.81   13.72
  -4  -6  -4   70.56   10.34
   4   6   4   84.93   11.32
   4   6   4   73.35   14.11
   4   6   4   69.39   10.99
  -4  -6  -5   63.99   13.40
  -4  -6  -5   80.44    9.88
  -4  -6  -5   67.37   10.27
   4   6   5   77.38   11.58
   4   6   5   81.22   15.22
   4   6   5   75.04   11.38
   4   6   5   88.24   12.75
  -4  -6  -6   49.62    8.84
  -4  -6  -6   42.85   12.81
  -4  -6  -6   34.53    9.69
   4   6   6   41.29   10.40
   4   6   6   49.94   12.81
   4   6   6   45.07   10.34
   4   6   6   46.24   11.12
  -4  -6  -7  139.62   13.79
  -4  -6  -7  140.98   19.12
  -4  -6  -7  132.53   15.48
   4   6   7  156.39   16.39
   4   6   7  184.10   19.05
   4   6   7  135.46   15.74
   4   6   7  149.89   17.10
  -4  -6  -8    2.02    7.93
  -4  -6  -8    6.18   10.60
   4   6   8   14.63    9.17
   4   6   8    4.03    9.49
   4   6   8   -2.08    9.43
   4   6   8    4.94    8.58
  -4  -6  -9  105.74   15.28
  -4  -6  -9  116.86   20.74
   4   6   9   90.33   15.80
   4   6   9  110.94   18.47
   4   6   9  112.24   17.69
  -4  -6 -10   75.11   14.96
  -4  -6 -10   64.44   18.08
   4   6  10   60.74   15.35
   4   6  10   54.69   14.83
   4   6  10   58.79   15.15
  -4  -6 -11   -2.08   10.79
  -4  -6 -11    6.50   14.76
   4   6  11   -8.19   10.08
   4   6  11    6.44   11.19
   4   6  11   -0.65   10.99
  -4  -6 -12   20.61   13.98
  -4  -6 -12   40.38   17.88
   4   6  12   46.04   15.93
   4   6  12   35.51   14.37
   4   6  12   10.60   12.42
  -4  -6 -13   19.70   14.89
  -4  -6 -13   35.25   19.64
   4   6  13   21.52   15.35
   4   6  13   25.69   14.37
   4   6  13   60.87   19.57
  -4  -6 -14   16.06   14.89
  -4  -6 -14    2.67   20.81
   4   6  14    9.10   15.02
   4   6  14   13.46   13.92
   4   6  14   13.85   15.22
  -4  -6 -15  -11.97   15.22
  -4  -6 -15   15.74   21.72
   4   6  15   10.66   16.52
   4   6  15  -18.21   12.88
   4   6  15    5.59   15.67
  -4  -6 -16   17.82   18.53
  -4  -6 -16   17.23   25.62
   4   6  16   10.60   18.27
  -4  -7  11   48.25   23.15
   4   7 -11   46.37   18.27
   4   7 -11   37.33   21.65
  -4  -7  10    7.35   17.62
   4   7 -10    3.32   15.87
   4   7 -10    2.86   12.10
   4   7 -10   -1.50   16.00
  -4  -7   9   62.95   21.00
   4   7  -9  105.87   20.87
   4   7  -9   93.51   18.99
   4   7  -9   66.13   21.52
  -4  -7   8  103.92   23.74
   4   7  -8  114.19   20.16
   4   7  -8  113.93   19.77
   4   7  -8  129.15   24.97
  -4  -7   7  197.62   29.39
   4   7  -7  175.51   22.11
   4   7  -7  125.90   18.66
   4   7  -7  153.14   23.67
  -4  -7   6   80.18   20.48
   4   7  -6   82.39   15.41
   4   7  -6   79.99   15.22
   4   7  -6   57.16   16.13
  -4  -7   5   58.79   17.30
   4   7  -5   59.37   12.81
   4   7  -5   16.52    9.36
   4   7  -5   80.51   13.79
   4   7  -5   74.65   16.97
  -4  -7   4   48.38   10.27
  -4  -7   4   42.85   14.96
   4   7  -4    8.84    7.80
   4   7  -4   36.94    9.82
   4   7  -4   48.84   11.25
   4   7  -4   44.02   13.59
  -4  -7   3  135.20   14.18
  -4  -7   3  121.15   19.38
   4   7  -3  143.26   13.98
   4   7  -3  104.70   14.57
   4   7  -3  151.71   14.31
   4   7  -3  143.91   21.00
  -4  -7   2   45.98    8.97
  -4  -7   2   55.73   14.37
   4   7  -2   39.02   10.27
   4   7  -2   41.94   13.20
  -4  -7   1   92.21   11.51
  -4  -7   1  141.50   20.48
  -4  -7   1   92.99   16.13
   4   7  -1  123.88   15.15
   4   7  -1  103.07   16.71
  -4  -7   0  101.32   16.78
  -4  -7   0  129.54   17.30
   4   7   0  129.15   15.28
  -4  -7  -1   59.76   13.85
  -4  -7  -1   64.05   12.94
   4   7   1   85.58   14.76
  -4  -7  -2  128.43   17.95
  -4  -7  -2  134.68   15.28
   4   7   2  123.88   16.58
  -4  -7  -3   47.34   12.75
  -4  -7  -3   24.78    9.10
   4   7   3   48.45   12.36
  -4  -7  -4   90.26   15.15
  -4  -7  -4   81.42   11.58
   4   7   4   89.55   11.05
   4   7   4   90.33   15.41
  -4  -7  -5   45.72   12.62
  -4  -7  -5   63.27   10.08
   4   7   5   68.02   10.73
   4   7   5   76.21   14.83
   4   7   5   51.24    9.88
   4   7   5   55.34   10.21
  -4  -7  -6  288.53   23.54
  -4  -7  -6  247.83   13.72
   4   7   6  283.01   17.69
   4   7   6  268.64   21.72
   4   7   6  252.05   17.30
   4   7   6  280.41   18.40
  -4  -7  -7  731.32   33.95
   4   7   7  680.07   26.40
   4   7   7  658.09   31.60
   4   7   7  597.75   25.49
   4   7   7  663.30   27.05
  -4  -7  -8  180.46   14.76
  -4  -7  -8  192.94   22.44
   4   7   8  178.31   17.95
   4   7   8  159.45   21.13
   4   7   8  195.35   19.44
  -4  -7  -9   48.84   11.38
  -4  -7  -9   49.81   15.48
   4   7   9   48.64   12.81
   4   7   9   34.08   12.94
   4   7   9   47.08   13.72
  -4  -7 -10  192.49   19.05
  -4  -7 -10  169.34   23.80
   4   7  10  200.68   21.72
   4   7  10  189.17   25.10
   4   7  10  188.91   21.98
  -4  -7 -11   23.67   12.03
  -4  -7 -11   37.07   17.04
   4   7  11   34.08   13.46
   4   7  11    8.97   12.10
   4   7  11   18.92   13.14
  -4  -7 -12   18.21   12.42
  -4  -7 -12   14.50   18.14
   4   7  12    5.27   12.62
   4   7  12   -6.31   12.16
   4   7  12   -0.59   12.49
  -4  -7 -13   88.44   19.05
  -4  -7 -13  104.05   25.56
   4   7  13   70.30   19.31
   4   7  13   71.34   19.31
   4   7  13   73.81   19.57
  -4  -7 -14   85.38   19.77
  -4  -7 -14   56.45   22.89
   4   7  14   76.60   21.20
   4   7  14   73.74   20.68
   4   7  14   39.54   17.88
  -4  -7 -15   -9.10   13.79
  -4  -7 -15   13.59   20.55
   4   7  15   12.49   16.71
   4   7  15   11.58   16.13
   4   7  15   11.05   16.39
  -4  -7 -16  -18.79   15.22
  -4  -7 -16   19.18   23.09
   4   7  16   11.77   19.51
   4   7  16   -5.98   14.83
   4   7  16    4.10   16.91
  -4  -8  10   98.65   28.68
   4   8 -10   83.50   19.12
   4   8 -10   83.56   25.56
  -4  -8   9    9.36   18.34
   4   8  -9    1.37   12.16
   4   8  -9   -5.33   14.76
  -4  -8   8   10.40   17.17
   4   8  -8   22.37   12.81
   4   8  -8   12.03   16.39
  -4  -8   7  220.77   31.99
   4   8  -7  176.49   20.74
   4   8  -7  209.98   28.48
  -4  -8   6  200.42   27.96
   4   8  -6  196.52   19.90
   4   8  -6  196.06   27.70
  -4  -8   5   18.21   14.37
   4   8  -5   -3.90    7.87
   4   8  -5  -10.53   10.14
  -4  -8   4    2.93    8.13
  -4  -8   4    1.37   12.10
   4   8  -4    4.36    8.45
   4   8  -4   -2.47    8.91
   4   8  -4    2.02   10.27
  -4  -8   3  119.00   14.44
  -4  -8   3  104.63   19.96
   4   8  -3  108.08   15.87
   4   8  -3  142.22   20.94
  -4  -8   2   93.77   13.33
  -4  -8   2  111.72   19.44
   4   8  -2  100.93   15.67
   4   8  -2  101.51   18.47
  -4  -8   1   -0.91    7.02
  -4  -8   1    6.44   10.08
   4   8  -1   -6.76    6.83
   4   8  -1    0.72    8.52
  -4  -8   0  110.81   18.60
  -4  -8   0  125.96   18.66
   4   8   0  105.35   15.61
   4   8   0   91.69   16.32
  -4  -8  -1  145.73   20.29
  -4  -8  -1  130.97   17.69
   4   8   1  144.88   18.79
  -4  -8  -2   -2.73    9.62
  -4  -8  -2    4.88    8.65
   4   8   2   18.14   10.73
  -4  -8  -3   55.40   14.63
  -4  -8  -3   84.86   13.72
   4   8   3   55.79   13.33
  -4  -8  -4  488.82   28.42
  -4  -8  -4  432.12   21.52
   4   8   4  486.87   27.12
  -4  -8  -5   19.25   11.38
  -4  -8  -5   33.10    8.84
   4   8   5   40.25   12.75
  -4  -8  -6  276.63   24.06
  -4  -8  -6  262.85   15.67
   4   8   6  296.73   17.36
   4   8   6  273.90   23.28
   4   8   6  262.52   17.04
   4   8   6  287.10   17.82
  -4  -8  -7  733.40   35.25
  -4  -8  -7  649.77   19.64
   4   8   7  753.62   26.99
   4   8   7  643.27   32.58
   4   8   7  643.40   25.82
   4   8   7  734.18   27.38
  -4  -8  -8  291.27   26.01
   4   8   8  299.98   20.87
   4   8   8  275.20   24.39
   4   8   8  284.57   21.13
  -4  -8  -9    3.38   11.64
   4   8   9    9.88    9.62
   4   8   9    2.28   10.27
   4   8   9    8.13   10.14
  -4  -8 -10  184.68   26.66
   4   8  10  176.16   21.00
   4   8  10  183.45   24.65
   4   8  10  184.10   21.20
  -4  -8 -11   26.01   11.97
  -4  -8 -11   45.59   18.08
   4   8  11   24.45   12.81
   4   8  11   21.13   13.85
   4   8  11   24.45   13.01
  -4  -8 -12   38.11   13.27
  -4  -8 -12   27.05   16.78
   4   8  12   34.27   14.83
   4   8  12   48.77   16.71
   4   8  12   23.54   13.98
  -4  -8 -13   47.15   15.41
  -4  -8 -13   52.80   20.94
   4   8  13   67.76   19.38
   4   8  13   63.60   18.86
   4   8  13   78.62   19.90
  -4  -8 -14  100.27   19.51
  -4  -8 -14  101.25   25.95
   4   8  14  110.03   24.13
   4   8  14   87.01   21.91
   4   8  14  108.99   23.15
  -4  -8 -15   31.86   17.10
  -4  -8 -15   16.06   21.39
   4   8  15   31.86   19.18
   4   8  15   12.10   15.80
   4   8  15   30.30   18.47
  -4  -8 -16  -19.64   14.11
  -4  -8 -16   -7.15   21.00
   4   8  16   16.52   18.14
   4   8  16  -12.42   14.50
   4   8  16    4.36   16.71
  -4  -9   8   56.32   22.30
   4   9  -8   40.12   14.76
   4   9  -8   60.80   23.54
  -4  -9   7   92.15   24.00
   4   9  -7   76.86   15.48
   4   9  -7   89.87   23.87
  -4  -9   6  223.63   31.99
   4   9  -6  167.91   20.03
   4   9  -6  220.06   31.08
  -4  -9   5   49.10   18.47
   4   9  -5   28.03   14.96
  -4  -9   4    2.21   13.40
   4   9  -4   -2.93    9.95
  -4  -9   3   67.83   13.20
  -4  -9   3   92.99   20.87
   4   9  -3   75.11   15.02
   4   9  -3  106.78   21.59
  -4  -9   2  236.84   20.16
  -4  -9   2  218.63   24.91
   4   9  -2  206.08   20.03
   4   9  -2  235.86   24.97
  -4  -9   1   20.35    9.36
  -4  -9   1   13.66   11.97
   4   9  -1    4.94    9.04
   4   9  -1   12.16   11.38
  -4  -9   0  181.69   18.21
  -4  -9   0  199.31   25.49
  -4  -9   0  193.72   22.24
   4   9   0  152.82   18.01
   4   9   0  160.69   21.72
  -4  -9  -1  230.98   24.52
  -4  -9  -1  189.49   21.20
   4   9   1  212.12   19.90
   4   9   1  207.70   22.17
  -4  -9  -2    6.83   10.53
  -4  -9  -2    0.26    8.91
   4   9   2    0.07    8.71
  -4  -9  -3    0.39   10.60
  -4  -9  -3   -1.04    8.39
   4   9   3   -1.04    8.84
  -4  -9  -4    3.77   10.40
  -4  -9  -4   -1.43    8.19
   4   9   4    3.90    9.69
   4   9   4    4.49    6.37
  -4  -9  -5   38.30   13.98
  -4  -9  -5   49.29   11.51
   4   9   5   51.18   14.11
  -4  -9  -6   52.61   14.89
  -4  -9  -6   86.75   12.55
   4   9   6   54.56   15.09
  -4  -9  -7   37.00   13.92
  -4  -9  -7   20.03    7.80
   4   9   7   33.36    9.82
   4   9   7   28.03   12.81
   4   9   7   27.44    9.30
   4   9   7   16.84    9.36
  -4  -9  -8    6.31   11.45
   4   9   8    2.02    8.52
   4   9   8    1.30    9.82
   4   9   8    3.19    8.84
  -4  -9  -9   58.66   17.10
   4   9   9   36.74   12.88
   4   9   9   37.00   15.54
   4   9   9   57.03   13.85
  -4  -9 -10   54.36   17.62
   4   9  10   81.22   16.32
   4   9  10   51.31   16.52
   4   9  10   63.08   14.57
  -4  -9 -11  -13.07   12.49
   4   9  11   13.66   12.88
   4   9  11   -1.37   10.92
   4   9  11   12.36   11.84
  -4  -9 -12   16.06   16.91
   4   9  12    4.62   13.79
   4   9  12    8.45   13.20
   4   9  12    9.17   13.01
  -4  -9 -13   24.58   19.25
   4   9  13   11.64   14.70
   4   9  13   12.55   14.44
   4   9  13   21.46   14.24
  -4  -9 -14   47.73   21.13
   4   9  14   14.76   16.13
   4   9  14    5.53   15.48
   4   9  14   27.51   16.39
  -4  -9 -15   24.00   21.39
   4   9  15   10.86   16.71
   4   9  15   -0.72   15.22
   4   9  15   -4.62   14.37
  -4  -9 -16   78.36   29.46
   4   9  16   68.28   24.52
   4   9  16   59.11   21.39
   4   9  16   44.67   21.33
  -4 -10   7    2.08   19.05
   4  10  -7    9.62   17.82
  -4 -10   6   17.17   17.62
   4  10  -6   12.62   16.00
  -4 -10   5   93.58   23.54
   4  10  -5   87.07   23.22
  -4 -10   4   17.56   16.45
   4  10  -4    8.06   13.27
  -4 -10   3    6.89   14.50
   4  10  -3   -3.97   11.32
  -4 -10   2  172.98   20.42
  -4 -10   2  192.29   27.25
   4  10  -2  159.00   19.31
   4  10  -2  152.10   23.35
  -4 -10   1   26.99   10.60
  -4 -10   1   21.39   15.41
   4  10  -1   24.58   12.29
   4  10  -1   20.48   13.20
  -4 -10   0   14.44    9.56
  -4 -10   0   33.03   14.50
   4  10   0   12.94   10.92
   4  10   0   18.79   12.10
  -4 -10  -1  165.43   23.74
  -4 -10  -1  178.83   23.09
   4  10   1  152.88   18.99
   4  10   1  191.25   22.76
  -4 -10  -2  211.41   25.04
  -4 -10  -2  160.43   20.81
   4  10   2  171.87   20.16
  -4 -10  -3  193.40   24.39
  -4 -10  -3  201.13   21.07
   4  10   3  205.62   21.78
   4  10   3  179.87   17.62
  -4 -10  -4   32.71   14.83
  -4 -10  -4   43.57   12.55
   4  10   4   32.45   13.53
   4  10   4   33.49   10.01
  -4 -10  -5  219.86   24.71
  -4 -10  -5  213.10   19.64
   4  10   5  189.36   22.70
   4  10   5  177.59   15.80
  -4 -10  -6   10.86   12.55
  -4 -10  -6   17.04    9.95
   4  10   6   19.77   13.20
  -4 -10  -7   20.09   14.57
  -4 -10  -7   11.97    8.84
   4  10   7    6.96   11.19
  -4 -10  -8  110.42   20.03
   4  10   8  137.86   17.04
   4  10   8  114.00   20.94
   4  10   8  125.90   16.00
  -4 -10  -9   82.91   19.25
   4  10   9   99.49   16.13
   4  10   9  106.00   21.33
   4  10   9   90.91   15.48
  -4 -10 -10  133.70   23.54
   4  10  10  115.36   18.53
   4  10  10  101.71   21.85
   4  10  10  107.82   16.97
  -4 -10 -11   21.39   17.82
   4  10  11   31.86   13.85
   4  10  11   56.25   19.57
   4  10  11   13.66   11.77
  -4 -10 -12  132.14   25.17
   4  10  12  136.37   22.37
   4  10  12  141.37   25.75
   4  10  12  127.26   21.13
  -4 -10 -13   64.70   21.52
   4  10  13   54.69   18.27
   4  10  13   82.78   22.57
   4  10  13   75.69   19.38
  -4 -10 -14    2.80   18.08
   4  10  14    8.91   16.45
   4  10  14    2.08   16.78
   4  10  14  -10.60   13.53
  -4 -10 -15   44.48   22.37
   4  10  15   15.74   18.47
   4  10  15   19.90   18.86
   4  10  15   25.17   17.62
  -4 -10 -16   71.34   26.08
   4  10  16   57.16   22.83
   4  10  16   58.59   23.28
   4  10  16   62.43   22.63
  -4 -11   6   18.08   20.29
   4  11  -6   50.98   22.50
  -4 -11   5  281.71   36.81
   4  11  -5  218.30   31.99
  -4 -11   4   30.69   19.44
   4  11  -4   39.02   17.36
  -4 -11   3   18.99   16.39
   4  11  -3   25.75   15.28
  -4 -11   2   11.51   14.70
   4  11  -2   13.53   14.05
  -4 -11   1   30.82   12.36
  -4 -11   1   26.34   16.26
   4  11  -1   12.94   12.03
   4  11  -1   16.58   13.33
  -4 -11   0    3.32   10.14
  -4 -11   0   -7.22   12.29
   4  11   0   -8.26   10.27
   4  11   0   -8.26   10.53
  -4 -11  -1   29.13   12.23
  -4 -11  -1   45.33   17.10
  -4 -11  -1   35.83   15.28
   4  11   1   18.01   11.84
   4  11   1   37.98   14.89
  -4 -11  -2    9.75   12.62
  -4 -11  -2   -0.13   11.32
   4  11   2    4.62   10.14
   4  11   2    8.71    9.49
   4  11   2   19.64   13.01
  -4 -11  -3   12.68   13.33
  -4 -11  -3    3.45   11.19
   4  11   3    6.18   10.79
   4  11   3    0.00    8.58
  -4 -11  -4   17.62   13.92
  -4 -11  -4    7.09   10.79
   4  11   4    8.58   11.71
   4  11   4   16.52    9.95
  -4 -11  -5   75.95   18.66
  -4 -11  -5   83.30   15.80
   4  11   5   77.38   18.79
   4  11   5   72.57   13.33
  -4 -11  -6    0.65   12.03
  -4 -11  -6    1.30    8.65
   4  11   6   -0.07   10.99
  -4 -11  -7   92.08   19.57
   4  11   7   74.91   18.92
  -4 -11  -8   87.79   20.61
   4  11   8   58.72   17.49
  -4 -11  -9  239.44   29.72
   4  11   9  232.15   28.48
  -4 -11 -10  246.66   31.99
   4  11  10  271.11   34.14
   4  11  10  228.64   22.04
  -4 -11 -11   29.13   17.43
   4  11  11   24.26   13.46
   4  11  11   27.51   16.13
   4  11  11   15.28   11.97
  -4 -11 -12    2.34   15.48
   4  11  12   -6.11   13.07
   4  11  12    0.07   14.50
   4  11  12    6.50   12.62
  -4 -11 -13   28.22   19.25
   4  11  13    5.53   15.09
   4  11  13   39.54   20.55
   4  11  13    9.36   13.72
  -4 -11 -14   27.57   19.44
   4  11  14   19.90   17.49
   4  11  14   30.43   18.92
   4  11  14   17.04   15.87
  -4 -11 -15  -10.53   17.69
   4  11  15   -1.30   17.36
   4  11  15  -20.48   16.52
   4  11  15   13.40   17.10
  -4 -12   4   66.78   23.09
   4  12  -4   95.66   25.10
  -4 -12   3   28.74   19.51
   4  12  -3   36.35   19.31
  -4 -12   2   -3.51   14.57
   4  12  -2    1.11   13.66
  -4 -12   1   14.11   15.28
  -4 -12   1   28.87   17.62
   4  12  -1   11.32   14.44
  -4 -12   0   -7.87   10.01
  -4 -12   0    6.24   13.46
   4  12   0   -8.26   11.45
   4  12   0   -0.07   12.10
  -4 -12  -1    1.95   11.38
  -4 -12  -1   20.03   14.96
   4  12   1    1.56   12.55
   4  12   1    1.43   12.42
   4  12   1    6.37   13.01
  -4 -12  -2   12.16   15.35
  -4 -12  -2   -4.88   12.36
   4  12   2    7.35   11.97
   4  12   2   -3.38    9.88
   4  12   2    1.95   11.38
  -4 -12  -3   -0.33   13.53
  -4 -12  -3    4.94   12.49
   4  12   3    8.84   11.97
   4  12   3    4.94   10.08
   4  12   3    3.97   10.86
  -4 -12  -4   46.56   17.62
  -4 -12  -4   37.85   14.83
   4  12   4   39.15   15.93
   4  12   4   27.51   11.71
  -4 -12  -5   -7.67   11.71
  -4 -12  -5   -5.20   10.27
   4  12   5   15.93   14.37
   4  12   5    1.04   10.01
  -4 -12  -6  121.73   22.57
  -4 -12  -6  127.59   19.05
   4  12   6  147.88   24.32
  -4 -12  -7  106.45   21.46
   4  12   7  109.12   21.46
  -4 -12  -8    1.95   13.33
   4  12   8    8.58   14.24
  -4 -12  -9   34.21   17.95
   4  12   9   37.39   17.43
  -4 -12 -10  269.74   31.47
   4  12  10  279.82   31.67
   4  12  10  281.77   23.35
  -4 -12 -11  269.61   32.77
   4  12  11  242.43   34.14
   4  12  11  258.69   24.32
  -4 -12 -12    7.15   16.19
   4  12  12   -3.84   14.76
   4  12  12    2.08   11.84
  -4 -12 -13   71.79   24.32
   4  12  13   58.66   21.00
   4  12  13   54.43   17.43
  -4 -12 -14   82.78   24.06
   4  12  14   88.63   24.71
   4  12  14   81.68   20.68
  -4 -12 -15    0.98   19.05
   4  12  15   11.58   18.14
   4  12  15    5.01   16.13
  -4 -13   2   24.26   18.47
   4  13  -2   59.37   21.91
  -4 -13   1    5.53   17.17
   4  13  -1   12.10   16.39
   4  13  -1    5.79   15.67
  -4 -13   0  108.79   26.79
  -4 -13   0  140.33   26.73
   4  13   0  125.83   24.13
   4  13   0  144.62   25.88
  -4 -13  -1   84.08   18.66
  -4 -13  -1  117.12   24.71
   4  13   1   84.28   20.16
   4  13   1  107.04   22.37
   4  13   1  116.08   24.13
  -4 -13  -2    1.50   14.37
   4  13   2    6.50   13.46
   4  13   2   13.79   12.23
   4  13   2    9.30   14.44
  -4 -13  -3  120.89   23.87
  -4 -13  -3  115.23   22.63
   4  13   3  111.85   21.72
   4  13   3   99.95   18.73
   4  13   3  133.57   24.45
  -4 -13  -4  162.96   26.86
  -4 -13  -4  172.26   25.17
   4  13   4  156.26   25.30
   4  13   4  132.14   20.16
   4  13   4  140.59   23.80
  -4 -13  -5   72.05   20.68
  -4 -13  -5   45.98   16.71
   4  13   5   38.82   17.10
  -4 -13  -6   46.95   18.40
   4  13   6   30.95   15.93
  -4 -13  -7  263.37   30.43
   4  13   7  223.31   31.60
  -4 -13  -8  137.99   24.06
   4  13   8  191.45   29.85
  -4 -13  -9    4.16   14.05
   4  13   9   15.02   16.65
  -4 -13 -10   40.19   19.31
   4  13  10   59.63   21.52
  -4 -13 -11  195.22   29.39
   4  13  11  205.10   33.75
  -4 -13 -12   54.69   20.55
   4  13  12   42.40   21.72
   4  13  12   50.72   14.89
  -4 -13 -13    1.82   16.97
   4  13  13    9.30   19.90
   4  13  13    4.03   13.20
  -4 -13 -14  109.38   26.99
   4  13  14   99.82   27.96
   4  13  14  100.14   22.17
  -4 -14   0    9.04   17.69
   4  14   0   31.21   18.73
   4  14   0   22.11   18.14
  -4 -14  -1   33.16   27.25
  -4 -14  -1   59.83   21.65
   4  14   1  100.80   23.87
   4  14   1   39.28   18.79
  -4 -14  -2  -12.94   14.18
   4  14   2   15.41   19.51
   4  14   2   11.58   14.70
   4  14   2   10.86   15.35
  -4 -14  -3   50.33   20.29
  -4 -14  -3   49.81   19.64
   4  14   3   65.03   19.38
   4  14   3   32.45   15.22
   4  14   3   35.12   17.88
  -4 -14  -4  154.51   27.05
  -4 -14  -4  186.24   27.12
   4  14   4  218.37   30.30
   4  14   4  177.72   27.51
  -4 -14  -5   90.00   23.09
   4  14   5  101.32   22.24
   4  14   5   94.23   20.68
  -4 -14  -6    6.11   15.87
   4  14   6   21.33   17.10
   4  14   6   22.76   15.87
  -4 -14  -7   60.35   21.52
   4  14   7   65.29   21.46
  -4 -14  -8  327.16   34.47
   4  14   8  356.23   35.64
  -4 -14  -9   36.22   19.18
   4  14   9   70.17   23.02
  -4 -14 -10    8.39   17.04
   4  14  10    4.94   18.53
  -4 -14 -11  217.91   31.54
   4  14  11  230.59   35.96
  -4 -14 -12   92.60   25.23
   4  14  12  105.67   27.31
  -4 -15  -4  104.24   24.71
   4  15   4   86.62   23.48
   4  15   4   92.21   23.67
  -4 -15  -5   64.77   21.59
   4  15   5   59.31   21.78
   4  15   5   46.69   19.38
  -4 -15  -6  132.14   27.18
   4  15   6   86.49   23.80
  -4 -15  -7   21.52   20.16
   4  15   7    9.49   17.49
  -4 -15  -8   78.30   23.41
   4  15   8   83.04   25.04
  -4 -15  -9    9.82   17.49
   4  15   9   20.55   20.29
   4  15  10    2.02   18.73
  -5  11  10  137.08   30.24
  -5  11   9   14.18   19.38
  -5  11   9    7.09   21.78
  -5  11   9   12.16   18.01
   5 -11  -9    8.45   18.08
   5 -11  -9    5.59   18.60
  -5  11   8   56.64   22.17
  -5  11   8  102.49   28.94
  -5  11   8   68.09   21.20
   5 -11  -8   51.83   20.61
   5 -11  -8   76.80   24.45
  -5  11   7   27.44   19.64
  -5  11   7   34.40   22.76
  -5  11   7   21.91   17.88
   5 -11  -7   47.80   19.12
   5 -11  -7   29.20   20.03
  -5  11   6  209.72   30.24
  -5  11   6  206.73   35.18
  -5  11   6  195.02   29.46
   5 -11  -6  238.72   33.49
   5 -11  -6  213.04   34.01
  -5  11   5   11.97   18.60
  -5  11   5   29.59   23.02
  -5  11   5   14.83   16.71
   5 -11  -5    1.04   17.10
   5 -11  -5    1.95   16.26
  -5  11   4   -3.71   16.91
  -5  11   4    6.76   21.91
  -5  11   4  -10.08   14.96
   5 -11  -4    2.80   17.75
   5 -11  -4  -18.47   13.79
  -5  11   3   69.58   23.09
  -5  11   3   17.69   19.05
  -5  11   3   25.30   17.69
   5 -11  -3   73.94   23.93
   5 -11  -3   43.57   19.77
  -5  11   2    8.52   18.92
  -5  10  12   37.85   21.65
  -5  10  12   53.19   24.26
  -5  10  12   30.30   20.35
   5 -10 -12   63.99   25.75
  -5  10  11   39.86   19.57
  -5  10  11   28.61   22.83
  -5  10  11   15.09   18.40
   5 -10 -11   24.52   20.81
  -5  10  10   14.83   17.69
  -5  10  10    2.08   18.79
  -5  10  10   -4.42   15.61
   5 -10 -10   22.89   20.29
  -5  10   9   12.81   17.23
  -5  10   9    2.02   19.57
  -5  10   9   12.42   16.78
   5 -10  -9   23.67   16.52
   5 -10  -9    5.72   17.95
  -5  10   8   80.77   22.24
  -5  10   8   70.75   23.87
  -5  10   8   42.07   18.99
   5 -10  -8   78.95   21.26
   5 -10  -8   96.89   26.08
  -5  10   7   92.15   22.50
  -5  10   7  132.85   28.61
  -5  10   7  129.15   24.84
   5 -10  -7  136.95   25.17
   5 -10  -7  121.54   25.95
  -5  10   6   78.30   21.65
  -5  10   6   49.55   22.83
  -5  10   6   69.45   20.22
   5 -10  -6   80.31   21.26
   5 -10  -6   83.56   22.50
  -5  10   5  117.77   24.19
  -5  10   5  114.52   26.01
  -5  10   5  125.05   23.48
   5 -10  -5  102.68   23.74
   5 -10  -5  132.46   25.17
  -5  10   4   58.27   21.39
  -5  10   4   84.86   24.19
  -5  10   4   62.56   20.35
   5 -10  -4   71.27   21.72
   5 -10  -4   79.08   22.04
  -5  10   3   -8.39   15.48
  -5  10   3    5.46   15.28
  -5  10   3    5.33   15.48
   5 -10  -3  -15.09   14.44
   5 -10  -3   -3.77   14.31
  -5  10   2    2.67   16.39
  -5  10   2   10.60   18.86
  -5  10   2   24.91   16.65
   5 -10  -2    4.23   16.06
   5 -10  -2   20.22   15.28
  -5  10   1   36.35   18.34
  -5  10   1   32.25   21.00
  -5  10   1   26.34   17.17
   5 -10  -1   67.31   24.65
   5 -10  -1   53.00   19.77
  -5  10   0   19.96   19.90
  -5  10   0   16.39   20.09
  -5  10   0   14.83   17.88
   5 -10   0   31.80   21.13
   5 -10   0   20.03   15.22
  -5  10  -1   87.59   24.45
  -5  10  -1   81.81   26.73
  -5  10  -1   72.51   22.17
   5 -10   1   76.73   25.36
   5 -10   1   86.94   21.39
  -5   9  13    8.91   18.21
  -5   9  13  -16.58   19.64
  -5   9  13   10.60   16.45
  -5   9  13   13.07   18.27
   5  -9 -13   11.45   14.96
   5  -9 -13   -6.63   18.60
  -5   9  12   59.96   21.98
  -5   9  12   60.87   23.61
  -5   9  12   64.83   22.44
   5  -9 -12   72.77   19.83
   5  -9 -12   73.55   24.00
  -5   9  11   70.17   21.20
  -5   9  11   95.07   26.27
  -5   9  11   70.23   22.04
   5  -9 -11   88.89   19.57
   5  -9 -11  101.12   25.10
  -5   9  10   -9.56   13.98
  -5   9  10   -4.03   17.43
  -5   9  10   -0.59   15.41
   5  -9 -10   -0.13   12.10
   5  -9 -10    8.06   17.56
  -5   9   9   50.92   19.25
  -5   9   9   40.97   21.13
  -5   9   9   44.81   19.38
   5  -9  -9   30.89   13.53
   5  -9  -9   38.89   18.99
  -5   9   8   22.83   16.19
  -5   9   8   39.02   21.07
  -5   9   8   -3.64   13.59
   5  -9  -8   27.96   12.94
   5  -9  -8   42.07   16.84
   5  -9  -8   25.69   18.21
  -5   9   7    5.53   14.96
  -5   9   7    6.11   16.19
  -5   9   7   27.51   16.00
   5  -9  -7   -6.31   10.79
   5  -9  -7    6.89   13.01
   5  -9  -7   -5.46   14.24
  -5   9   6   -8.78   12.68
  -5   9   6   -3.38   14.89
  -5   9   6   -5.07   13.20
   5  -9  -6    0.13   12.49
   5  -9  -6    4.10   14.57
  -5   9   5   69.13   19.12
  -5   9   5   80.90   22.17
  -5   9   5   78.49   20.48
   5  -9  -5   89.41   21.00
   5  -9  -5   69.00   18.60
  -5   9   4   -5.79   14.18
  -5   9   4   13.53   17.10
  -5   9   4   -1.17   13.79
   5  -9  -4   -6.57   12.42
   5  -9  -4    0.20   12.36
  -5   9   3   16.00   16.19
  -5   9   3    4.23   14.31
  -5   9   3    3.84   14.50
   5  -9  -3  -10.01   13.07
   5  -9  -3   -8.65   11.58
  -5   9   2   -5.27   14.44
  -5   9   2   -2.28   14.50
  -5   9   2    7.67   14.24
   5  -9  -2    1.76   14.89
   5  -9  -2    7.02   12.03
  -5   9   1   34.66   17.95
  -5   9   1   26.99   18.40
  -5   9   1   46.89   17.49
   5  -9  -1   43.31   19.51
   5  -9  -1   36.16   16.97
  -5   9   0    4.10   15.09
  -5   9   0   17.75   17.43
  -5   9   0   -3.32   14.63
   5  -9   0  -12.36   15.22
   5  -9   0    1.43   13.07
  -5   9  -1   28.94   18.34
  -5   9  -1   35.51   19.64
  -5   9  -1   37.72   19.31
   5  -9   1   28.22   20.68
   5  -9   1   20.22   15.15
  -5   9  -2   45.78   20.42
  -5   9  -2   49.36   22.30
  -5   9  -2   38.50   18.21
   5  -9   2   90.33   24.71
   5  -9   2   51.83   17.17
  -5   9  -3   15.54   19.64
  -5   9  -3   43.11   21.98
  -5   9  -3    8.26   16.65
   5  -9   3    9.43   19.83
   5  -9   3   36.48   16.84
  -5   8  14   69.26   24.26
  -5   8  14   59.63   25.49
  -5   8  14   58.27   20.74
   5  -8 -14   78.88   21.13
   5  -8 -14   92.41   25.95
  -5   8  13    5.40   17.04
  -5   8  13   10.01   20.61
  -5   8  13   -7.87   15.35
  -5   8  13   10.27   17.43
   5  -8 -13   10.21   14.24
   5  -8 -13    9.82   17.43
  -5   8  12  111.26   23.67
  -5   8  12  124.34   27.25
  -5   8  12  103.01   23.41
   5  -8 -12  119.33   22.44
   5  -8 -12  160.82   29.20
  -5   8  11  198.86   28.68
  -5   8  11  213.88   31.60
  -5   8  11  165.24   27.05
   5  -8 -11  187.41   25.30
   5  -8 -11  273.77   34.86
  -5   8  10    8.45   15.02
  -5   8  10   13.46   18.40
  -5   8  10    5.98   16.06
   5  -8 -10   19.12   13.14
   5  -8 -10  -10.86   16.58
  -5   8   9  120.95   23.74
  -5   8   9  138.64   26.86
  -5   8   9  114.13   24.26
   5  -8  -9  123.23   20.42
   5  -8  -9  123.23   24.58
  -5   8   8  175.19   25.30
  -5   8   8  191.64   29.33
  -5   8   8  168.23   25.56
   5  -8  -8  144.95   20.61
   5  -8  -8  217.20   26.79
   5  -8  -8  228.77   30.82
  -5   8   7   14.70   14.63
  -5   8   7   31.99   17.88
  -5   8   7   18.66   15.22
   5  -8  -7   14.83   11.58
   5  -8  -7   25.30   13.79
   5  -8  -7   26.66   16.65
  -5   8   6  110.03   21.13
  -5   8   6  103.72   22.17
  -5   8   6   87.33   20.42
   5  -8  -6   88.44   16.52
   5  -8  -6   98.00   19.51
   5  -8  -6  105.61   22.57
  -5   8   5  145.41   22.89
  -5   8   5  178.18   28.22
  -5   8   5  161.14   24.58
   5  -8  -5  153.47   19.96
   5  -8  -5  162.83   23.87
   5  -8  -5  150.93   25.04
  -5   8   4   78.82   18.92
  -5   8   4   59.18   19.38
  -5   8   4   82.13   19.70
   5  -8  -4   93.45   20.16
   5  -8  -4   87.72   19.44
  -5   8   3  114.65   20.48
  -5   8   3   98.06   22.96
  -5   8   3  109.57   21.59
   5  -8  -3  149.31   23.87
   5  -8  -3  110.55   21.07
  -5   8   2    5.66   13.53
  -5   8   2    0.85   14.24
  -5   8   2    0.39   13.20
   5  -8  -2   14.05   10.27
   5  -8  -2   10.73   13.85
   5  -8  -2  -11.05   10.86
  -5   8   1   43.96   18.14
  -5   8   1   45.91   18.92
  -5   8   1   43.37   16.71
   5  -8  -1   34.73   12.68
   5  -8  -1   49.29   17.95
   5  -8  -1   14.96   13.53
  -5   8   0   47.80   17.95
  -5   8   0   39.15   17.43
  -5   8   0   33.16   16.45
   5  -8   0   60.22   20.61
   5  -8   0   50.33   17.69
  -5   8  -1    3.45   15.54
  -5   8  -1   29.85   16.97
  -5   8  -1   16.65   16.26
   5  -8   1    5.40   14.57
   5  -8   1   14.44   13.85
  -5   8  -2    7.93   15.48
  -5   8  -2   14.76   17.10
  -5   8  -2  -11.38   14.63
   5  -8   2   -1.30   14.44
   5  -8   2    0.26   12.03
  -5   8  -3    8.13   17.30
  -5   8  -3   13.14   17.49
  -5   8  -3    9.95   16.71
   5  -8   3   12.23   17.17
   5  -8   3    2.99   14.50
  -5   8  -4   29.13   18.79
  -5   8  -4   44.22   21.52
  -5   8  -4   43.44   19.12
   5  -8   4   18.86   18.73
   5  -8   4   31.60   16.78
  -5   8  -5   13.40   19.05
  -5   8  -5   15.09   19.96
  -5   8  -5   27.96   19.90
   5  -8   5   -4.10   17.04
   5  -8   5   11.38   15.80
  -5   7  14   32.77   19.57
  -5   7  14   -5.59   17.88
  -5   7  14   13.46   16.58
   5  -7 -14   17.88   16.91
  -5   7  13   -3.64   15.93
  -5   7  13  -14.70   16.84
  -5   7  13    3.38   14.31
   5  -7 -13   -1.82   12.94
   5  -7 -13    9.75   17.04
  -5   7  12   21.78   16.39
  -5   7  12   11.90   18.79
  -5   7  12   -5.07   13.20
  -5   7  12   18.53   17.36
   5  -7 -12   27.25   15.61
   5  -7 -12   21.20   17.95
  -5   7  11   71.14   20.42
  -5   7  11   78.49   22.37
  -5   7  11   67.70   20.22
   5  -7 -11   61.06   17.69
   5  -7 -11  105.87   25.17
  -5   7  10  110.35   21.72
  -5   7  10  113.09   24.26
  -5   7  10  109.44   22.63
   5  -7 -10  121.60   20.74
   5  -7 -10  106.13   24.26
  -5   7   9  -13.01   11.45
  -5   7   9   -3.51   14.70
  -5   7   9    5.20   14.50
   5  -7  -9   -4.36   10.60
   5  -7  -9    7.48   15.22
  -5   7   8   71.21   18.14
  -5   7   8   53.45   19.83
  -5   7   8   40.58   16.97
   5  -7  -8   61.26   15.41
   5  -7  -8   57.10   15.93
   5  -7  -8   53.13   18.66
  -5   7   7   20.35   13.72
  -5   7   7   -0.13   14.70
  -5   7   7   13.92   13.59
   5  -7  -7   29.52   12.62
   5  -7  -7   24.45   13.07
   5  -7  -7   11.77   14.96
   5  -7  -7   10.60   15.48
  -5   7   6  183.64   24.52
  -5   7   6  205.36   27.18
  -5   7   6  156.33   23.35
   5  -7  -6  178.63   20.22
   5  -7  -6  185.79   23.22
   5  -7  -6  220.12   29.39
   5  -7  -6  192.62   27.12
  -5   7   5   49.62   16.13
  -5   7   5   50.33   17.95
  -5   7   5   57.10   16.71
   5  -7  -5   61.91   16.06
   5  -7  -5   71.73   19.64
   5  -7  -5   55.53   17.88
  -5   7   4  169.21   22.96
  -5   7   4  196.00   27.31
  -5   7   4  209.00   26.14
   5  -7  -4  195.48   19.77
   5  -7  -4  221.94   24.91
   5  -7  -4  230.33   29.91
   5  -7  -4  174.28   24.39
  -5   7   3  126.22   21.00
  -5   7   3  135.00   23.15
  -5   7   3  101.64   20.55
   5  -7  -3  127.59   17.56
   5  -7  -3  133.89   20.87
   5  -7  -3  123.75   22.76
   5  -7  -3   76.80   16.97
  -5   7   2    2.28   12.55
  -5   7   2   -4.88   12.55
  -5   7   2   -3.51   12.62
   5  -7  -2    4.55    8.84
   5  -7  -2    5.27   12.81
   5  -7  -2    1.82   12.81
   5  -7  -2   -9.10    9.69
  -5   7   1    4.36   12.88
  -5   7   1   13.01   14.63
  -5   7   1   16.52   13.85
   5  -7  -1   20.16   10.79
   5  -7  -1    4.42   12.88
   5  -7  -1   12.42   13.92
   5  -7  -1   10.60   12.42
  -5   7   0   96.37   19.38
  -5   7   0   88.05   20.29
  -5   7   0   96.70   20.29
   5  -7   0  123.88   17.43
   5  -7   0  107.62   22.04
   5  -7   0  126.29   21.59
   5  -7   0  105.02   19.44
  -5   7  -1   30.76   16.32
  -5   7  -1   16.26   15.22
  -5   7  -1   12.36   14.96
   5  -7   1   16.26   10.47
   5  -7   1   33.56   16.97
   5  -7   1   25.49   13.72
   5  -7   1   14.50   12.94
  -5   7  -2  131.94   23.54
  -5   7  -2  151.71   25.69
  -5   7  -2  136.63   23.54
   5  -7   2  141.83   18.92
   5  -7   2  137.73   25.69
   5  -7   2  111.00   20.68
  -5   7  -3  172.59   26.99
  -5   7  -3  180.59   27.90
  -5   7  -3  166.08   26.40
   5  -7   3  144.30   19.44
   5  -7   3  161.21   26.08
   5  -7   3  155.22   23.35
  -5   7  -4   24.39   17.23
  -5   7  -4   21.07   18.27
  -5   7  -4   23.22   17.75
   5  -7   4   35.57   18.40
   5  -7   4   36.03   15.74
  -5   7  -5   15.28   18.21
  -5   7  -5   -6.11   16.32
  -5   7  -5   -5.79   15.61
   5  -7   5    1.50   17.17
   5  -7   5   -4.03   13.53
  -5   7  -6    6.24   17.69
  -5   7  -6   -2.21   17.75
  -5   7  -6  -16.97   15.80
   5  -7   6  -13.07   16.00
   5  -7   6   -4.49   13.33
  -5   6  15   21.59   19.64
  -5   6  15   14.24   22.24
  -5   6  15   21.26   19.44
   5  -6 -15   16.26   17.69
  -5   6  14  111.98   24.58
  -5   6  14   97.41   26.27
  -5   6  14   65.09   19.83
   5  -6 -14   85.32   22.30
  -5   6  13   28.42   18.21
  -5   6  13   69.91   24.32
  -5   6  13   59.05   18.86
   5  -6 -13   54.04   19.25
   5  -6 -13   53.71   19.44
  -5   6  12   43.44   17.69
  -5   6  12   43.96   20.03
  -5   6  12   54.95   18.01
  -5   6  12   40.71   18.73
   5  -6 -12   33.42   16.06
   5  -6 -12   63.60   19.25
  -5   6  11  126.55   22.96
  -5   6  11  127.13   25.43
  -5   6  11  114.39   20.87
  -5   6  11  143.19   26.86
   5  -6 -11  173.17   25.69
   5  -6 -11  175.90   26.53
  -5   6  10  120.30   21.72
  -5   6  10  149.05   25.75
  -5   6  10  151.32   25.10
   5  -6 -10  156.59   23.48
   5  -6 -10  184.29   26.86
  -5   6   9    9.82   13.53
  -5   6   9   11.25   14.70
  -5   6   9   14.96   14.70
   5  -6  -9   18.99   12.49
   5  -6  -9    2.80   14.96
   5  -6  -9   21.20   16.06
  -5   6   8   13.59   13.85
  -5   6   8   30.43   16.19
  -5   6   8   26.66   15.22
   5  -6  -8   36.48   13.85
   5  -6  -8   19.18   14.31
   5  -6  -8   31.02   15.54
  -5   6   7   17.75   12.75
  -5   6   7   20.61   14.44
  -5   6   7   -0.85   13.14
   5  -6  -7    5.46   10.08
   5  -6  -7   12.81   10.47
   5  -6  -7   12.10   14.11
   5  -6  -7    7.35   13.53
  -5   6   6    2.28   12.03
  -5   6   6    9.23   13.01
  -5   6   6    5.98   12.16
   5  -6  -6   13.01   10.66
   5  -6  -6  -27.70   11.12
   5  -6  -6  -14.11   11.97
  -5   6   5   79.60   17.30
  -5   6   5   95.46   19.83
  -5   6   5   76.86   17.49
   5  -6  -5   72.51   14.57
   5  -6  -5   84.67   15.93
   5  -6  -5   66.52   19.12
   5  -6  -5   53.58   16.58
  -5   6   4    7.02   11.90
  -5   6   4    9.36   13.33
  -5   6   4    4.55   12.29
   5  -6  -4    3.84    8.84
   5  -6  -4   15.54   11.12
   5  -6  -4    1.30   12.75
   5  -6  -4    7.74   11.32
  -5   6   3   87.79   17.36
  -5   6   3  108.79   20.94
  -5   6   3  104.83   20.03
   5  -6  -3  107.10   16.78
   5  -6  -3   83.04   16.45
   5  -6  -3  110.35   21.33
   5  -6  -3   68.67   16.13
  -5   6   2   99.82   18.47
  -5   6   2  119.13   20.81
  -5   6   2  125.70   20.61
   5  -6  -2  131.68   17.56
   5  -6  -2  141.70   21.13
   5  -6  -2  113.02   22.17
   5  -6  -2  112.63   20.48
  -5   6   1   52.93   15.35
  -5   6   1   66.52   16.52
  -5   6   1   60.80   16.52
   5  -6  -1   71.40   14.44
   5  -6  -1   83.37   18.47
   5  -6  -1   31.60   17.43
   5  -6  -1   36.81   16.19
  -5   6   0   10.01   12.62
  -5   6   0   -3.19   12.16
  -5   6   0   -3.45   12.75
   5  -6   0   -1.24    8.58
   5  -6   0    8.78   12.55
   5  -6   0   -0.33   11.58
   5  -6   0    9.49   10.92
  -5   6  -1   47.93   16.00
  -5   6  -1   19.64   14.57
  -5   6  -1   11.38   13.27
   5  -6   1   41.36   12.55
   5  -6   1   29.07   13.98
   5  -6   1   30.17   13.40
   5  -6   1   29.46   13.01
  -5   6  -2   17.17   14.11
  -5   6  -2   13.33   14.05
  -5   6  -2   16.39   14.37
   5  -6   2   -1.30    8.71
   5  -6   2   11.19   13.53
   5  -6   2    7.41   12.23
   5  -6   2  -10.47   11.05
  -5   6  -3    4.55   13.33
  -5   6  -3  -11.64   12.68
  -5   6  -3  -14.31   12.75
   5  -6   3   -3.84    9.95
   5  -6   3   -1.04   13.20
   5  -6   3  -10.27   10.79
  -5   6  -4   44.22   18.01
  -5   6  -4   47.60   18.60
  -5   6  -4   55.60   18.73
   5  -6   4   55.79   14.83
   5  -6   4   60.54   19.51
   5  -6   4   26.14   14.18
  -5   6  -5  113.28   23.35
  -5   6  -5  155.94   26.53
  -5   6  -5  116.27   24.52
   5  -6   5  155.22   22.17
   5  -6   5  179.61   28.22
   5  -6   5  139.81   23.48
  -5   6  -6   74.46   21.65
  -5   6  -6   72.70   21.59
  -5   6  -6   79.08   22.44
   5  -6   6   70.49   17.10
   5  -6   6   56.38   19.96
   5  -6   6   52.09   17.43
  -5   6  -7    8.19   17.75
  -5   6  -7    8.00   17.82
  -5   6  -7   10.40   17.75
   5  -6   7   13.79   17.69
   5  -6   7   -9.88   11.05
  -5   6  -8   16.00   19.70
  -5   6  -8   -0.39   19.18
  -5   6  -8    3.97   18.47
   5  -6   8   22.76   20.22
  -5   5  15   -0.98   16.26
  -5   5  15   16.13   20.48
  -5   5  15   16.39   20.87
   5  -5 -15   34.21   19.70
  -5   5  14   42.20   18.53
  -5   5  14   46.30   21.59
  -5   5  14   37.52   17.49
   5  -5 -14   72.51   22.76
  -5   5  13  136.37   24.84
  -5   5  13  167.45   28.87
  -5   5  13  178.11   26.21
   5  -5 -13  208.35   30.76
  -5   5  12   21.52   15.87
  -5   5  12   38.89   18.92
  -5   5  12    8.26   13.98
   5  -5 -12   42.59   17.10
   5  -5 -12   29.85   15.48
  -5   5  11    1.50   12.29
  -5   5  11   16.84   17.10
  -5   5  11   17.36   14.05
  -5   5  11   17.23   15.22
   5  -5 -11    0.13   12.68
   5  -5 -11   -0.65   13.27
  -5   5  10   13.85   13.07
  -5   5  10   19.44   16.52
  -5   5  10   22.44   12.81
  -5   5  10   33.42   16.58
   5  -5 -10   22.04   14.05
   5  -5 -10   27.44   15.93
   5  -5 -10   52.35   17.10
  -5   5   9  197.88   24.65
  -5   5   9  197.23   26.47
  -5   5   9  188.91   25.62
   5  -5  -9  251.86   25.10
   5  -5  -9  268.90   27.96
   5  -5  -9  225.59   26.14
  -5   5   8   25.49   13.20
  -5   5   8   26.01   15.22
  -5   5   8   28.29   14.89
   5  -5  -8   24.06   12.23
   5  -5  -8   41.10   17.04
   5  -5  -8   22.96   15.02
  -5   5   7   54.30   14.96
  -5   5   7   76.67   17.95
  -5   5   7   67.96   17.30
   5  -5  -7   85.12   16.78
   5  -5  -7   81.16   14.31
   5  -5  -7   80.64   18.99
   5  -5  -7   85.45   19.05
  -5   5   6   -2.60   10.08
  -5   5   6    0.65   11.58
  -5   5   6   14.50   12.75
   5  -5  -6    1.24    8.00
   5  -5  -6   -2.02   11.45
   5  -5  -6    2.28    9.82
  -5   5   5  185.01   21.52
  -5   5   5  179.81   23.93
  -5   5   5  193.07   23.54
   5  -5  -5  222.46   20.03
   5  -5  -5  203.35   19.96
   5  -5  -5  227.67   27.44
   5  -5  -5  208.55   23.09
  -5   5   4   12.88   11.12
  -5   5   4    6.44   11.51
  -5   5   4    7.54   11.12
   5  -5  -4    5.79    8.52
   5  -5  -4   14.83    9.49
   5  -5  -4   -6.89   10.60
   5  -5  -4    4.88   10.34
  -5   5   3   21.85   12.75
  -5   5   3    8.32   12.29
  -5   5   3   11.45   11.58
   5  -5  -3   26.08   10.73
   5  -5  -3   12.03   10.08
   5  -5  -3   14.70   13.40
   5  -5  -3   13.27   10.99
  -5   5   2   27.38   12.68
  -5   5   2   35.83   13.59
  -5   5   2   19.70   13.20
   5  -5  -2   39.54   11.38
   5  -5  -2   35.83   11.90
   5  -5  -2   15.67   13.33
   5  -5  -2   21.26   12.49
  -5   5   1    9.69   11.25
  -5   5   1   12.81   11.71
  -5   5   1   25.88   13.59
   5  -5  -1   24.26   10.66
   5  -5  -1   12.62   10.79
   5  -5  -1   -4.94   11.71
   5  -5  -1   14.96   11.32
  -5   5   0   -4.62   10.47
  -5   5   0    4.42   11.71
  -5   5   0   -5.66   10.73
   5  -5   0    4.94    8.78
   5  -5   0   -2.73    8.97
   5  -5   0    1.24   10.47
   5  -5   0    3.45   10.27
  -5   5  -1   10.21   11.84
  -5   5  -1    7.87   11.90
  -5   5  -1    7.80   12.68
   5  -5   1    2.41    9.69
   5  -5   1   13.33   11.05
   5  -5   1   16.97   12.10
   5  -5   1   10.66   11.64
  -5   5  -2   38.24   14.63
  -5   5  -2   22.76   13.98
  -5   5  -2   31.54   14.96
   5  -5   2   46.50   12.88
   5  -5   2   24.71   14.96
   5  -5   2    8.78   13.46
   5  -5   2   -6.31   12.81
  -5   5  -3   10.73   13.07
  -5   5  -3   20.55   14.57
  -5   5  -3   14.37   14.31
   5  -5   3   15.54   10.79
   5  -5   3   21.46   13.20
   5  -5   3   17.56   11.25
   5  -5   3   16.39   12.49
  -5   5  -4   47.93   17.75
  -5   5  -4   40.90   16.91
  -5   5  -4   40.90   16.58
   5  -5   4   58.14   14.96
   5  -5   4   42.85   17.23
   5  -5   4   26.40   15.80
  -5   5  -5   29.72   16.19
  -5   5  -5   36.29   17.17
  -5   5  -5    8.78   14.89
   5  -5   5   18.34   11.71
   5  -5   5    8.78   13.85
   5  -5   5   -7.15   13.59
  -5   5  -6   -9.17   14.63
  -5   5  -6    5.98   14.70
  -5   5  -6   -3.84   15.67
   5  -5   6    9.30   12.10
   5  -5   6    8.06   14.18
   5  -5   6   -5.53   11.71
  -5   5  -7   69.26   21.00
  -5   5  -7   67.89   21.52
  -5   5  -7   72.25   21.98
   5  -5   7   44.09   16.65
   5  -5   7   48.64   19.44
   5  -5   7   53.26   16.45
  -5   5  -8   26.08   19.38
  -5   5  -8   -0.52   17.69
  -5   5  -8   16.26   19.12
   5  -5   8   13.14   14.63
   5  -5   8  -13.27   18.01
   5  -5   8   10.53   19.05
  -5   5  -9   19.12   18.92
  -5   5  -9   -1.04   17.10
  -5   5  -9    7.74   18.34
   5  -5   9    4.03   13.40
   5  -5   9   -4.55   17.23
  -5   4  15    3.77   16.84
  -5   4  15   25.75   20.48
  -5   4  15   16.52   19.90
   5  -4 -15   18.21   18.99
  -5   4  14   67.11   21.59
  -5   4  14   52.09   22.76
  -5   4  14   56.51   21.85
   5  -4 -14   54.88   21.46
  -5   4  13   10.53   15.35
  -5   4  13    1.63   17.49
  -5   4  13   15.09   14.83
   5  -4 -13   16.71   15.80
  -5   4  12   63.79   18.99
  -5   4  12   94.81   23.15
  -5   4  12   42.01   16.32
   5  -4 -12  100.21   21.85
   5  -4 -12   85.19   19.83
  -5   4  11   -5.59   11.77
  -5   4  11   -0.85   14.96
  -5   4  11   12.68   12.75
   5  -4 -11   -8.58   11.58
   5  -4 -11    3.32   14.31
   5  -4 -11   -6.70   10.99
  -5   4  10   -6.76   10.99
  -5   4  10   -5.79   12.94
  -5   4  10   10.79   11.25
  -5   4  10    9.49   13.20
   5  -4 -10   -3.25   10.99
   5  -4 -10   -7.74   10.92
   5  -4 -10    3.51   11.45
  -5   4   9   48.32   16.13
  -5   4   9   58.07   17.69
  -5   4   9   54.10   15.09
  -5   4   9   47.02   16.84
   5  -4  -9   50.01   15.93
   5  -4  -9   60.35   17.56
   5  -4  -9   61.78   16.97
  -5   4   8   38.24   13.27
  -5   4   8   37.72   15.09
  -5   4   8   56.51   16.65
   5  -4  -8   69.13   15.74
   5  -4  -8   53.13   16.00
   5  -4  -8   61.58   16.19
  -5   4   7    0.85   10.01
  -5   4   7    6.11   11.90
  -5   4   7   10.79   11.84
   5  -4  -7    2.67   11.38
   5  -4  -7    1.24   10.14
  -5   4   6   97.41   17.69
  -5   4   6   95.14   18.79
  -5   4   6  125.12   20.55
   5  -4  -6   83.76   15.54
   5  -4  -6   98.91   13.85
   5  -4  -6  122.06   20.22
   5  -4  -6  111.85   18.21
   5  -4  -6   88.31   17.17
  -5   4   5   47.41   13.66
  -5   4   5   58.33   14.89
  -5   4   5   35.70   14.05
   5  -4  -5   45.52   11.90
   5  -4  -5   47.54   11.25
   5  -4  -5   44.54   14.24
   5  -4  -5   52.22   13.92
   5  -4  -5   46.50   13.27
  -5   4   4  138.12   19.12
  -5   4   4  138.77   19.77
  -5   4   4  132.14   19.64
   5  -4  -4  148.46   17.36
   5  -4  -4  159.91   16.78
   5  -4  -4  143.65   20.55
   5  -4  -4  150.54   20.87
   5  -4  -4  120.76   17.56
  -5   4   3   82.07   15.67
  -5   4   3   92.34   17.75
  -5   4   3  109.44   18.27
   5  -4  -3  110.94   16.58
   5  -4  -3   91.56   13.92
   5  -4  -3  108.92   19.05
   5  -4  -3  123.10   18.99
   5  -4  -3  107.36   16.78
  -5   4   2   60.93   14.18
  -5   4   2   58.79   14.76
  -5   4   2   46.43   13.85
   5  -4  -2   60.93   13.01
   5  -4  -2   52.35   11.90
   5  -4  -2   66.39   15.48
   5  -4  -2   41.68   13.66
   5  -4  -2   48.90   13.27
  -5   4   1   63.34   15.22
  -5   4   1   34.79   12.23
  -5   4   1   54.30   14.70
   5  -4  -1   47.86   11.90
   5  -4  -1   53.00   12.88
   5  -4  -1   47.93   13.98
   5  -4  -1   58.07   13.92
   5  -4  -1   65.03   18.34
  -5   4   0    8.45   10.47
  -5   4   0   17.43   11.19
  -5   4   0   24.39   12.88
   5  -4   0   23.35   10.08
   5  -4   0   18.53   10.47
   5  -4   0    5.66    9.95
   5  -4   0   27.77   12.42
  -5   4  -1   16.32   11.77
  -5   4  -1   18.99   11.90
  -5   4  -1   11.19   12.49
   5  -4   1   14.89    9.23
   5  -4   1   20.74   10.60
   5  -4   1   13.92   11.12
   5  -4   1   14.05   11.64
  -5   4  -2  125.51   19.38
  -5   4  -2  133.89   19.96
  -5   4  -2  134.22   21.65
   5  -4   2  148.66   18.79
   5  -4   2  161.27   21.65
   5  -4   2  123.43   19.38
   5  -4   2  129.41   19.64
  -5   4  -3   27.18   13.92
  -5   4  -3   33.23   14.57
  -5   4  -3   41.81   15.41
   5  -4   3   37.65   12.42
   5  -4   3   36.29   13.98
   5  -4   3   44.22   13.79
   5  -4   3   34.53   14.24
  -5   4  -4   16.91   13.27
  -5   4  -4    1.30   12.81
  -5   4  -4   13.46   14.44
   5  -4   4   11.71   10.47
   5  -4   4  -11.45   12.29
   5  -4   4   -6.76   10.86
   5  -4   4    7.61   12.23
  -5   4  -5   75.69   18.73
  -5   4  -5   79.14   18.73
  -5   4  -5   68.15   18.01
   5  -4   5   67.44   15.61
   5  -4   5   51.05   17.10
   5  -4   5   53.32   18.79
   5  -4   5   57.23   17.75
  -5   4  -6   -7.54   12.68
  -5   4  -6   -3.77   13.07
  -5   4  -6    3.06   14.96
   5  -4   6   16.32   12.75
   5  -4   6    6.18   13.98
   5  -4   6    4.88   13.66
  -5   4  -7   95.53   21.59
  -5   4  -7  111.92   22.37
  -5   4  -7  120.37   24.91
   5  -4   7  115.69   20.03
   5  -4   7   65.09   19.18
   5  -4   7   84.93   19.44
  -5   4  -8   31.08   17.82
  -5   4  -8   20.48   16.84
  -5   4  -8   24.91   18.92
   5  -4   8   26.40   15.02
   5  -4   8    4.16   17.04
   5  -4   8   -2.99   13.01
  -5   4  -9   16.45   18.34
  -5   4  -9    1.95   15.61
  -5   4  -9    3.97   18.92
   5  -4   9   16.97   13.92
   5  -4   9  -17.17   23.15
  -5   4 -10   39.86   21.85
  -5   4 -10   46.24   22.17
   5  -4  10   34.60   16.58
   5  -4  10   17.43   20.68
  -5   3  15   37.26   20.81
  -5   3  15   36.81   23.93
  -5   3  15   44.67   21.46
   5  -3 -15   49.68   22.30
  -5   3  14   27.05   16.91
  -5   3  14   61.26   22.83
  -5   3  14   52.15   21.20
   5  -3 -14   67.18   22.30
  -5   3  13   22.96   15.02
  -5   3  13    5.85   17.10
  -5   3  13   15.41   17.95
   5  -3 -13   13.14   16.06
  -5   3  12   54.56   17.69
  -5   3  12   49.10   19.90
  -5   3  12   40.19   16.13
   5  -3 -12   78.62   20.87
   5  -3 -12   56.97   18.47
  -5   3  11   -1.56   11.38
  -5   3  11   30.63   16.78
  -5   3  11   13.20   12.55
   5  -3 -11   22.11   15.28
   5  -3 -11    8.26   13.59
   5  -3 -11   23.80   12.10
  -5   3  10   28.81   14.83
  -5   3  10   28.48   16.13
  -5   3  10   24.06   13.33
   5  -3 -10   22.37   13.53
   5  -3 -10   35.90   16.06
   5  -3 -10   24.13   12.29
   5  -3 -10   20.61   12.62
  -5   3   9   16.97   12.10
  -5   3   9   21.72   14.37
  -5   3   9    2.02    9.43
  -5   3   9    7.93   13.20
   5  -3  -9   14.37   11.71
   5  -3  -9  -10.08   12.03
   5  -3  -9   12.55   11.38
   5  -3  -9   -1.50    9.62
   5  -3  -9    9.82    8.52
  -5   3   8  132.46   20.03
  -5   3   8  167.84   24.26
  -5   3   8  127.65   18.99
  -5   3   8  139.10   22.63
   5  -3  -8  134.42   19.90
   5  -3  -8  175.51   24.26
   5  -3  -8  167.51   20.68
   5  -3  -8  139.29   21.13
  -5   3   7  240.54   22.76
  -5   3   7  226.11   23.87
  -5   3   7  238.01   22.30
  -5   3   7  237.29   24.78
   5  -3  -7  236.97   23.35
   5  -3  -7  262.00   22.96
   5  -3  -7  248.15   23.41
  -5   3   6   55.73   13.59
  -5   3   6   45.98   13.98
  -5   3   6   47.34   13.72
   5  -3  -6   44.67   11.97
   5  -3  -6   57.81   14.70
   5  -3  -6   46.63   13.40
   5  -3  -6   58.07   14.37
  -5   3   5   -1.95    9.10
  -5   3   5    5.46   10.14
  -5   3   5    7.87   10.40
   5  -3  -5    4.75    7.67
   5  -3  -5    2.28    6.24
   5  -3  -5    3.58    8.97
   5  -3  -5   -1.24    8.13
   5  -3  -5    5.33    8.91
  -5   3   4  137.67   19.12
  -5   3   4  127.98   18.21
  -5   3   4  118.81   18.14
   5  -3  -4  136.24   16.58
   5  -3  -4  148.33   14.50
   5  -3  -4  114.26   19.83
   5  -3  -4  150.09   20.29
   5  -3  -4  132.46   17.95
  -5   3   3   93.38   16.13
  -5   3   3   78.95   15.87
  -5   3   3   88.89   16.84
   5  -3  -3   88.57   15.22
   5  -3  -3   97.35   12.88
   5  -3  -3   88.76   16.91
   5  -3  -3   82.20   17.04
   5  -3  -3   69.52   14.44
  -5   3   2  205.62   20.55
  -5   3   2  229.49   21.65
  -5   3   2  231.18   23.02
   5  -3  -2  232.93   19.05
   5  -3  -2  232.93   18.14
   5  -3  -2  221.62   23.28
   5  -3  -2  210.30   22.70
   5  -3  -2  210.95   20.55
  -5   3   1  423.27   26.27
  -5   3   1  410.53   25.75
  -5   3   1  420.22   27.64
   5  -3  -1  400.19   23.35
   5  -3  -1  452.54   23.61
   5  -3  -1  381.85   27.12
   5  -3  -1  455.92   28.48
   5  -3  -1  408.90   25.36
  -5   3   0   72.64   14.44
  -5   3   0   90.46   15.67
  -5   3   0   81.55   16.19
   5  -3   0   97.74   15.80
   5  -3   0   92.73   14.76
   5  -3   0  100.80   19.05
   5  -3   0   96.63   16.84
   5  -3   0   77.58   14.63
  -5   3  -1   14.76   10.53
  -5   3  -1   10.14    9.88
  -5   3  -1   12.29   11.19
   5  -3   1   16.19    8.78
   5  -3   1   12.49    9.75
   5  -3   1   -2.15    9.82
   5  -3   1   15.93   10.60
   5  -3   1    0.85    8.78
  -5   3  -2   68.48   15.48
  -5   3  -2   72.64   15.09
  -5   3  -2   54.62   15.15
   5  -3   2   69.97   14.89
   5  -3   2   73.03   14.57
   5  -3   2   53.45   14.05
   5  -3   2   64.90   15.28
   5  -3   2   91.17   16.26
  -5   3  -3   55.01   14.96
  -5   3  -3   67.63   14.83
  -5   3  -3   43.05   15.28
   5  -3   3   87.98   16.00
   5  -3   3   99.95   17.88
   5  -3   3   63.14   15.41
   5  -3   3   50.85   14.89
  -5   3  -4    3.12   10.86
  -5   3  -4    5.40    8.91
  -5   3  -4    6.11   11.38
  -5   3  -4    1.11   12.68
   5  -3   4   -1.37    9.04
   5  -3   4   17.43   11.84
   5  -3   4   -8.39   10.27
   5  -3   4   -6.57    9.23
  -5   3  -5   54.69   16.32
  -5   3  -5   54.49   13.40
  -5   3  -5   65.42   15.80
  -5   3  -5   44.81   16.26
   5  -3   5   51.31   14.37
   5  -3   5    8.78   19.25
   5  -3   5  -36.61   19.31
  -5   3  -6    6.96   13.72
  -5   3  -6    7.61   12.23
  -5   3  -6    5.27   12.36
  -5   3  -6    5.72   14.44
   5  -3   6   11.45   10.99
   5  -3   6    9.88   12.49
   5  -3   6  -12.68   12.62
   5  -3   6   14.70   12.55
  -5   3  -7   65.48   18.27
  -5   3  -7   92.34   18.86
  -5   3  -7   66.26   17.49
  -5   3  -7   74.72   21.91
   5  -3   7   79.60   17.10
   5  -3   7   67.04   19.77
   5  -3   7   80.51   18.60
  -5   3  -8   56.71   18.92
  -5   3  -8   56.84   21.13
  -5   3  -8   62.36   17.75
  -5   3  -8   38.76   18.79
   5  -3   8   51.83   16.71
   5  -3   8   20.68   19.25
   5  -3   8   43.83   16.39
  -5   3  -9   30.95   19.25
  -5   3  -9   10.92   15.80
  -5   3  -9   22.63   19.51
   5  -3   9   12.36   13.53
   5  -3   9   16.65   17.23
   5  -3   9    8.84   14.44
  -5   3 -10   38.82   19.96
  -5   3 -10   24.32   21.13
   5  -3  10   31.73   15.22
   5  -3  10  -12.23   25.49
  -5   3 -11   14.63   18.92
   5  -3  11   22.76   16.71
   5  -3  11   -7.67   18.47
  -5   2  15   36.22   19.31
  -5   2  15   58.46   24.65
  -5   2  15   14.83   18.60
   5  -2 -15   27.05   21.78
  -5   2  14   -2.02   14.96
  -5   2  14    4.36   19.18
  -5   2  14   13.01   17.62
   5  -2 -14   25.95   19.38
  -5   2  13    7.67   14.05
  -5   2  13    4.81   17.82
  -5   2  13   12.03   16.13
   5  -2 -13    8.00   16.26
  -5   2  12   20.09   13.92
  -5   2  12   24.71   17.17
  -5   2  12   17.23   15.02
   5  -2 -12   12.23   15.28
   5  -2 -12   13.01   14.89
   5  -2 -12   19.51   12.23
  -5   2  11   40.51   15.61
  -5   2  11   60.61   18.86
  -5   2  11   54.49   16.65
   5  -2 -11   39.21   16.65
   5  -2 -11   37.65   16.78
   5  -2 -11   33.95   18.47
   5  -2 -11   56.25   14.31
  -5   2  10    7.74   11.64
  -5   2  10   14.89   13.46
  -5   2  10    3.38   11.12
   5  -2 -10   15.35   13.01
   5  -2 -10   16.06   13.59
   5  -2 -10   27.05   11.38
   5  -2 -10   10.86   12.36
   5  -2 -10   17.75   10.34
  -5   2   9    8.45   10.99
  -5   2   9   -3.19   10.86
  -5   2   9   -0.13    9.56
  -5   2   9   -6.37   10.92
   5  -2  -9    8.32   10.60
   5  -2  -9    0.07   11.38
   5  -2  -9    4.16    8.97
   5  -2  -9    2.15   10.73
   5  -2  -9    1.50    8.19
  -5   2   8  102.88   17.49
  -5   2   8  117.57   20.42
  -5   2   8   70.04   15.35
  -5   2   8  109.70   18.92
   5  -2  -8  119.78   18.60
   5  -2  -8  125.90   20.87
   5  -2  -8  129.21   17.30
   5  -2  -8   92.34   17.69
   5  -2  -8   98.65   14.50
  -5   2   7  306.61   24.26
  -5   2   7  281.38   24.52
  -5   2   7  272.47   22.70
  -5   2   7  310.97   26.27
   5  -2  -7  311.03   24.78
   5  -2  -7  350.77   22.89
   5  -2  -7  297.05   24.32
   5  -2  -7  288.60   17.82
  -5   2   6    8.71    9.69
  -5   2   6   13.53    9.82
  -5   2   6   -0.72    7.87
  -5   2   6    6.05   10.34
   5  -2  -6    4.81    7.41
   5  -2  -6    7.80    9.56
   5  -2  -6    1.56    8.32
   5  -2  -6    7.41    8.39
   5  -2  -6   -2.86    6.05
  -5   2   5   56.19   12.68
  -5   2   5   60.15   14.24
  -5   2   5   36.03   12.68
   5  -2  -5   51.44   12.16
   5  -2  -5   56.38    9.23
   5  -2  -5   52.35   15.22
   5  -2  -5   58.33   14.57
   5  -2  -5   47.99   12.88
   5  -2  -5   54.56    9.75
  -5   2   4  213.17   19.96
  -5   2   4  223.83   20.94
  -5   2   4  213.17   21.78
   5  -2  -4  218.95   18.79
   5  -2  -4  222.40   14.37
   5  -2  -4  230.59   20.87
   5  -2  -4  234.23   20.68
   5  -2  -4  209.13   19.90
  -5   2   3  102.68   15.87
  -5   2   3   94.68   15.61
  -5   2   3   89.28   16.45
   5  -2  -3  100.34   14.76
   5  -2  -3  103.14   12.03
   5  -2  -3  127.59   18.14
   5  -2  -3  114.32   16.39
   5  -2  -3  124.01   17.82
  -5   2   2   -2.34    8.65
  -5   2   2   24.71   11.25
  -5   2   2   11.12   10.47
   5  -2  -2   26.14   10.14
   5  -2  -2   20.74    7.15
   5  -2  -2   15.22   10.01
   5  -2  -2   17.62    9.56
   5  -2  -2   21.85   10.14
  -5   2   1  294.39   21.98
  -5   2   1  298.74   22.11
  -5   2   1  317.28   24.26
   5  -2  -1  319.16   21.13
   5  -2  -1  339.32   19.05
   5  -2  -1  338.35   23.09
   5  -2  -1  303.49   22.50
   5  -2  -1  329.89   22.83
  -5   2   0  456.50   26.27
  -5   2   0  483.82   25.82
  -5   2   0  495.00   28.42
   5  -2   0  501.50   25.30
   5  -2   0  565.04   24.52
   5  -2   0  503.98   26.27
   5  -2   0  477.70   26.86
   5  -2   0  523.22   27.44
  -5   2  -1   78.88   14.63
  -5   2  -1   76.41   14.37
  -5   2  -1  100.27   17.30
   5  -2   1  110.61   16.84
   5  -2   1   93.58   13.92
   5  -2   1  103.46   17.43
   5  -2   1   73.29   13.79
   5  -2   1   77.58   15.15
  -5   2  -2   49.68   13.53
  -5   2  -2   54.75   12.88
  -5   2  -2   52.41   14.24
   5  -2   2   71.47   14.37
   5  -2   2   57.10   15.15
   5  -2   2   63.53   16.91
   5  -2   2   78.36   15.28
   5  -2   2   63.34   14.05
  -5   2  -3   14.11   10.86
  -5   2  -3   12.81    8.84
  -5   2  -3   10.53    9.95
  -5   2  -3   18.47   12.42
   5  -2   3    6.63    8.71
   5  -2   3   15.48    9.49
   5  -2   3    0.07    9.69
   5  -2   3    6.83   10.08
  -5   2  -4   75.89   16.78
  -5   2  -4   96.05   13.85
  -5   2  -4  109.18   16.71
  -5   2  -4   88.18   18.01
   5  -2   4  103.72   16.71
   5  -2   4   96.70   16.84
   5  -2   4   81.29   15.41
   5  -2   4  111.33   18.27
  -5   2  -5   34.66   13.98
  -5   2  -5   57.75   13.33
  -5   2  -5   37.59   13.53
  -5   2  -5   74.72   17.75
   5  -2   5   45.33   13.33
   5  -2   5   30.95   13.79
   5  -2   5   11.32   15.02
  -5   2  -6   16.13   13.01
  -5   2  -6   -2.73   11.58
  -5   2  -6    8.58   11.97
  -5   2  -6   16.91   15.09
   5  -2   6   10.53   10.40
   5  -2   6   12.23   17.43
   5  -2   6    9.88   16.45
  -5   2  -7   -4.68   12.55
  -5   2  -7   22.11   13.59
  -5   2  -7   20.09   13.07
  -5   2  -7    3.77   14.18
   5  -2   7    9.43   10.92
   5  -2   7   29.46   14.76
   5  -2   7    0.00   12.36
  -5   2  -8  571.87   37.13
  -5   2  -8  592.67   34.34
  -5   2  -8  512.36   32.12
  -5   2  -8  512.88   38.69
   5  -2   8  547.48   33.62
   5  -2   8  551.97   38.37
  -5   2  -9   85.06   21.59
  -5   2  -9  113.41   22.57
  -5   2  -9   74.26   17.75
  -5   2  -9   84.93   23.93
   5  -2   9   76.99   18.73
   5  -2   9   70.56   22.24
   5  -2   9   85.84   18.92
  -5   2 -10    6.50   16.65
  -5   2 -10   -7.22   17.88
   5  -2  10    2.28   13.33
   5  -2  10    8.32   16.97
   5  -2  10    7.93   14.50
  -5   2 -11   45.98   21.52
  -5   2 -11   29.26   22.04
   5  -2  11   43.31   17.69
   5  -2  11    2.41   22.96
  -5   2 -12   46.24   22.96
  -5   2 -12   55.21   29.65
   5  -2  12   47.93   18.92
   5  -2  12   22.76   22.83
  -5   1  15  -13.72   14.57
  -5   1  15   -1.95   18.34
   5  -1 -15    0.85   19.70
  -5   1  14  -10.92   13.07
  -5   1  14  -20.61   17.69
  -5   1  14   -3.19   17.56
   5  -1 -14  -13.85   16.13
  -5   1  13   14.63   14.89
  -5   1  13    2.08   17.10
  -5   1  13    0.91   15.54
   5  -1 -13    5.53   16.78
  -5   1  12   32.45   16.00
  -5   1  12   12.36   17.04
  -5   1  12   19.18   16.39
   5  -1 -12   25.56   16.45
   5  -1 -12   26.53   15.09
   5  -1 -12   18.21   14.18
   5  -1 -12   19.18   13.46
  -5   1  11   62.17   16.39
  -5   1  11   44.15   18.27
  -5   1  11   55.14   18.86
   5  -1 -11   56.71   19.05
   5  -1 -11   47.02   17.10
   5  -1 -11   64.77   18.21
   5  -1 -11   52.02   15.48
  -5   1  10   42.07   14.70
  -5   1  10   30.50   14.70
  -5   1  10   77.12   19.77
   5  -1 -10   52.15   16.06
   5  -1 -10   44.67   15.80
   5  -1 -10   61.84   15.61
   5  -1 -10   52.48   16.58
   5  -1 -10   50.59   13.92
  -5   1   9    5.53   10.14
  -5   1   9    6.76   11.77
  -5   1   9   18.01   11.97
   5  -1  -9   -1.37    9.95
   5  -1  -9    3.64   11.25
   5  -1  -9    4.94    8.45
   5  -1  -9    3.51   10.99
   5  -1  -9   -1.89    7.93
  -5   1   8   13.14   10.53
  -5   1   8   19.05   12.55
  -5   1   8   12.68   10.08
  -5   1   8    9.10   11.90
   5  -1  -8    5.79   10.01
   5  -1  -8   23.54   13.07
   5  -1  -8   23.61    9.82
   5  -1  -8   16.19   11.64
   5  -1  -8   21.52    9.75
  -5   1   7   31.08   11.84
  -5   1   7   23.35   11.97
  -5   1   7    7.02    9.43
  -5   1   7   25.88   12.62
   5  -1  -7   35.77   13.07
   5  -1  -7   31.15    9.82
   5  -1  -7   24.58   11.77
   5  -1  -7   34.40   10.14
  -5   1   6   26.86   10.66
  -5   1   6   39.28   12.36
  -5   1   6   32.71   10.66
  -5   1   6   34.92   12.88
   5  -1  -6   25.04    9.62
   5  -1  -6   52.02   14.05
   5  -1  -6   36.22   10.92
   5  -1  -6   52.87   13.92
   5  -1  -6   41.36   10.01
  -5   1   5  254.07   20.55
  -5   1   5  284.11   22.57
  -5   1   5  233.32   20.03
  -5   1   5  250.36   22.50
   5  -1  -5  263.56   20.16
   5  -1  -5  292.76   22.70
   5  -1  -5  294.91   21.26
   5  -1  -5  283.53   22.30
   5  -1  -5  277.87   17.69
  -5   1   4   33.36   10.86
  -5   1   4   34.79   11.25
  -5   1   4   21.91    9.30
  -5   1   4   19.31   10.60
   5  -1  -4   18.53    8.97
   5  -1  -4   29.98   11.51
   5  -1  -4   34.73   10.53
   5  -1  -4   27.38   10.79
  -5   1   3  280.28   21.07
  -5   1   3  265.32   20.94
  -5   1   3  224.48   21.33
   5  -1  -3  274.62   19.70
   5  -1  -3  293.02   13.92
   5  -1  -3  291.92   21.46
   5  -1  -3  285.22   20.81
   5  -1  -3  280.86   21.13
  -5   1   2  457.02   24.71
  -5   1   2  455.40   24.45
  -5   1   2  423.47   25.69
   5  -1  -2  493.57   24.58
   5  -1  -2  481.87   18.21
   5  -1  -2  474.26   25.30
   5  -1  -2  447.20   24.58
   5  -1  -2  475.23   26.01
  -5   1   1   72.44   13.59
  -5   1   1   97.54   11.77
  -5   1   1   88.96   14.18
  -5   1   1   69.06   14.57
   5  -1  -1   79.60   13.14
   5  -1  -1  106.26   11.51
   5  -1  -1   93.51   14.89
   5  -1  -1   80.57   14.37
  -5   1   0   69.19   13.66
  -5   1   0   80.90   10.53
  -5   1   0   82.00   13.79
  -5   1   0   65.74   14.89
   5  -1   0   96.50   14.89
   5  -1   0   84.73   11.71
   5  -1   0   76.41   15.02
   5  -1   0   76.93   14.31
  -5   1  -1  229.23   19.83
  -5   1  -1  257.19   15.41
  -5   1  -1  219.80   18.66
  -5   1  -1  237.75   21.52
   5  -1   1  225.13   18.47
   5  -1   1  234.04   17.10
   5  -1   1  165.82   17.95
   5  -1   1  250.69   20.87
  -5   1  -2  119.26   16.65
  -5   1  -2  125.77   14.05
  -5   1  -2  124.73   15.67
  -5   1  -2  102.29   16.91
   5  -1   2  130.77   15.93
   5  -1   2  146.19   16.00
   5  -1   2   98.19   16.84
   5  -1   2  154.57   19.31
  -5   1  -3   11.19   10.01
  -5   1  -3    2.15    8.13
  -5   1  -3    6.50    8.84
  -5   1  -3   -0.65    9.62
   5  -1   3    9.17    8.00
   5  -1   3   22.11   10.27
   5  -1   3   13.66   10.40
   5  -1   3   11.90    9.23
  -5   1  -4  501.05   28.55
  -5   1  -4  567.83   24.65
  -5   1  -4  516.66   25.17
  -5   1  -4  502.15   30.30
   5  -1   4  515.94   27.31
   5  -1   4  537.60   28.48
   5  -1   4  252.25   21.91
   5  -1   4  509.05   29.33
  -5   1  -5  275.01   24.32
  -5   1  -5  277.02   21.39
  -5   1  -5  256.93   20.94
  -5   1  -5  248.67   26.21
   5  -1   5  240.93   21.46
   5  -1   5  261.42   23.41
   5  -1   5  121.99   17.62
   5  -1   5  274.16   24.65
  -5   1  -6  114.39   20.55
  -5   1  -6  148.59   19.70
  -5   1  -6  148.07   18.73
  -5   1  -6  138.58   22.57
   5  -1   6  129.54   19.18
   5  -1   6  115.30   20.03
   5  -1   6   55.40   17.88
   5  -1   6  119.98   20.09
  -5   1  -7   74.07   17.17
  -5   1  -7   75.56   17.04
  -5   1  -7   74.46   14.76
  -5   1  -7   73.48   19.70
   5  -1   7   56.45   15.15
   5  -1   7   96.83   23.67
   5  -1   7   77.84   19.77
  -5   1  -8  486.61   33.69
  -5   1  -8  492.66   32.12
  -5   1  -8  437.39   27.83
  -5   1  -8  455.27   35.96
   5  -1   8  447.07   30.69
   5  -1   8  389.91   32.38
   5  -1   8  186.37   23.02
  -5   1  -9   58.27   19.44
  -5   1  -9   42.14   18.14
  -5   1  -9   38.69   14.96
  -5   1  -9   30.89   18.60
   5  -1   9   41.16   15.22
   5  -1   9   14.76   15.74
  -5   1 -10   12.03   17.04
  -5   1 -10   -1.43   17.43
   5  -1  10   10.86   13.27
   5  -1  10   -2.08   17.23
  -5   1 -11   30.56   19.64
  -5   1 -11   44.41   21.91
   5  -1  11   39.41   17.69
   5  -1  11   17.95   18.34
  -5   1 -12   -8.19   17.04
  -5   1 -12    5.14   22.57
   5  -1  12   -9.36   14.18
   5  -1  12  -20.03   19.38
  -5   0  14    9.69   14.57
  -5   0  14   34.01   19.57
   5   0 -14   45.65   21.85
  -5   0  13  122.77   22.44
  -5   0  13  157.37   27.12
   5   0 -13  154.31   27.77
   5   0 -13  101.32   23.15
   5   0 -13  126.29   22.50
  -5   0  12  102.49   20.48
  -5   0  12  117.25   26.01
  -5   0  12  107.62   23.61
   5   0 -12  129.86   25.36
   5   0 -12  143.39   22.24
   5   0 -12  121.21   24.13
   5   0 -12  136.37   22.30
  -5   0  11    6.63   12.03
  -5   0  11   16.97   15.67
  -5   0  11  -10.73   12.16
   5   0 -11    7.80   14.96
   5   0 -11   21.52   13.59
   5   0 -11    8.58   12.75
   5   0 -11   19.38   13.07
  -5   0  10   71.53   16.78
  -5   0  10   94.03   20.35
  -5   0  10   83.56   19.38
   5   0 -10  116.53   21.85
   5   0 -10   84.54   17.88
   5   0 -10  101.25   20.55
   5   0 -10   68.28   16.32
  -5   0   9  340.49   25.75
  -5   0   9  355.19   29.52
  -5   0   9  334.05   27.77
   5   0  -9  346.47   27.57
   5   0  -9  382.57   27.70
   5   0  -9  366.37   20.42
   5   0  -9  346.47   28.22
   5   0  -9  312.20   23.41
  -5   0   8   45.72   13.27
  -5   0   8   59.37   15.15
  -5   0   8   46.43   13.72
   5   0  -8   60.67   15.28
   5   0  -8   50.27   14.24
   5   0  -8   57.49   11.32
   5   0  -8   44.61   13.98
   5   0  -8   36.16   10.99
  -5   0   7   31.80   11.38
  -5   0   7   31.93   12.55
  -5   0   7   34.79   12.16
  -5   0   7   40.51   13.20
   5   0  -7   36.94   12.68
   5   0  -7   36.68    9.95
   5   0  -7   46.56   13.53
   5   0  -7   46.69   11.90
  -5   0   6  260.38   21.13
  -5   0   6  286.32   23.41
  -5   0   6  255.37   21.91
  -5   0   6  255.11   23.15
   5   0  -6  291.85   21.46
   5   0  -6  272.73   23.15
   5   0  -6  297.25   20.09
   5   0  -6  271.11   22.96
   5   0  -6  259.01   18.92
  -5   0   5  201.53   18.79
  -5   0   5  210.82   20.35
  -5   0   5  193.14   18.99
  -5   0   5  202.83   20.94
   5   0  -5  210.82   18.79
   5   0  -5  219.15   20.42
   5   0  -5  217.72   18.40
   5   0  -5  223.63   20.68
   5   0  -5  219.67   17.30
  -5   0   4   45.85   11.77
  -5   0   4   44.22   11.84
  -5   0   4   26.40    9.88
  -5   0   4   37.72   11.58
   5   0  -4   51.89   11.84
   5   0  -4   58.92   13.27
   5   0  -4   45.07   11.25
   5   0  -4   42.46   11.84
  -5   0   3   80.25   13.33
  -5   0   3  109.70   15.28
  -5   0   3  107.17   15.67
  -5   0   3   93.90   14.96
   5   0  -3   96.11   14.11
   5   0  -3  116.73   16.52
   5   0  -3  120.30   16.58
  -5   0   2   10.21    9.04
  -5   0   2   14.05    8.65
  -5   0   2    6.89    9.23
   5   0  -2    9.75    7.48
   5   0  -2   14.50    9.36
   5   0  -2    7.48    8.39
  -5   0   1  364.29   21.85
  -5   0   1  375.28   18.92
  -5   0   1  364.94   21.07
  -5   0   1  352.98   23.09
   5   0  -1  406.50   22.11
   5   0  -1  400.19   15.74
   5   0  -1  254.59   19.77
   5   0  -1  407.67   23.67
  -5   0   0   60.09   12.10
  -5   0   0   85.38   11.58
  -5   0   0   87.46   12.88
  -5   0   0   60.80   13.07
   5   0   0   94.62   14.57
   5   0   0   94.81   10.92
   5   0   0   51.31   11.84
   5   0   0   75.76   14.50
  -5   0  -1  180.52   18.01
  -5   0  -1  184.55   15.35
  -5   0  -1  188.06   16.52
  -5   0  -1  164.78   18.99
   5   0   1  204.26   17.88
   5   0   1  205.56   14.76
   5   0   1   74.85   13.72
   5   0   1  207.38   19.05
  -5   0  -2   18.73   10.01
  -5   0  -2   18.92    8.65
  -5   0  -2   27.38    9.23
  -5   0  -2   24.32   10.86
   5   0   2   26.08    9.49
   5   0   2   28.74    8.65
   5   0   2    6.76    8.19
   5   0   2   31.67   10.86
  -5   0  -3   25.43   10.79
  -5   0  -3   44.74   10.60
  -5   0  -3   25.82    9.04
  -5   0  -3   20.48   11.12
   5   0   3   21.07    9.62
   5   0   3   23.22    9.23
   5   0   3    7.09    8.39
   5   0   3   22.11   10.66
  -5   0  -4   -1.69    8.65
  -5   0  -4    8.45    9.17
  -5   0  -4    0.72    7.93
  -5   0  -4    9.17   10.21
   5   0   4    2.54    8.13
   5   0   4    0.39    7.48
   5   0   4   -1.56    7.67
   5   0   4    3.58    9.36
  -5   0  -5  198.79   20.74
  -5   0  -5  196.71   19.64
  -5   0  -5  220.12   17.62
  -5   0  -5  182.28   22.70
   5   0   5  222.72   20.03
   5   0   5  117.64   16.84
   5   0   5   38.69   11.97
   5   0   5  238.20   22.24
  -5   0  -6  116.08   18.21
  -5   0  -6  142.35   19.18
  -5   0  -6  132.27   16.00
  -5   0  -6  117.57   19.96
   5   0   6  133.50   18.53
   5   0   6   71.27   15.02
   5   0   6   44.22   11.84
   5   0   6  129.86   20.29
  -5   0  -7   84.86   18.73
  -5   0  -7   59.18   16.32
  -5   0  -7   50.92   12.94
  -5   0  -7   69.45   18.60
   5   0   7   62.95   15.61
   5   0   7   14.63   12.75
   5   0   7   68.61   17.23
  -5   0  -8   36.68   15.48
  -5   0  -8   33.49   16.26
  -5   0  -8   42.53   13.14
  -5   0  -8   33.56   17.17
   5   0   8   34.73   13.92
   5   0   8   60.41   22.83
   5   0   8   63.99   21.91
  -5   0  -9  257.91   28.09
  -5   0  -9  325.34   30.63
  -5   0  -9  254.00   32.51
   5   0   9  249.13   26.08
   5   0   9   78.88   19.44
   5   0   9   46.37   14.24
  -5   0 -10  156.72   25.43
  -5   0 -10  158.28   26.27
   5   0  10  163.61   24.65
   5   0  10   65.74   21.39
  -5   0 -11  -12.75   14.70
  -5   0 -11   -0.72   18.34
   5   0  11  -12.88   11.77
   5   0  11   -9.10   15.22
  -5   0 -12   45.98   21.65
  -5   0 -12   74.98   25.95
   5   0  12   42.92   18.08
   5   0  12   -0.33   16.65
  -5   0 -13   66.52   24.45
  -5   0 -13   68.02   27.64
   5   0  13   59.24   21.13
   5   0  13   27.05   24.26
  -5  -1  14   10.66   14.76
  -5  -1  14    6.63   19.25
   5   1 -14    4.62   18.66
   5   1 -14   -6.37   14.44
  -5  -1  13   60.09   18.08
  -5  -1  13   56.58   21.20
   5   1 -13   77.84   22.76
   5   1 -13   70.49   21.65
   5   1 -13   65.29   19.83
  -5  -1  12  143.91   22.70
  -5  -1  12  155.35   26.92
   5   1 -12  202.18   30.89
   5   1 -12  127.98   24.45
   5   1 -12  163.16   24.58
  -5  -1  11   12.55   11.38
  -5  -1  11   24.71   16.58
   5   1 -11   10.34   14.76
   5   1 -11   20.03   12.94
   5   1 -11   18.08   14.63
   5   1 -11   21.26   13.20
  -5  -1  10    1.43   10.21
  -5  -1  10    3.58   13.66
  -5  -1  10    6.18   12.29
   5   1 -10    8.91   12.42
   5   1 -10   22.11   12.29
   5   1 -10    3.19   12.10
   5   1 -10   11.38   11.38
  -5  -1   9   80.70   15.67
  -5  -1   9  117.38   22.17
  -5  -1   9  105.87   19.96
   5   1  -9  135.98   21.46
   5   1  -9  129.47   20.87
   5   1  -9  135.85   21.91
   5   1  -9  135.91   19.77
  -5  -1   8   46.17   12.62
  -5  -1   8   48.19   15.22
  -5  -1   8   26.53   12.94
   5   1  -8   56.12   14.18
   5   1  -8   49.62   13.72
   5   1  -8   63.86   11.05
   5   1  -8   45.46   14.44
   5   1  -8   53.32   13.79
  -5  -1   7   15.41    9.95
  -5  -1   7   11.84   11.58
  -5  -1   7   -4.88    9.04
   5   1  -7   15.35   10.73
   5   1  -7   21.20    8.39
   5   1  -7   21.33   11.12
   5   1  -7    9.30    8.45
  -5  -1   6    0.72    8.26
  -5  -1   6    2.08    9.23
  -5  -1   6    1.50    8.65
  -5  -1   6    6.11    9.95
   5   1  -6    5.01    8.06
   5   1  -6    3.19    9.56
   5   1  -6   -7.67    6.44
   5   1  -6    3.25    8.52
   5   1  -6    0.72    7.41
  -5  -1   5   88.05   13.72
  -5  -1   5   88.70   15.80
  -5  -1   5   69.39   13.98
  -5  -1   5   89.22   15.28
   5   1  -5   99.49   15.35
   5   1  -5  106.00   16.58
   5   1  -5  106.00   14.44
   5   1  -5   79.53   14.70
   5   1  -5   75.37   14.11
   5   1  -5   83.95   14.05
  -5  -1   4  532.65   24.97
  -5  -1   4  549.69   26.99
  -5  -1   4  508.85   26.53
  -5  -1   4  522.12   26.53
   5   1  -4  590.07   26.86
   5   1  -4  487.65   25.43
   5   1  -4  570.83   27.51
   5   1  -4  506.38   25.82
   5   1  -4  569.39   25.23
  -5  -1   3   86.36   13.27
  -5  -1   3  112.50   15.28
  -5  -1   3   90.52   14.44
  -5  -1   3  106.06   15.02
   5   1  -3  106.58   14.70
   5   1  -3   74.07   14.11
   5   1  -3  113.28   16.13
   5   1  -3   80.57   13.85
  -5  -1   2  145.47   16.13
  -5  -1   2  143.06   16.19
  -5  -1   2  152.95   16.19
  -5  -1   2  146.58   17.43
   5   1  -2  150.22   15.67
   5   1  -2   95.40   15.35
   5   1  -2  157.89   16.97
   5   1  -2  151.06   16.13
  -5  -1   1  216.61   18.01
  -5  -1   1  200.16   16.97
  -5  -1   1  191.12   16.58
  -5  -1   1  191.12   16.97
  -5  -1   1  182.73   18.53
   5   1  -1  217.78   17.43
   5   1  -1   99.04   15.74
   5   1  -1  210.69   18.66
   5   1  -1  199.44   17.36
  -5  -1   0    9.10    8.06
  -5  -1   0   -4.16    7.93
  -5  -1   0   13.20    7.67
  -5  -1   0    0.78    8.78
   5   1   0    1.43    7.02
   5   1   0   13.01    5.27
   5   1   0   -0.78    7.22
   5   1   0   10.40    8.78
   5   1   0    3.19    7.48
  -5  -1  -1  281.64   20.09
  -5  -1  -1  292.44   18.99
  -5  -1  -1  290.88   17.69
  -5  -1  -1  282.23   21.72
   5   1   1  318.19   20.22
   5   1   1  317.54   15.87
   5   1   1   70.23   13.46
   5   1   1  351.35   22.37
   5   1   1  289.12   23.02
  -5  -1  -2  299.13   20.55
  -5  -1  -2  337.37   19.96
  -5  -1  -2  320.66   17.56
  -5  -1  -2  314.42   22.24
   5   1   2  341.21   21.00
   5   1   2  210.95   14.83
   5   1   2   72.64   13.46
   5   1   2  312.53   21.91
  -5  -1  -3  225.46   19.18
  -5  -1  -3  270.85   19.31
  -5  -1  -3  245.61   15.93
  -5  -1  -3  203.48   20.03
   5   1   3  275.33   19.77
   5   1   3   73.16   11.71
   5   1   3   67.96   13.92
   5   1   3  272.99   21.26
  -5  -1  -4   30.37   10.92
  -5  -1  -4   42.98   12.10
  -5  -1  -4   36.03    9.04
  -5  -1  -4   41.23   13.07
   5   1   4   39.60   11.05
   5   1   4   -2.41    5.79
   5   1   4   15.41    8.45
   5   1   4   31.21   11.38
  -5  -1  -5   20.29   10.60
  -5  -1  -5   18.08   10.66
  -5  -1  -5   15.80    8.32
  -5  -1  -5   20.09   11.97
   5   1   5   33.29   11.05
   5   1   5  -11.97    6.70
   5   1   5   19.77    9.62
   5   1   5   31.02   11.51
  -5  -1  -6  137.21   18.73
  -5  -1  -6  172.59   20.35
  -5  -1  -6  133.70   14.37
  -5  -1  -6  124.27   19.31
   5   1   6  106.78   16.26
   5   1   6   -0.72    7.93
   5   1   6   48.77   11.84
   5   1   6  139.36   19.57
  -5  -1  -7    8.97   11.38
  -5  -1  -7   10.60   12.55
  -5  -1  -7    4.62    8.26
  -5  -1  -7    6.37   12.42
   5   1   7   -2.60    8.52
   5   1   7   -6.70    7.54
   5   1   7   10.60    8.78
   5   1   7    1.43    9.82
  -5  -1  -8  122.84   20.68
  -5  -1  -8  113.61   20.16
  -5  -1  -8  120.24   14.96
  -5  -1  -8  110.16   20.94
   5   1   8  136.11   21.33
   5   1   8   -0.26    9.69
   5   1   8   58.79   13.33
   5   1   8  116.14   19.64
  -5  -1  -9   38.50   16.32
  -5  -1  -9   67.44   19.18
   5   1   9   60.09   17.10
   5   1   9    4.49   12.29
   5   1   9   23.61   11.77
   5   1   9   32.32   15.87
  -5  -1 -10  125.51   22.63
  -5  -1 -10  147.68   25.88
   5   1  10   98.00   20.94
   5   1  10   16.78   17.17
   5   1  10   69.45   16.71
  -5  -1 -11   79.92   20.48
  -5  -1 -11   76.15   23.09
   5   1  11   60.93   19.18
   5   1  11   -0.52   16.26
  -5  -1 -12   -6.31   15.61
  -5  -1 -12   22.24   21.26
   5   1  12    4.81   15.09
   5   1  12   -2.54   14.18
  -5  -1 -13   16.32   19.18
  -5  -1 -13   23.54   24.45
   5   1  13   16.84   16.32
   5   1  13   20.48   25.69
  -5  -1 -14   29.13   21.07
  -5  -1 -14   18.60   26.86
   5   1  14   16.00   17.10
   5   1  14  -15.28   19.38
  -5  -2  14   27.51   16.78
  -5  -2  14    5.33   19.51
   5   2 -14   25.62   21.85
   5   2 -14    1.17   17.82
  -5  -2  13  -11.64   12.10
  -5  -2  13   -7.87   16.65
   5   2 -13   17.62   17.82
   5   2 -13    7.54   15.41
   5   2 -13    2.73   14.11
  -5  -2  12   11.12   12.36
  -5  -2  12    7.02   16.52
   5   2 -12    5.92   15.61
   5   2 -12    0.98   14.76
   5   2 -12    2.99   14.05
  -5  -2  11   11.19   12.03
  -5  -2  11   21.07   15.74
   5   2 -11   28.42   16.06
   5   2 -11   21.33   23.54
   5   2 -11    8.32   14.05
   5   2 -11   22.44   14.05
  -5  -2  10   15.93   11.58
  -5  -2  10   11.45   14.11
   5   2 -10   15.54   14.50
   5   2 -10   18.99   11.97
   5   2 -10    8.84   12.68
   5   2 -10   25.82   13.07
  -5  -2   9    1.89    9.75
  -5  -2   9   10.99   12.23
   5   2  -9   10.79   12.42
   5   2  -9   16.52   11.38
   5   2  -9    3.71   11.25
   5   2  -9    1.76    9.23
  -5  -2   8   54.69   13.07
  -5  -2   8   48.58   15.48
  -5  -2   8   37.26   14.50
   5   2  -8   58.27   15.02
   5   2  -8   41.16   13.07
   5   2  -8   43.50   13.79
   5   2  -8   23.54   11.12
  -5  -2   7   16.32    9.82
  -5  -2   7    4.68   10.92
  -5  -2   7   26.92   12.29
   5   2  -7   23.93   11.58
   5   2  -7   22.83    8.26
   5   2  -7   25.56   11.38
   5   2  -7   17.49   10.08
  -5  -2   6    1.69    8.06
  -5  -2   6   -4.36    9.49
  -5  -2   6   -3.25    8.13
   5   2  -6    1.69    7.61
   5   2  -6    2.15    8.58
   5   2  -6  -13.98    6.37
   5   2  -6    5.14    8.65
   5   2  -6    1.17    7.54
  -5  -2   5   76.99   13.07
  -5  -2   5   81.42   15.28
  -5  -2   5   79.27   15.54
  -5  -2   5   92.73   14.83
   5   2  -5   88.76   14.83
   5   2  -5   79.60   14.63
   5   2  -5   85.32   14.89
   5   2  -5   78.56   14.37
   5   2  -5   94.16   15.48
  -5  -2   4  350.51   20.35
  -5  -2   4  350.57   22.83
  -5  -2   4  320.53   22.50
  -5  -2   4  319.03   21.26
   5   2  -4  360.78   21.72
   5   2  -4  238.72   19.83
   5   2  -4  369.89   23.22
   5   2  -4  310.97   21.00
   5   2  -4  360.85   22.04
  -5  -2   3  114.65   14.11
  -5  -2   3  102.49   14.63
  -5  -2   3   91.30   15.09
  -5  -2   3   77.25   13.20
   5   2  -3  107.17   14.83
   5   2  -3   51.70   11.71
   5   2  -3  139.16   16.58
   5   2  -3   96.50   14.44
  -5  -2   2  195.35   16.13
  -5  -2   2  196.26   17.30
  -5  -2   2  183.51   17.62
  -5  -2   2  170.18   16.97
   5   2  -2  180.46   16.06
   5   2  -2   57.62   12.29
   5   2  -2  204.91   17.95
   5   2  -2  172.91   16.45
  -5  -2   1  643.79   25.17
  -5  -2   1  672.27   27.25
  -5  -2   1  649.77   24.78
  -5  -2   1  635.46   26.86
  -5  -2   1  588.97   25.88
   5   2  -1  649.38   25.95
   5   2  -1  161.60   16.58
   5   2  -1  676.69   27.90
   5   2  -1  599.96   25.69
  -5  -2   0  324.23   19.96
  -5  -2   0  334.12   21.07
  -5  -2   0  318.19   18.08
  -5  -2   0  332.62   20.16
  -5  -2   0  302.58   20.61
   5   2   0  329.96   20.03
   5   2   0  294.26   12.23
   5   2   0   84.41   14.05
   5   2   0  333.60   21.65
   5   2   0  297.77   19.57
  -5  -2  -1   45.39   10.99
  -5  -2  -1   62.69   12.23
  -5  -2  -1   57.23   10.21
  -5  -2  -1   55.14   11.38
  -5  -2  -1   35.96   11.38
   5   2   1   64.25   12.42
   5   2   1    1.63    4.29
   5   2   1   25.23    8.91
   5   2   1   68.02   13.20
   5   2   1   50.20   11.84
  -5  -2  -2  665.38   26.40
  -5  -2  -2  684.69   26.86
  -5  -2  -2  637.74   20.94
  -5  -2  -2  619.60   26.99
   5   2   2  708.95   27.64
   5   2   2   -4.49    4.49
   5   2   2  245.35   18.27
   5   2   2  677.67   28.81
   5   2   2  640.34   27.12
  -5  -2  -3  237.10   18.73
  -5  -2  -3  244.96   19.38
  -5  -2  -3  239.24   14.18
  -5  -2  -3  192.23   18.79
   5   2   3  249.26   19.18
   5   2   3   -9.75    4.29
   5   2   3  137.34   15.28
   5   2   3  251.86   20.16
   5   2   3  195.87   18.27
  -5  -2  -4   62.30   12.81
  -5  -2  -4   77.12   13.79
  -5  -2  -4   57.16   13.07
   5   2   4   81.81   14.11
   5   2   4   53.71   12.03
   5   2   4   89.02   14.96
   5   2   4   70.75   14.83
  -5  -2  -5    4.03    8.91
  -5  -2  -5    1.30    9.82
  -5  -2  -5    4.55    9.49
   5   2   5   -0.72    7.28
   5   2   5    4.55    7.80
   5   2   5    3.51    8.91
  -5  -2  -6   92.99   15.87
  -5  -2  -6   91.82   15.87
  -5  -2  -6   80.70   15.80
   5   2   6   71.27   14.31
   5   2   6   88.18   16.45
   5   2   6   70.04   14.96
  -5  -2  -7   13.72   11.64
  -5  -2  -7   23.48   12.62
  -5  -2  -7    8.45   11.97
   5   2   7   22.11   10.73
   5   2   7    6.18    9.30
   5   2   7   22.89   11.25
  -5  -2  -8   76.73   16.71
  -5  -2  -8   77.06   18.47
  -5  -2  -8   79.21   21.00
   5   2   8   51.89   14.83
   5   2   8   72.44   15.35
   5   2   8   57.55   15.61
  -5  -2  -9   13.92   13.07
  -5  -2  -9   16.91   15.41
   5   2   9   17.75   12.49
   5   2   9   37.39   15.02
   5   2   9   14.24   13.07
  -5  -2 -10   45.26   16.84
  -5  -2 -10   49.81   18.73
   5   2  10   49.62   16.91
   5   2  10    1.95   11.32
   5   2  10   17.43   12.16
   5   2  10   25.82   15.15
  -5  -2 -11  105.67   22.11
  -5  -2 -11  114.00   24.97
   5   2  11   94.81   20.68
   5   2  11   -5.72   12.10
   5   2  11   71.99   18.01
  -5  -2 -12   54.88   20.22
  -5  -2 -12   56.77   23.35
   5   2  12   59.18   19.05
   5   2  12   13.27   14.44
  -5  -2 -13    2.80   16.91
  -5  -2 -13  -14.24   20.16
   5   2  13  -10.92   14.96
   5   2  13   14.50   15.67
  -5  -2 -14   -8.91   17.10
  -5  -2 -14   -2.15   22.11
   5   2  14   -5.33   15.61
   5   2  14   -4.16   18.08
  -5  -3  13   51.70   22.24
   5   3 -13   49.10   21.78
   5   3 -13   65.55   21.46
   5   3 -13   39.34   20.03
  -5  -3  12   -2.80   11.05
  -5  -3  12   17.49   17.88
   5   3 -12    3.25   17.30
   5   3 -12    7.61   14.76
   5   3 -12   18.99   16.52
  -5  -3  11   57.62   15.28
  -5  -3  11   66.85   21.20
   5   3 -11   69.19   21.13
   5   3 -11   74.98   20.35
   5   3 -11   84.54   20.87
  -5  -3  10   -0.72    9.82
  -5  -3  10    1.89   14.18
   5   3 -10   -4.42   13.07
   5   3 -10   14.11   18.60
   5   3 -10    9.82   13.14
   5   3 -10    5.66   11.97
  -5  -3   9   -1.17    9.43
  -5  -3   9    0.59   12.23
   5   3  -9    1.63   11.71
   5   3  -9    7.41   10.66
   5   3  -9   -1.50   11.05
   5   3  -9   -3.77    9.30
  -5  -3   8  100.53   15.28
  -5  -3   8  136.82   21.72
   5   3  -8  114.71   19.57
   5   3  -8  124.79   19.38
   5   3  -8  140.14   21.20
   5   3  -8   89.81   17.10
  -5  -3   7  108.40   15.22
  -5  -3   7   93.38   17.36
   5   3  -7  112.89   18.01
   5   3  -7  115.95   17.82
   5   3  -7   91.17   11.84
   5   3  -7   96.18   17.17
   5   3  -7   92.28   16.71
  -5  -3   6    8.52    7.93
  -5  -3   6   15.41   10.21
   5   3  -6   15.35    9.17
   5   3  -6   14.63   10.21
   5   3  -6   12.94   10.08
   5   3  -6    3.12    8.19
  -5  -3   5    6.37    7.54
  -5  -3   5    6.89    9.88
  -5  -3   5   13.33    9.82
   5   3  -5   -2.80    6.76
   5   3  -5    4.49    9.49
   5   3  -5    3.25    8.45
   5   3  -5   -0.52    7.74
  -5  -3   4   83.69   12.29
  -5  -3   4   94.68   15.80
  -5  -3   4   79.79   14.50
  -5  -3   4   34.14    9.04
   5   3  -4   99.43   14.70
   5   3  -4   51.70   12.36
   5   3  -4  102.10   15.15
   5   3  -4   93.77   14.37
   5   3  -4  112.89   16.97
  -5  -3   3   61.00   10.79
  -5  -3   3   66.00   12.68
  -5  -3   3   61.45   12.68
  -5  -3   3   14.57    6.50
   5   3  -3   71.79   12.23
   5   3  -3   20.48    9.88
   5   3  -3   72.64   13.01
   5   3  -3   61.65   11.58
  -5  -3   2   27.44    8.45
  -5  -3   2   26.21    9.56
  -5  -3   2   35.12   10.66
  -5  -3   2    5.07    5.27
   5   3  -2   38.89    9.95
   5   3  -2    1.04    6.70
   5   3  -2   43.70   10.99
   5   3  -2   33.62    9.30
  -5  -3   1    2.34    6.44
  -5  -3   1   10.21    9.30
  -5  -3   1    2.99    7.22
  -5  -3   1    5.85    7.67
  -5  -3   1   -0.52    3.58
   5   3  -1    8.84    7.02
   5   3  -1   -2.41    6.24
   5   3  -1    8.06    8.26
   5   3  -1    9.82    7.35
  -5  -3   0  142.28   14.24
  -5  -3   0  140.20   16.91
  -5  -3   0  126.22   13.46
  -5  -3   0  134.68   15.35
  -5  -3   0    1.89    3.71
   5   3   0  144.62   14.44
   5   3   0   28.74    9.10
   5   3   0  157.18   15.87
   5   3   0  129.28   14.11
  -5  -3  -1  222.92   16.45
  -5  -3  -1  222.66   18.86
  -5  -3  -1  232.67   14.76
  -5  -3  -1  195.02   16.52
  -5  -3  -1   38.17    8.84
   5   3   1  258.23   17.69
   5   3   1   92.99   14.70
   5   3   1  260.31   18.86
   5   3   1  232.09   17.30
  -5  -3  -2   -0.78    6.50
  -5  -3  -2   11.12    9.30
  -5  -3  -2    4.29    5.72
  -5  -3  -2   11.19    7.41
  -5  -3  -2   -2.21    7.28
   5   3   2    4.68    7.15
   5   3   2    5.27    7.41
   5   3   2    6.70    8.06
   5   3   2    4.75    7.35
  -5  -3  -3   23.09    9.17
  -5  -3  -3    9.10    9.49
  -5  -3  -3    6.96    6.83
  -5  -3  -3   13.40    8.52
   5   3   3    8.52    7.48
   5   3   3    3.06    7.22
   5   3   3   18.60    9.56
   5   3   3    5.59    7.54
  -5  -3  -4   31.08    9.88
  -5  -3  -4   38.24   11.64
  -5  -3  -4   43.05    9.56
  -5  -3  -4   46.50   12.03
   5   3   4   32.25   10.08
   5   3   4   29.46   10.21
   5   3   4   37.59   11.58
   5   3   4   36.42   10.73
  -5  -3  -5   28.29   10.27
  -5  -3  -5   39.99   12.81
  -5  -3  -5   22.63   10.14
   5   3   5   38.24   11.19
   5   3   5   32.12   11.12
   5   3   5   42.79   12.10
  -5  -3  -6    5.92    9.23
  -5  -3  -6   -2.54    9.69
  -5  -3  -6   -7.54    8.13
   5   3   6   -2.80    8.26
   5   3   6    3.32    9.56
   5   3   6    4.49    9.10
   5   3   6    0.59    8.52
  -5  -3  -7    9.69   10.60
  -5  -3  -7   18.99   12.36
  -5  -3  -7   11.38   10.92
   5   3   7   19.83   11.32
   5   3   7   15.93    9.69
   5   3   7   18.14   10.86
  -5  -3  -8  218.95   22.24
  -5  -3  -8  251.01   26.92
   5   3   8  239.50   22.63
   5   3   8  191.97   20.55
   5   3   8  246.59   24.06
  -5  -3  -9   20.81   12.81
  -5  -3  -9   37.59   17.30
   5   3   9   43.11   14.31
   5   3   9   28.81   12.81
   5   3   9   20.03   13.14
  -5  -3 -10   37.85   15.74
  -5  -3 -10   41.55   18.66
   5   3  10   43.50   15.15
   5   3  10   49.55   15.15
   5   3  10   45.13   16.45
  -5  -3 -11   90.39   20.22
  -5  -3 -11   82.85   22.44
   5   3  11   70.10   18.92
   5   3  11   74.20   17.10
   5   3  11   77.12   20.16
  -5  -3 -12   44.41   17.04
  -5  -3 -12   55.86   23.22
   5   3  12   53.26   19.51
   5   3  12   61.97   24.71
  -5  -3 -13   22.37   17.23
  -5  -3 -13   18.60   21.91
   5   3  13   25.36   17.82
  -5  -3 -14    3.38   17.10
  -5  -3 -14  -13.98   21.59
   5   3  14   -2.93   15.61
   5   3  14   29.07   23.35
  -5  -3 -15  -16.26   16.58
  -5  -3 -15    5.20   24.65
   5   3  15    0.52   17.75
   5   3  15   10.21   18.66
  -5  -4  12    8.26   18.60
   5   4 -12    9.56   17.95
   5   4 -12    6.76   14.89
   5   4 -12   18.73   18.14
  -5  -4  11   84.15   23.67
   5   4 -11  124.47   24.26
   5   4 -11   97.93   22.44
   5   4 -11   85.06   23.48
  -5  -4  10   30.56   14.24
  -5  -4  10   30.89   17.30
   5   4 -10   38.30   16.58
   5   4 -10   30.69   15.02
   5   4 -10   21.20   15.48
  -5  -4   9   12.75    9.69
  -5  -4   9    7.22   14.63
   5   4  -9    4.62   12.75
   5   4  -9   25.04   15.15
   5   4  -9    0.78   10.92
   5   4  -9    3.38   11.12
  -5  -4   8   25.62   10.86
  -5  -4   8    4.55   13.20
   5   4  -8   31.08   13.40
   5   4  -8   21.85   12.23
   5   4  -8    9.69   12.03
   5   4  -8   10.66   11.71
  -5  -4   7   72.12   13.01
  -5  -4   7   57.29   16.06
   5   4  -7  106.84   18.14
   5   4  -7   85.90   16.06
   5   4  -7   80.83   16.19
   5   4  -7   79.53   16.71
  -5  -4   6  126.94   14.18
  -5  -4   6  113.67   19.12
   5   4  -6  116.92   17.56
   5   4  -6  116.60   17.62
   5   4  -6  114.39   18.53
  -5  -4   5   47.93   10.01
  -5  -4   5   49.10   13.59
   5   4  -5   56.38   13.07
   5   4  -5   41.29   12.10
   5   4  -5   49.81   12.88
   5   4  -5   49.62   13.20
  -5  -4   4   57.23   10.08
  -5  -4   4   77.45   15.15
   5   4  -4   64.44   12.55
   5   4  -4   21.85   11.19
   5   4  -4   65.81   13.27
   5   4  -4   68.80   12.75
   5   4  -4   56.84   13.33
  -5  -4   3  185.07   13.98
  -5  -4   3  199.90   19.38
  -5  -4   3  199.70   17.43
   5   4  -3  218.24   17.36
   5   4  -3   39.08   10.73
   5   4  -3  229.94   18.53
   5   4  -3  209.26   17.36
   5   4  -3  239.05   20.61
  -5  -4   2  275.92   15.48
  -5  -4   2  293.15   21.26
  -5  -4   2  274.03   18.27
   5   4  -2  283.85   18.27
   5   4  -2   56.25   12.03
   5   4  -2  294.45   19.77
   5   4  -2  293.35   18.73
  -5  -4   1   85.77   11.12
  -5  -4   1  100.73   16.26
  -5  -4   1   96.70   13.46
  -5  -4   1  100.21   15.41
  -5  -4   1   81.74   12.42
   5   4  -1   97.74   13.27
   5   4  -1   28.22    9.82
   5   4  -1  103.79   14.57
   5   4  -1   83.37   12.55
  -5  -4   0   23.80    7.35
  -5  -4   0   36.48   11.19
  -5  -4   0   29.98    8.65
  -5  -4   0   24.13    8.97
  -5  -4   0   36.16    9.56
   5   4   0   28.22    9.10
   5   4   0   17.10    8.39
   5   4   0   38.04   10.40
   5   4   0   36.74    9.17
  -5  -4  -1  149.83   13.27
  -5  -4  -1  149.31   17.69
  -5  -4  -1  133.44   12.55
  -5  -4  -1  143.19   15.28
  -5  -4  -1  144.88   14.83
   5   4   1  174.21   15.28
   5   4   1  130.84   15.74
   5   4   1  147.62   15.48
   5   4   1  142.48   14.44
  -5  -4  -2    4.81    6.83
  -5  -4  -2    9.23    8.84
  -5  -4  -2    7.15    5.46
  -5  -4  -2   13.07    7.61
  -5  -4  -2   -0.65    7.09
   5   4   2   10.79    7.54
   5   4   2   -3.38    7.74
   5   4   2    1.89    7.67
   5   4   2    4.36    7.22
  -5  -4  -3   66.78   10.92
  -5  -4  -3   78.95   14.11
  -5  -4  -3   85.51   12.42
  -5  -4  -3   39.93    8.91
   5   4   3  105.74   14.70
   5   4   3  105.48   16.84
   5   4   3   94.10   14.37
   5   4   3   91.04   13.66
  -5  -4  -4    7.28    7.61
  -5  -4  -4    0.52    8.97
  -5  -4  -4    5.14    6.24
  -5  -4  -4   -0.26    3.90
   5   4   4   10.79    7.93
   5   4   4    7.15    8.06
   5   4   4   11.90    8.58
   5   4   4    5.33    7.35
  -5  -4  -5  129.73   15.41
  -5  -4  -5  141.18   19.31
  -5  -4  -5  127.65   12.81
  -5  -4  -5  111.59   15.54
   5   4   5  149.89   16.71
   5   4   5  149.96   19.83
   5   4   5  141.89   17.36
  -5  -4  -6   55.60   12.36
  -5  -4  -6   65.16   15.48
  -5  -4  -6   60.54    9.75
  -5  -4  -6   56.84   13.20
   5   4   6   66.91   13.72
   5   4   6   83.56   16.58
   5   4   6   81.16   14.76
   5   4   6   54.10   13.01
  -5  -4  -7   10.66    9.30
  -5  -4  -7   11.71   12.16
  -5  -4  -7    6.37    6.18
   5   4   7    9.75    9.75
   5   4   7    5.53   10.47
   5   4   7    8.19   10.08
  -5  -4  -8    0.72   10.14
  -5  -4  -8    0.78   12.23
  -5  -4  -8    3.12    6.05
   5   4   8   -5.27    9.23
   5   4   8    0.98    9.95
   5   4   8    7.54   10.34
  -5  -4  -9  211.34   22.57
  -5  -4  -9  222.59   27.77
   5   4   9  217.59   23.80
   5   4   9  224.81   22.96
   5   4   9  190.93   23.54
  -5  -4 -10  130.25   20.22
  -5  -4 -10  178.05   26.14
   5   4  10  148.40   22.89
   5   4  10  160.43   22.96
   5   4  10  124.21   21.39
  -5  -4 -11    6.57   13.01
  -5  -4 -11   11.32   16.52
   5   4  11   11.90   13.53
   5   4  11    9.88   13.53
   5   4  11   -2.80   12.36
  -5  -4 -12  127.52   23.41
  -5  -4 -12  204.13   30.95
   5   4  12  137.80   23.74
   5   4  12  130.90   23.15
   5   4  12  124.27   23.41
  -5  -4 -13   33.49   17.62
  -5  -4 -13   53.13   23.80
   5   4  13   75.76   21.26
  -5  -4 -14    7.54   16.91
  -5  -4 -14   24.65   25.10
   5   4  14   15.09   17.04
  -5  -4 -15   13.33   19.64
  -5  -4 -15   34.21   26.73
   5   4  15   18.73   18.86
  -5  -5  12   48.12   23.74
   5   5 -12   37.07   20.29
   5   5 -12   24.84   17.62
   5   5 -12   21.78   19.05
  -5  -5  11   42.01   21.72
   5   5 -11   49.29   20.61
   5   5 -11   26.27   15.02
   5   5 -11   55.40   21.65
  -5  -5  10    0.07   16.45
   5   5 -10   12.23   15.87
   5   5 -10   10.27   12.68
   5   5 -10   -0.72   14.57
  -5  -5   9  155.48   26.86
   5   5  -9  202.50   27.90
   5   5  -9  168.62   24.06
   5   5  -9  146.06   24.13
  -5  -5   8  107.36   22.37
   5   5  -8   91.11   18.79
   5   5  -8   71.40   19.83
   5   5  -8   66.59   16.26
   5   5  -8   94.16   20.35
  -5  -5   7   -8.19   11.45
   5   5  -7    6.37   10.66
   5   5  -7    7.48   10.27
   5   5  -7   -9.43    9.04
   5   5  -7   14.89   11.12
  -5  -5   6   11.97   12.29
   5   5  -6    2.86    9.88
   5   5  -6   15.87   10.86
   5   5  -6    6.70   10.86
  -5  -5   5  167.19   22.24
   5   5  -5  169.34   17.69
   5   5  -5   92.28   15.74
   5   5  -5  193.72   19.18
   5   5  -5  191.97   21.39
  -5  -5   4  191.97   21.52
   5   5  -4  180.85   17.30
   5   5  -4   53.91   12.42
   5   5  -4  200.03   18.60
   5   5  -4  198.73   21.13
  -5  -5   3   -4.42    8.19
   5   5  -3    5.92    7.22
   5   5  -3   -6.50    7.61
   5   5  -3   -0.07    6.83
   5   5  -3    2.54    7.02
   5   5  -3   -2.60    7.54
  -5  -5   2  474.71   26.66
  -5  -5   2  451.50   24.52
   5   5  -2  523.61   22.70
   5   5  -2  183.58   17.36
   5   5  -2  529.08   24.00
   5   5  -2  492.34   22.63
  -5  -5   1  591.83   30.11
  -5  -5   1  537.53   27.05
  -5  -5   1  480.11   21.13
   5   5  -1  587.86   23.48
   5   5  -1  288.47   20.16
   5   5  -1  550.99   23.93
   5   5  -1  501.96   22.44
  -5  -5   0  164.52   19.25
  -5  -5   0  157.96   16.78
  -5  -5   0  156.00   14.70
   5   5   0  184.36   15.35
   5   5   0  145.14   16.45
   5   5   0  170.18   15.74
   5   5   0  159.19   14.70
  -5  -5  -1   94.42   16.26
  -5  -5  -1  100.67   14.50
  -5  -5  -1   98.19   12.62
   5   5   1  115.62   13.59
   5   5   1   93.97   15.87
   5   5   1  108.53   14.05
   5   5   1  104.24   13.40
  -5  -5  -2  311.75   15.09
  -5  -5  -2  365.66   24.19
  -5  -5  -2  328.07   19.38
  -5  -5  -2  320.85   18.60
   5   5   2  380.81   20.09
   5   5   2  350.38   22.70
   5   5   2  371.58   20.55
   5   5   2  320.01   18.66
  -5  -5  -3   -4.81    5.79
  -5  -5  -3    4.23    9.04
  -5  -5  -3    1.76    6.63
  -5  -5  -3  -12.29    7.15
   5   5   3    6.76    7.22
   5   5   3    1.43    7.93
   5   5   3    0.78    7.41
   5   5   3   -2.80    6.70
  -5  -5  -4   93.45   11.84
  -5  -5  -4   78.23   15.35
  -5  -5  -4  106.19   12.62
  -5  -5  -4   65.81   11.58
   5   5   4  107.82   14.76
   5   5   4  113.54   17.95
   5   5   4  112.63   15.41
   5   5   4   82.78   13.07
  -5  -5  -5  324.50   18.73
  -5  -5  -5  323.91   25.23
  -5  -5  -5  294.13   16.65
  -5  -5  -5  287.17   19.70
   5   5   5  380.03   22.24
   5   5   5  325.34   23.67
   5   5   5  358.44   22.17
  -5  -5  -6  441.42   22.30
  -5  -5  -6  448.51   28.55
  -5  -5  -6  370.73   16.97
   5   5   6  494.48   25.82
   5   5   6  455.98   27.77
   5   5   6  408.64   24.52
   5   5   6  458.65   25.56
  -5  -5  -7   12.55    9.10
  -5  -5  -7   -2.67   10.34
  -5  -5  -7   -1.04    5.66
   5   5   7    5.14    9.17
   5   5   7    8.32   11.45
   5   5   7   -0.72    8.65
  -5  -5  -8   27.25   11.05
  -5  -5  -8   29.33   14.83
   5   5   8   19.25   11.84
   5   5   8   17.17   12.16
   5   5   8   12.75   11.19
  -5  -5  -9  501.63   28.16
  -5  -5  -9  507.68   34.01
   5   5   9  492.47   30.11
   5   5   9  508.27   31.15
   5   5   9  475.95   30.50
  -5  -5 -10   30.63   14.05
  -5  -5 -10   46.95   19.31
   5   5  10   53.13   17.10
   5   5  10   99.23   20.55
   5   5  10   50.01   16.19
  -5  -5 -11  127.85   21.26
  -5  -5 -11  176.29   27.83
   5   5  11  161.60   24.84
   5   5  11  131.49   22.44
   5   5  11  133.76   22.89
  -5  -5 -12  293.02   28.35
  -5  -5 -12  318.45   36.29
   5   5  12  283.40   30.24
   5   5  12  280.73   28.35
   5   5  12  295.49   30.63
  -5  -5 -13   48.71   18.01
  -5  -5 -13   44.02   23.28
   5   5  13   53.58   19.38
   5   5  13   31.28   17.04
   5   5  13   52.48   18.53
  -5  -5 -14    2.08   15.02
  -5  -5 -14   -8.32   22.04
   5   5  14   -2.73   16.58
  -5  -5 -15   46.69   20.22
  -5  -5 -15   44.41   26.92
   5   5  15   39.47   21.78
  -5  -6  11   21.65   19.70
   5   6 -11   37.33   19.51
   5   6 -11   14.70   15.93
   5   6 -11    6.89   16.97
  -5  -6  10   -4.10   17.36
   5   6 -10   19.83   16.78
   5   6 -10   13.92   13.79
   5   6 -10   -2.15   14.63
  -5  -6   9  -14.37   15.35
   5   6  -9    7.28   13.59
   5   6  -9    2.28   11.12
   5   6  -9    9.49   13.20
  -5  -6   8   31.15   18.53
   5   6  -8   49.55   16.13
   5   6  -8   17.43   12.16
   5   6  -8   28.29   14.05
  -5  -6   7   46.24   17.75
   5   6  -7   12.55   11.77
   5   6  -7   23.09   15.67
   5   6  -7    7.67   10.99
   5   6  -7    1.11   11.38
  -5  -6   6   10.08   13.59
   5   6  -6   32.97   12.75
   5   6  -6    7.48   10.53
   5   6  -6   29.78   11.97
   5   6  -6   14.57   11.97
  -5  -6   5  318.64   28.55
   5   6  -5   70.75   13.92
   5   6  -5  336.20   22.76
   5   6  -5  375.02   28.42
  -5  -6   4  396.81   29.26
   5   6  -4  445.58   23.61
   5   6  -4   79.27   14.44
   5   6  -4  430.62   23.74
   5   6  -4  431.53   28.87
  -5  -6   3   12.42   11.84
   5   6  -3   18.73    9.04
   5   6  -3    7.67    8.39
   5   6  -3   10.27    8.32
   5   6  -3   30.63    9.75
   5   6  -3   27.90   12.42
  -5  -6   2  166.08   20.81
   5   6  -2  239.89   16.71
   5   6  -2   90.07   15.02
   5   6  -2  208.61   16.97
   5   6  -2  182.08   15.93
   5   6  -2  193.07   20.29
  -5  -6   1  414.76   27.90
  -5  -6   1  373.14   24.71
   5   6  -1  416.32   19.96
   5   6  -1  326.77   23.61
   5   6  -1  405.00   20.87
   5   6  -1  343.22   19.38
  -5  -6   0  266.10   23.67
  -5  -6   0  261.94   20.81
   5   6   0  292.89   17.36
   5   6   0  270.85   20.87
   5   6   0  258.82   17.62
   5   6   0  240.02   16.52
  -5  -6  -1  -11.32    9.95
  -5  -6  -1   10.99    9.30
   5   6   1   13.53    7.48
   5   6   1   13.46    9.36
   5   6   1    5.27    7.09
   5   6   1    8.58    6.76
  -5  -6  -2  679.36   32.06
  -5  -6  -2  638.26   26.60
   5   6   2  795.76   26.14
   5   6   2  687.36   30.63
   5   6   2  737.04   26.08
   5   6   2  616.93   23.67
  -5  -6  -3  134.81   18.66
  -5  -6  -3  130.45   14.70
   5   6   3  144.30   15.35
   5   6   3  159.97   18.86
   5   6   3  128.11   15.61
   5   6   3  126.16   14.76
  -5  -6  -4   71.34   15.09
  -5  -6  -4   80.96   12.10
  -5  -6  -4   74.59   12.23
   5   6   4  103.66   14.37
   5   6   4   88.96   16.58
   5   6   4   92.73   13.92
   5   6   4   74.91   12.55
  -5  -6  -5   52.93    9.75
  -5  -6  -5   49.03   13.85
  -5  -6  -5   37.91    9.36
   5   6   5   53.26   11.71
   5   6   5   68.35   15.61
   5   6   5   54.30   11.45
  -5  -6  -6  760.25   25.43
  -5  -6  -6  818.46   36.61
  -5  -6  -6  706.35   22.11
   5   6   6  791.21   30.56
   5   6   6  809.22   35.51
   5   6   6  692.23   32.25
   5   6   6  802.78   31.28
  -5  -6  -7  309.54   19.77
  -5  -6  -7  291.53   26.27
   5   6   7  327.94   22.89
   5   6   7  301.28   24.97
   5   6   7  331.26   23.74
  -5  -6  -8   44.94   11.97
  -5  -6  -8   25.23   13.92
   5   6   8   13.20   10.99
   5   6   8   36.03   14.11
   5   6   8   23.93   12.16
  -5  -6  -9   90.78   15.87
  -5  -6  -9   99.49   20.81
   5   6   9   95.92   18.21
   5   6   9   96.11   19.77
   5   6   9  115.62   19.25
  -5  -6 -10  203.02   22.17
  -5  -6 -10  242.69   30.69
   5   6  10  226.43   25.10
   5   6  10  286.32   28.35
   5   6  10  215.83   24.91
  -5  -6 -11  157.37   21.72
  -5  -6 -11  230.79   31.02
   5   6  11  176.29   24.58
   5   6  11  179.55   25.04
   5   6  11  185.53   25.56
  -5  -6 -12   -2.28   12.29
  -5  -6 -12   -2.28   18.34
   5   6  12   -0.46   13.27
   5   6  12   -1.89   13.98
   5   6  12    0.33   13.40
  -5  -6 -13  150.61   23.15
  -5  -6 -13  174.15   30.69
   5   6  13  149.37   26.34
   5   6  13  176.88   27.12
   5   6  13  152.49   26.47
  -5  -6 -14  104.50   22.44
  -5  -6 -14  122.45   28.74
   5   6  14   85.84   23.02
   5   6  14   97.67   23.48
   5   6  14  120.63   25.17
  -5  -6 -15   34.79   18.08
  -5  -6 -15   48.71   26.53
   5   6  15   27.64   19.96
  -5  -7  10   -2.60   17.49
   5   7 -10    4.36   13.66
   5   7 -10   14.24   16.97
  -5  -7   9   -9.88   15.67
   5   7  -9   10.40   15.48
   5   7  -9   -0.85   12.10
   5   7  -9   -8.65   14.57
  -5  -7   8  116.53   25.56
   5   7  -8  148.98   23.35
   5   7  -8  138.51   21.33
   5   7  -8  122.32   24.00
  -5  -7   7   90.46   21.85
   5   7  -7   80.51   18.27
   5   7  -7   86.29   17.17
   5   7  -7   67.24   17.43
  -5  -7   6   44.94   17.88
   5   7  -6   28.74   12.75
   5   7  -6   13.20   17.36
   5   7  -6   33.42   12.29
   5   7  -6   20.61   12.23
  -5  -7   5   25.56   15.15
   5   7  -5    6.44    9.62
   5   7  -5   50.01   13.07
   5   7  -5   57.55   15.80
  -5  -7   4  136.30   22.04
   5   7  -4  158.09   16.91
   5   7  -4   29.59   12.62
   5   7  -4  157.50   17.04
   5   7  -4  155.35   21.85
  -5  -7   3  223.63   24.71
   5   7  -3  219.41   18.01
   5   7  -3   84.93   14.96
   5   7  -3  235.41   18.53
   5   7  -3  224.55   23.80
  -5  -7   2   31.21   12.94
   5   7  -2   38.63    9.88
   5   7  -2   12.29    8.97
   5   7  -2   44.48   10.14
   5   7  -2   38.04   10.01
   5   7  -2   34.73   13.07
  -5  -7   1  151.06   22.24
  -5  -7   1  136.37   19.77
   5   7  -1  157.63   14.44
   5   7  -1  141.31   19.38
   5   7  -1  150.28   14.70
   5   7  -1  118.09   13.92
  -5  -7   0  189.49   23.09
  -5  -7   0  162.70   19.57
   5   7   0  176.10   14.63
   5   7   0  192.55   19.44
   5   7   0  165.30   15.15
   5   7   0  140.98   13.98
  -5  -7  -1   91.82   17.23
  -5  -7  -1   78.62   14.76
   5   7   1   92.08   12.36
   5   7   1  100.93   17.30
   5   7   1   73.22   11.32
  -5  -7  -2   96.63   17.10
  -5  -7  -2   82.20   14.70
   5   7   2  108.92   13.20
   5   7   2  101.97   17.88
   5   7   2   91.11   13.07
   5   7   2  100.47   13.14
  -5  -7  -3  248.74   23.93
  -5  -7  -3  246.79   18.92
   5   7   3  225.85   16.58
   5   7   3  268.44   24.00
   5   7   3  224.48   16.97
   5   7   3  194.76   15.93
  -5  -7  -4  232.74   23.35
  -5  -7  -4  208.87   16.97
   5   7   4  234.23   17.30
   5   7   4  212.45   22.70
   5   7   4  246.00   18.21
   5   7   4  195.74   16.19
  -5  -7  -5   10.92   11.51
  -5  -7  -5   16.13    8.19
   5   7   5   13.85    9.10
   5   7   5   13.53   10.73
   5   7   5    6.50    8.06
  -5  -7  -6   62.04   16.06
  -5  -7  -6   67.37   10.73
   5   7   6   70.75   13.40
   5   7   6   59.50   15.09
   5   7   6   56.38   19.38
   5   7   6   57.36   12.88
  -5  -7  -7  297.12   27.12
  -5  -7  -7  286.45   15.41
   5   7   7  320.27   22.70
   5   7   7  290.48   25.56
   5   7   7  304.60   22.57
  -5  -7  -8  107.49   14.63
  -5  -7  -8  109.38   20.22
   5   7   8  111.98   17.69
   5   7   8  103.79   19.57
   5   7   8  105.87   17.17
  -5  -7  -9   -1.50    9.36
  -5  -7  -9  -12.68   12.23
   5   7   9   -8.26    9.43
   5   7   9    0.91   11.51
   5   7   9   -6.44   10.40
  -5  -7 -10   81.16   15.28
  -5  -7 -10   87.33   21.46
   5   7  10   93.32   18.34
   5   7  10   72.57   17.56
   5   7  10   77.71   17.95
  -5  -7 -11   87.79   16.97
  -5  -7 -11  113.15   25.30
   5   7  11   75.82   18.79
   5   7  11  106.78   20.87
   5   7  11   60.61   17.30
  -5  -7 -12   67.89   16.84
  -5  -7 -12   63.14   22.57
   5   7  12   44.94   16.91
   5   7  12   63.73   20.09
   5   7  12   46.56   18.21
  -5  -7 -13   10.34   14.18
  -5  -7 -13   -2.80   20.48
   5   7  13   -7.67   13.46
   5   7  13    4.36   15.09
   5   7  13   -1.82   14.05
  -5  -7 -14    4.36   15.09
  -5  -7 -14   16.84   22.24
   5   7  14   27.38   18.14
   5   7  14   14.89   16.39
   5   7  14   16.97   17.82
  -5  -7 -15   24.52   17.82
  -5  -7 -15   35.38   24.84
   5   7  15    2.67   16.32
   5   7  15    2.34   16.39
   5   7  15   10.73   17.62
  -5  -8   9   -6.57   17.82
   5   8  -9    2.08   12.42
   5   8  -9  -11.77   15.74
  -5  -8   8   67.37   23.67
   5   8  -8   16.52   13.20
   5   8  -8   35.70   18.08
  -5  -8   7   29.26   19.12
   5   8  -7   32.84   13.40
   5   8  -7   46.50   18.08
  -5  -8   6    3.32   14.44
   5   8  -6    4.29    9.62
   5   8  -6    0.26   11.84
  -5  -8   5   25.88   15.74
   5   8  -5   -5.85    8.58
   5   8  -5    4.03   11.58
  -5  -8   4   28.81   15.22
   5   8  -4    9.69    9.62
   5   8  -4   19.70   10.08
   5   8  -4   21.39   12.81
  -5  -8   3   51.31   16.52
   5   8  -3   24.71    9.43
   5   8  -3   22.63   10.53
   5   8  -3   22.57   12.29
  -5  -8   2   93.97   18.79
   5   8  -2   86.03   12.75
   5   8  -2   83.17   15.93
   5   8  -2   94.10   18.92
  -5  -8   1   74.46   17.04
   5   8  -1   82.26   16.00
   5   8  -1   79.99   17.62
  -5  -8   0  266.55   26.53
  -5  -8   0  242.49   23.15
   5   8   0  250.36   21.98
  -5  -8  -1  123.75   19.44
  -5  -8  -1  138.45   19.57
   5   8   1  150.35   20.55
  -5  -8  -2    3.84   10.86
  -5  -8  -2    5.53    9.30
   5   8   2    7.61   10.01
  -5  -8  -3  193.79   23.02
  -5  -8  -3  150.28   17.69
   5   8   3  210.24   15.67
   5   8   3  185.33   20.94
  -5  -8  -4  271.95   25.56
  -5  -8  -4  259.79   19.25
   5   8   4  288.73   18.34
   5   8   4  250.10   23.15
   5   8   4  255.56   17.62
  -5  -8  -5    7.93   11.45
  -5  -8  -5    6.57    8.39
   5   8   5    8.45    8.32
   5   8   5    5.33   10.92
   5   8   5   11.58    8.32
   5   8   5   10.34    8.00
  -5  -8  -6   24.00   14.57
  -5  -8  -6   21.78    8.45
   5   8   6   31.08   11.19
   5   8   6   35.83   14.57
   5   8   6   15.67    8.91
  -5  -8  -7  126.94   21.52
   5   8   7  140.85   18.14
   5   8   7  140.66   21.46
   5   8   7  119.33   17.30
  -5  -8  -8   38.95   16.32
   5   8   8   48.77   13.46
   5   8   8   28.55   14.05
   5   8   8   34.27   12.62
  -5  -8  -9   33.03   16.84
   5   8   9   20.48   12.29
   5   8   9   18.08   13.79
   5   8   9   34.79   13.85
  -5  -8 -10   18.14   10.86
  -5  -8 -10    5.07   15.28
   5   8  10    9.88   12.36
   5   8  10   13.27   12.94
   5   8  10   11.32   12.55
  -5  -8 -11   12.03   12.23
  -5  -8 -11   16.13   18.86
   5   8  11   22.89   14.57
   5   8  11   13.07   13.98
   5   8  11   26.79   14.24
  -5  -8 -12   38.04   14.37
  -5  -8 -12   33.88   19.83
   5   8  12   34.21   16.71
   5   8  12   38.37   17.17
   5   8  12   34.86   17.30
  -5  -8 -13   24.58   14.37
  -5  -8 -13   27.38   20.35
   5   8  13   16.19   16.32
   5   8  13    9.10   14.11
   5   8  13    5.14   14.31
  -5  -8 -14  -14.05   12.94
  -5  -8 -14    5.20   21.39
   5   8  14   16.71   17.23
   5   8  14    8.26   15.67
   5   8  14   10.47   16.32
  -5  -8 -15   24.39   16.91
  -5  -8 -15   13.72   22.89
   5   8  15   14.50   18.99
   5   8  15   -6.57   14.89
   5   8  15   13.85   18.21
  -5  -9   8  -18.66   16.00
   5   9  -8    0.65   11.90
   5   9  -8   -1.11   17.17
  -5  -9   7   19.38   18.60
   5   9  -7    2.99   11.38
   5   9  -7   12.55   14.96
  -5  -9   6  112.05   25.43
   5   9  -6   97.35   17.04
   5   9  -6  126.16   25.04
  -5  -9   5   92.34   23.02
   5   9  -5   75.24   14.76
   5   9  -5   65.03   17.30
  -5  -9   4    6.70   14.37
   5   9  -4   10.73   12.55
  -5  -9   3   71.60   19.12
   5   9  -3   67.83   14.57
   5   9  -3   99.95   21.78
  -5  -9   2  240.74   29.13
   5   9  -2  198.34   21.13
   5   9  -2  237.10   26.60
  -5  -9   1   63.40   17.30
   5   9  -1   76.15   16.26
   5   9  -1   54.62   16.97
  -5  -9   0   31.54   15.93
  -5  -9   0   13.27   11.90
   5   9   0   16.26   11.32
   5   9   0    7.54   10.79
  -5  -9  -1   43.70   15.93
  -5  -9  -1   43.89   14.24
   5   9   1   51.89   15.28
  -5  -9  -2  216.35   25.43
  -5  -9  -2  258.43   23.09
   5   9   2  245.29   23.48
  -5  -9  -3  110.81   20.74
  -5  -9  -3  114.84   18.14
   5   9   3   88.18   18.27
  -5  -9  -4  154.12   23.02
  -5  -9  -4  183.38   18.99
   5   9   4  166.80   23.28
  -5  -9  -5   19.77   14.44
  -5  -9  -5   20.35   10.01
   5   9   5   16.65    9.04
   5   9   5   32.06   13.98
  -5  -9  -6   21.26   14.05
  -5  -9  -6   34.08   10.47
   5   9   6   39.67   11.32
   5   9   6   45.98   14.83
   5   9   6   30.04   10.34
  -5  -9  -7  244.90   27.51
   5   9   7  225.98   19.90
   5   9   7  238.01   25.75
   5   9   7  219.99   19.51
  -5  -9  -8  104.37   22.63
   5   9   8   90.46   16.13
   5   9   8   91.17   20.16
   5   9   8  102.16   16.91
  -5  -9  -9  153.66   23.93
   5   9   9  170.77   21.65
   5   9   9  132.27   22.76
   5   9   9  147.81   20.03
  -5  -9 -10  212.84   29.65
   5   9  10  179.94   23.22
   5   9  10  216.35   26.92
   5   9  10  198.14   23.02
  -5  -9 -11   17.62   18.01
   5   9  11   20.03   14.50
   5   9  11   16.71   14.83
   5   9  11    1.24   12.42
  -5  -9 -12   24.39   18.92
   5   9  12   41.42   16.91
   5   9  12   46.69   18.99
   5   9  12   22.50   15.41
  -5  -9 -13   74.78   25.43
   5   9  13   80.38   21.26
   5   9  13   95.33   22.76
   5   9  13   71.34   19.44
  -5  -9 -14    6.96   19.83
   5   9  14   16.78   16.32
   5   9  14   15.67   16.84
   5   9  14    2.93   15.02
  -5  -9 -15   97.02   28.42
   5   9  15   94.49   25.75
   5   9  15   73.87   22.70
   5   9  15  102.88   25.10
  -5 -10   7    1.89   18.40
   5  10  -7    6.50   17.49
  -5 -10   6    4.42   16.19
   5  10  -6    4.81   15.41
  -5 -10   5   14.24   17.23
   5  10  -5    5.98   15.02
  -5 -10   4   11.12   15.35
   5  10  -4    2.47   13.27
  -5 -10   3   17.49   15.61
   5  10  -3  -14.31   10.53
  -5 -10   2  106.39   23.28
   5  10  -2   73.29   16.06
   5  10  -2   67.70   18.66
  -5 -10   1  366.70   31.41
   5  10  -1  354.80   26.66
   5  10  -1  372.49   31.41
  -5 -10   0    9.82   12.49
   5  10   0    5.85   11.05
   5  10   0   20.81   13.14
  -5 -10  -1   95.85   22.57
  -5 -10  -1   66.39   17.10
   5  10   1   84.28   18.08
   5  10   1   81.42   18.01
  -5 -10  -2   64.05   17.95
  -5 -10  -2   65.87   16.00
   5  10   2   41.88   15.67
  -5 -10  -3   58.40   17.30
  -5 -10  -3   43.70   14.18
   5  10   3   29.59   14.63
  -5 -10  -4    8.58   13.72
  -5 -10  -4   17.95   11.25
   5  10   4   15.67   12.29
   5  10   4    7.67    8.00
  -5 -10  -5   16.19   14.18
  -5 -10  -5    7.15    9.49
   5  10   5    2.41   12.03
  -5 -10  -6   50.07   16.52
  -5 -10  -6   51.96   12.36
   5  10   6   37.26   16.00
  -5 -10  -7    2.54   13.07
   5  10   7    5.14   12.68
   5  10   7    8.58   12.49
  -5 -10  -8   14.76   15.41
   5  10   8   42.72   12.62
   5  10   8   25.17   14.76
   5  10   8   46.63   12.49
  -5 -10  -9  171.35   26.60
   5  10   9  178.37   21.85
   5  10   9  181.04   26.79
   5  10   9  179.94   22.44
  -5 -10 -10   97.80   23.35
   5  10  10  101.38   18.60
   5  10  10   96.89   21.78
   5  10  10   86.23   17.62
  -5 -10 -11   -5.85   15.87
   5  10  11    4.10   13.46
   5  10  11   -4.81   14.50
   5  10  11   -3.32   12.16
  -5 -10 -12   64.25   22.63
   5  10  12   41.36   17.10
   5  10  12   40.12   18.27
   5  10  12   26.14   15.22
  -5 -10 -13  113.22   28.48
   5  10  13   79.14   21.85
   5  10  13   93.71   24.19
   5  10  13   73.16   19.77
  -5 -10 -14   73.03   26.08
   5  10  14   35.83   20.03
   5  10  14   52.28   20.42
   5  10  14   22.70   17.23
  -5 -10 -15   10.27   23.67
   5  10  15    5.07   18.53
   5  10  15   20.03   18.34
   5  10  15   -3.64   16.26
  -5 -11   5   76.21   24.71
   5  11  -5   86.36   25.82
  -5 -11   4  275.72   36.81
   5  11  -4  240.22   34.40
  -5 -11   3    6.89   15.61
   5  11  -3   -3.71   13.40
  -5 -11   2   76.67   21.91
   5  11  -2   41.62   17.17
  -5 -11   1  264.47   30.24
   5  11  -1  255.17   25.04
   5  11  -1  312.72   31.67
  -5 -11   0  116.66   22.83
   5  11   0  133.70   21.52
   5  11   0  126.94   23.09
  -5 -11  -1   -0.20   14.63
  -5 -11  -1   14.44   14.11
   5  11   1    5.79   12.29
   5  11   1   -4.42   11.58
  -5 -11  -2  170.05   27.05
  -5 -11  -2  159.32   23.15
   5  11   2  155.03   23.93
   5  11   2  114.06   22.04
  -5 -11  -3  211.47   28.68
  -5 -11  -3  207.83   25.62
   5  11   3  216.55   28.09
   5  11   3  163.16   18.99
  -5 -11  -4   16.65   15.41
  -5 -11  -4   21.13   11.84
   5  11   4   12.55   13.33
  -5 -11  -5  280.28   31.21
  -5 -11  -5  215.18   22.50
   5  11   5  238.79   27.38
  -5 -11  -6  504.11   36.48
   5  11   6  448.25   33.69
  -5 -11  -7  146.58   25.30
   5  11   7  120.24   24.06
  -5 -11  -8    1.82   14.24
   5  11   8   31.73   15.35
  -5 -11  -9  169.47   28.03
   5  11   9  132.92   24.65
   5  11   9  138.38   18.66
  -5 -11 -10  392.19   36.48
   5  11  10  377.10   35.38
   5  11  10  345.82   26.66
  -5 -11 -11   91.37   22.96
   5  11  11   80.38   23.87
   5  11  11  110.94   20.42
  -5 -11 -12   58.66   24.58
   5  11  12   21.65   15.54
   5  11  12   18.40   16.65
   5  11  12   38.17   15.48
  -5 -11 -13  107.49   27.57
   5  11  13   87.85   22.83
   5  11  13   65.68   24.00
   5  11  13   70.49   19.77
  -5 -11 -14   28.22   24.26
   5  11  14   19.77   19.18
   5  11  14   33.16   19.57
   5  11  14   49.68   19.38
  -5 -12   3   16.19   18.73
   5  12  -3   12.68   17.43
  -5 -12   2   10.99   16.65
   5  12  -2   30.11   17.43
  -5 -12   1    2.93   15.22
   5  12  -1   13.20   15.02
  -5 -12   0  118.16   24.45
   5  12   0   85.19   19.77
   5  12   0   98.52   22.37
  -5 -12  -1   25.69   16.71
   5  12   1   31.54   15.22
   5  12   1   48.25   17.30
  -5 -12  -2    6.24   17.36
  -5 -12  -2    5.27   13.59
   5  12   2    4.68   13.14
   5  12   2    5.27   13.85
  -5 -12  -3   85.58   22.30
  -5 -12  -3   76.41   18.86
   5  12   3   69.97   19.51
   5  12   3   76.67   18.99
  -5 -12  -4   28.61   17.62
  -5 -12  -4   38.50   15.48
   5  12   4   47.28   17.43
  -5 -12  -5   73.09   20.87
  -5 -12  -5   81.81   18.01
   5  12   5   60.87   18.66
  -5 -12  -6    7.48   16.97
   5  12   6    0.20   14.05
  -5 -12  -7  238.53   30.43
   5  12   7  261.94   30.50
  -5 -12  -8   93.71   23.41
   5  12   8   69.13   21.59
  -5 -12  -9    5.07   17.10
   5  12   9   27.51   18.53
  -5 -12 -10  136.04   26.99
   5  12  10   71.53   22.17
   5  12  10  108.40   18.53
  -5 -12 -11  144.49   28.61
   5  12  11  117.18   25.88
   5  12  11  116.47   20.03
  -5 -12 -12   -0.46   18.14
   5  12  12   27.70   19.83
   5  12  12    0.13   12.62
  -5 -12 -13   24.06   20.68
   5  12  13   46.63   23.28
   5  12  13   33.88   17.23
  -5 -12 -14   61.19   26.34
   5  12  14   22.30   21.33
   5  12  14   50.72   18.66
  -5 -13   1   -6.83   16.06
   5  13  -1   11.64   16.39
  -5 -13   0  208.35   30.43
   5  13   0  198.60   30.04
  -5 -13  -1  214.47   30.50
   5  13   1  208.87   28.29
   5  13   1  214.99   26.73
   5  13   1  230.33   32.45
  -5 -13  -2   32.58   18.99
  -5 -13  -2   47.34   18.47
   5  13   2   44.54   18.27
   5  13   2   31.67   17.10
   5  13   2   59.63   20.74
  -5 -13  -3   78.82   22.50
  -5 -13  -3   81.09   20.87
   5  13   3   84.21   21.26
   5  13   3   83.17   21.78
  -5 -13  -4  104.63   24.00
  -5 -13  -4   98.45   20.61
   5  13   4   99.36   22.17
   5  13   4   87.59   21.07
  -5 -13  -5  107.30   23.80
   5  13   5   76.86   21.52
  -5 -13  -6   10.40   15.80
   5  13   6   10.21   15.41
  -5 -13  -7   29.33   18.14
   5  13   7   41.49   17.10
  -5 -13  -8   63.53   21.33
   5  13   8   80.25   22.83
  -5 -13  -9   63.34   21.72
   5  13   9   53.06   22.24
  -5 -13 -10   10.79   18.66
   5  13  10    1.04   16.91
  -5 -13 -11  105.93   25.88
   5  13  11  109.38   27.18
  -5 -13 -12  202.83   33.75
   5  13  12  142.67   30.04
   5  13  12  145.86   22.44
  -5 -13 -13    2.80   21.26
   5  13  13   46.82   24.39
   5  13  13   23.35   16.26
  -5 -14  -1   81.61   24.65
   5  14   1   97.93   34.34
   5  14   1  106.78   25.49
  -5 -14  -2  126.68   26.21
   5  14   2  139.23   26.66
   5  14   2  143.52   28.87
  -5 -14  -3   19.77   18.21
  -5 -14  -3   -5.07   14.63
   5  14   3    9.75   16.26
   5  14   3  -10.66   13.79
  -5 -14  -4   -4.81   17.04
  -5 -14  -4   -0.72   13.72
   5  14   4   -0.65   15.35
   5  14   4   -5.27   13.85
  -5 -14  -5   58.85   21.39
   5  14   5   40.45   19.90
   5  14   5   52.54   19.64
  -5 -14  -6   19.83   18.21
   5  14   6   29.33   18.73
  -5 -14  -7   17.17   18.08
   5  14   7    2.99   15.15
  -5 -14  -8   58.27   21.46
   5  14   8   22.17   18.60
  -5 -14  -9   80.83   23.67
   5  14   9   84.93   25.30
  -5 -14 -10    8.71   18.08
   5  14  10   -0.78   19.25
  -5 -14 -11   17.04   19.77
   5  14  11    1.37   18.73
  -6  10   8   22.70   20.09
  -6  10   8   16.13   22.17
  -6  10   8   13.79   19.18
  -6  10   7   -2.15   17.30
  -6  10   7  -14.96   18.73
  -6  10   7    8.00   17.49
   6 -10  -7   16.78   17.04
   6 -10  -7    4.75   19.18
  -6  10   6    5.20   18.21
  -6  10   6   27.44   22.04
  -6  10   6  -12.62   16.26
   6 -10  -6   13.07   17.95
   6 -10  -6   -5.92   16.32
  -6  10   5   59.44   22.50
  -6  10   5   40.38   23.87
  -6  10   5   40.71   20.09
   6 -10  -5   18.73   17.30
   6 -10  -5   74.85   23.48
  -6  10   4  -14.05   17.17
  -6  10   4    4.62   20.68
  -6  10   4   -9.88   15.93
   6 -10  -4   11.32   18.01
   6 -10  -4   13.20   16.26
  -6   9  10    0.98   17.10
  -6   9  10   22.17   24.45
  -6   9  10    6.96   18.99
   6  -9 -10    8.78   15.02
   6  -9 -10   22.11   21.72
  -6   9   9   16.13   18.34
  -6   9   9   27.12   22.63
  -6   9   9   12.36   18.40
   6  -9  -9   18.60   18.40
   6  -9  -9   34.34   23.15
  -6   9   8   11.12   17.62
  -6   9   8   23.67   21.13
  -6   9   8   -5.20   16.84
   6  -9  -8    0.85   14.18
   6  -9  -8   -0.39   17.82
  -6   9   7   11.97   17.69
  -6   9   7   17.49   20.29
  -6   9   7   31.28   19.12
   6  -9  -7   14.11   15.28
   6  -9  -7   26.14   20.09
  -6   9   6   -7.74   15.41
  -6   9   6   18.53   20.22
  -6   9   6    1.17   16.32
   6  -9  -6   32.77   17.75
   6  -9  -6    8.97   15.87
  -6   9   5   32.06   18.99
  -6   9   5    8.32   20.09
  -6   9   5   34.66   18.27
   6  -9  -5   38.43   18.79
   6  -9  -5   34.47   19.05
  -6   9   4   -5.33   15.74
  -6   9   4   -5.79   19.77
  -6   9   4    6.44   15.48
   6  -9  -4    4.94   16.13
   6  -9  -4    4.68   16.26
  -6   9   3    5.40   16.26
  -6   9   3  -14.83   18.08
  -6   9   3    0.98   16.26
   6  -9  -3   -2.41   16.26
   6  -9  -3   -8.26   13.92
  -6   9   2   13.07   17.75
  -6   9   2   14.63   20.68
  -6   9   2   20.87   17.69
   6  -9  -2   10.99   18.21
   6  -9  -2  -11.71   13.14
  -6   9   1    3.25   17.88
  -6   9   1    2.73   17.17
  -6   9   1    1.04   17.49
   6  -9  -1   -5.98   18.08
   6  -9  -1   20.22   15.80
  -6   9   0   34.34   20.87
  -6   9   0   54.04   22.63
  -6   9   0   29.00   19.31
   6  -9   0   49.55   23.41
   6  -9   0   71.86   20.68
  -6   8  12   55.73   21.98
  -6   8  12   34.27   24.65
  -6   8  12   40.77   20.48
   6  -8 -12   50.66   18.99
   6  -8 -12   43.96   23.67
  -6   8  11   80.57   23.80
  -6   8  11   82.85   26.27
  -6   8  11   97.87   26.53
   6  -8 -11   75.82   20.74
   6  -8 -11  124.73   29.59
  -6   8  10    9.88   17.10
  -6   8  10   17.17   21.59
  -6   8  10    9.62   17.62
   6  -8 -10   -4.62   12.81
   6  -8 -10   27.96   21.98
  -6   8   9   42.98   18.86
  -6   8   9   57.29   23.48
  -6   8   9   34.08   18.99
   6  -8  -9   75.95   19.38
   6  -8  -9   39.60   21.59
  -6   8   8  146.32   25.69
  -6   8   8  177.53   30.30
  -6   8   8  119.98   24.32
   6  -8  -8  127.98   22.11
   6  -8  -8  115.88   21.98
   6  -8  -8  179.61   31.54
  -6   8   7   71.34   21.20
  -6   8   7   73.55   24.06
  -6   8   7   90.00   22.89
   6  -8  -7   74.72   18.40
   6  -8  -7   68.22   18.73
   6  -8  -7  111.59   26.99
  -6   8   6    5.53   15.09
  -6   8   6  -11.12   16.65
  -6   8   6    0.46   15.67
   6  -8  -6    0.00   11.45
   6  -8  -6   -0.07   13.40
   6  -8  -6  -14.83   16.91
   6  -8  -6    3.84   17.04
  -6   8   5   -3.32   15.41
  -6   8   5   10.21   17.17
  -6   8   5   14.37   16.65
   6  -8  -5    8.00   14.83
   6  -8  -5   11.58   17.88
   6  -8  -5    9.82   15.48
  -6   8   4  176.62   27.44
  -6   8   4  164.85   29.26
  -6   8   4  121.67   23.74
   6  -8  -4  210.56   28.94
   6  -8  -4  222.92   34.08
   6  -8  -4  180.72   27.83
  -6   8   3   60.74   20.16
  -6   8   3   78.16   23.41
  -6   8   3   44.09   19.31
   6  -8  -3   47.80   14.89
   6  -8  -3   69.19   20.42
   6  -8  -3  109.18   26.66
   6  -8  -3   48.64   18.27
  -6   8   2   53.13   19.44
  -6   8   2   70.04   22.83
  -6   8   2   23.61   17.75
   6  -8  -2   54.62   15.41
   6  -8  -2   61.32   20.74
   6  -8  -2   49.23   20.48
   6  -8  -2   61.45   20.09
  -6   8   1  -14.57   14.96
  -6   8   1    1.11   16.65
  -6   8   1   -2.02   15.28
   6  -8  -1   -1.95   16.65
   6  -8  -1   11.58   17.43
   6  -8  -1   -3.38   12.75
  -6   8   0  115.82   24.71
  -6   8   0  129.41   28.61
  -6   8   0  168.43   28.03
   6  -8   0  167.58   30.04
   6  -8   0  122.19   25.17
   6  -8   0  106.26   24.65
  -6   8  -1   36.35   20.09
  -6   8  -1   59.89   23.54
  -6   8  -1   28.09   18.92
   6  -8   1   24.26   18.86
   6  -8   1   28.35   16.39
  -6   8  -2   16.32   18.53
  -6   8  -2    9.75   18.60
  -6   8  -2   -4.81   17.30
   6  -8   2    7.67   18.40
   6  -8   2   14.83   15.15
  -6   7  13   53.45   21.85
  -6   7  13   39.28   24.26
  -6   7  13   46.37   20.35
   6  -7 -13   58.79   21.00
   6  -7 -13   68.48   24.65
  -6   7  12    1.50   15.87
  -6   7  12    3.51   19.90
  -6   7  12   -2.21   14.83
   6  -7 -12    5.27   15.22
   6  -7 -12   18.79   22.04
  -6   7  11   29.78   19.96
  -6   7  11    8.58   19.77
  -6   7  11   15.54   15.80
  -6   7  11   30.30   22.96
   6  -7 -11   14.96   14.63
   6  -7 -11    9.75   21.33
  -6   7  10   96.44   23.61
  -6   7  10  101.19   26.34
  -6   7  10   60.54   22.04
   6  -7 -10   77.77   19.77
   6  -7 -10  132.53   27.18
  -6   7   9   14.05   16.13
  -6   7   9    4.68   18.40
  -6   7   9   16.00   16.78
   6  -7  -9   30.76   15.22
   6  -7  -9   23.41   18.99
   6  -7  -9   14.18   19.64
  -6   7   8   26.21   16.65
  -6   7   8   49.16   20.74
  -6   7   8   36.68   18.66
   6  -7  -8   53.84   16.58
   6  -7  -8   26.66   14.44
   6  -7  -8   59.76   22.89
   6  -7  -8   50.53   22.04
  -6   7   7  162.44   25.36
  -6   7   7  216.81   30.37
  -6   7   7  190.15   27.77
   6  -7  -7  193.53   24.78
   6  -7  -7  214.86   25.82
   6  -7  -7  186.89   29.26
   6  -7  -7  223.31   32.45
  -6   7   6   55.40   18.92
  -6   7   6   94.62   24.00
  -6   7   6   62.23   19.83
   6  -7  -6   70.88   18.21
   6  -7  -6   68.28   22.44
   6  -7  -6   88.05   23.87
  -6   7   5  187.41   26.14
  -6   7   5  180.33   28.55
  -6   7   5  176.94   26.86
   6  -7  -5  199.90   26.40
   6  -7  -5  194.18   31.60
   6  -7  -5  163.48   29.00
  -6   7   4   50.59   18.40
  -6   7   4   70.23   21.52
  -6   7   4   75.89   20.22
   6  -7  -4   43.57   14.70
   6  -7  -4   68.02   18.34
   6  -7  -4   61.91   22.17
   6  -7  -4   75.43   20.42
  -6   7   3   71.27   19.12
  -6   7   3   85.06   22.17
  -6   7   3   87.85   22.17
   6  -7  -3   94.94   17.82
   6  -7  -3  108.86   20.68
   6  -7  -3   92.99   22.83
   6  -7  -3  111.00   22.76
  -6   7   2   68.61   20.29
  -6   7   2   32.64   18.66
  -6   7   2   40.71   18.47
   6  -7  -2   32.71   13.79
   6  -7  -2   47.73   18.14
   6  -7  -2   49.68   20.16
   6  -7  -2   30.50   15.09
  -6   7   1   13.53   15.15
  -6   7   1    4.62   16.06
  -6   7   1    7.61   15.09
   6  -7  -1    7.87   11.51
   6  -7  -1   -4.94   14.44
   6  -7  -1    7.61   15.54
   6  -7  -1    2.54   12.29
  -6   7   0   46.50   18.92
  -6   7   0   46.50   19.64
  -6   7   0   65.55   20.61
   6  -7   0   48.19   15.54
   6  -7   0   23.67   17.69
   6  -7   0   47.15   17.95
   6  -7   0   85.12   21.78
  -6   7  -1   24.39   17.82
  -6   7  -1   38.69   18.27
  -6   7  -1   18.08   17.43
   6  -7   1   34.40   14.70
   6  -7   1   36.61   19.57
   6  -7   1   24.45   16.45
   6  -7   1   39.54   16.00
  -6   7  -2    0.26   16.39
  -6   7  -2    5.20   16.32
  -6   7  -2   -0.39   15.74
   6  -7   2    5.79   11.71
   6  -7   2   12.81   17.75
   6  -7   2    9.36   14.05
  -6   7  -3    9.23   17.43
  -6   7  -3  -14.57   16.06
  -6   7  -3   11.77   17.69
   6  -7   3    2.60   17.17
   6  -7   3   -1.11   13.66
  -6   7  -4   31.02   19.83
  -6   7  -4   28.48   21.85
  -6   7  -4   17.82   19.51
   6  -7   4   27.12   20.29
   6  -7   4   26.73   17.10
  -6   6  13   70.04   22.70
  -6   6  13   93.71   28.55
  -6   6  13   61.97   20.94
   6  -6 -13   63.27   21.46
  -6   6  12   66.20   21.13
  -6   6  12   95.27   27.12
  -6   6  12   55.34   19.18
   6  -6 -12  102.81   23.02
   6  -6 -12  145.34   27.90
  -6   6  11   -8.65   13.72
  -6   6  11    0.46   18.99
  -6   6  11    1.95   14.11
   6  -6 -11    6.37   14.24
   6  -6 -11    0.33   18.53
  -6   6  10   92.73   21.78
  -6   6  10   63.60   22.24
  -6   6  10   77.71   20.29
  -6   6  10   97.61   23.48
   6  -6 -10   91.63   20.94
   6  -6 -10  102.03   25.36
   6  -6 -10  102.55   24.71
  -6   6   9  121.99   23.67
  -6   6   9  113.22   24.71
  -6   6   9  138.38   26.01
   6  -6  -9  145.14   24.19
   6  -6  -9  150.80   29.07
   6  -6  -9  177.98   28.81
  -6   6   8    2.08   13.46
  -6   6   8   13.20   17.82
  -6   6   8   -7.41   14.44
   6  -6  -8   12.36   12.88
   6  -6  -8    3.64   14.96
   6  -6  -8   -6.83   16.00
  -6   6   7   81.68   19.44
  -6   6   7   73.22   21.52
  -6   6   7   84.99   20.29
   6  -6  -7  115.62   20.81
   6  -6  -7  108.79   18.34
   6  -6  -7  121.73   24.65
   6  -6  -7  116.53   24.19
  -6   6   6   51.96   17.49
  -6   6   6   82.91   22.04
  -6   6   6   66.78   19.77
   6  -6  -6   65.94   15.74
   6  -6  -6   34.73   17.43
   6  -6  -6   88.50   22.04
  -6   6   5  107.88   20.94
  -6   6   5   91.89   22.11
  -6   6   5  104.05   21.46
   6  -6  -5  110.87   19.44
   6  -6  -5  115.49   18.99
   6  -6  -5  121.67   25.82
   6  -6  -5  104.83   22.44
  -6   6   4    6.89   13.59
  -6   6   4    6.11   14.83
  -6   6   4    4.03   14.37
   6  -6  -4    7.41   10.27
   6  -6  -4    9.30   11.90
   6  -6  -4   -4.42   14.05
   6  -6  -4    1.24   12.49
  -6   6   3   75.89   18.92
  -6   6   3   56.06   19.05
  -6   6   3   73.74   20.16
   6  -6  -3   75.50   16.45
   6  -6  -3   95.72   18.86
   6  -6  -3   83.56   23.02
   6  -6  -3   50.79   16.26
  -6   6   2   45.20   16.58
  -6   6   2   44.02   17.75
  -6   6   2   75.17   20.09
   6  -6  -2   74.85   16.91
   6  -6  -2   56.84   17.36
   6  -6  -2   75.56   21.65
   6  -6  -2   64.31   16.45
  -6   6   1    1.50   13.40
  -6   6   1    0.65   14.63
  -6   6   1    3.58   14.44
   6  -6  -1    1.89    9.62
   6  -6  -1    6.50   12.94
   6  -6  -1  -21.72   12.29
   6  -6  -1   12.81   12.94
  -6   6   0   17.95   16.06
  -6   6   0   17.10   16.13
  -6   6   0   30.69   17.30
   6  -6   0   29.46   13.92
   6  -6   0   11.90   15.22
   6  -6   0    7.41   16.58
   6  -6   0   -0.20   12.62
  -6   6  -1  287.04   30.69
  -6   6  -1  297.57   31.67
  -6   6  -1  285.15   32.45
   6  -6   1  275.46   25.36
   6  -6   1  271.56   30.89
   6  -6   1  251.47   28.16
   6  -6   1  234.04   27.51
  -6   6  -2   54.75   18.79
  -6   6  -2   34.86   17.88
  -6   6  -2   59.31   19.18
   6  -6   2   60.02   16.26
   6  -6   2   67.96   20.09
   6  -6   2   38.56   16.00
   6  -6   2   54.17   17.17
  -6   6  -3   35.12   19.44
  -6   6  -3   55.40   21.20
  -6   6  -3   58.79   21.85
   6  -6   3   49.29   15.61
   6  -6   3   47.15   18.34
   6  -6   3   33.49   16.84
  -6   6  -4   45.46   19.12
  -6   6  -4   39.28   19.70
  -6   6  -4   64.57   21.65
   6  -6   4   77.84   18.01
   6  -6   4   55.34   21.46
   6  -6   4   70.30   20.74
  -6   6  -5   -6.70   16.06
  -6   6  -5   16.65   18.73
  -6   6  -5   -7.02   17.04
   6  -6   5    3.71   13.20
   6  -6   5   -3.90   17.17
   6  -6   5    1.56   13.01
  -6   6  -6    7.80   18.34
  -6   6  -6   15.48   19.05
  -6   6  -6   -8.52   16.97
   6  -6   6   12.88   23.93
   6  -6   6   17.43   18.73
   6  -6   6    4.88   14.24
  -6   5  14   11.84   18.53
  -6   5  14   -1.43   21.00
  -6   5  14    5.40   17.04
   6  -5 -14   25.62   19.83
  -6   5  13   -0.98   14.96
  -6   5  13    8.26   19.83
  -6   5  13    7.67   16.65
   6  -5 -13   14.37   17.43
  -6   5  12   77.19   21.26
  -6   5  12   76.47   23.74
  -6   5  12   80.96   20.61
   6  -5 -12  118.68   23.67
   6  -5 -12   77.77   23.15
  -6   5  11    9.23   15.80
  -6   5  11   29.78   19.18
  -6   5  11    4.16   13.59
   6  -5 -11   24.71   15.93
   6  -5 -11   15.35   18.40
   6  -5 -11   -9.04   15.35
  -6   5  10    4.68   14.24
  -6   5  10   -0.78   15.35
  -6   5  10    3.19   12.16
   6  -5 -10   10.08   14.05
   6  -5 -10   17.82   16.26
   6  -5 -10    5.79   16.84
  -6   5   9   29.13   15.87
  -6   5   9   24.26   17.62
  -6   5   9   17.75   14.57
  -6   5   9   18.73   15.28
   6  -5  -9   44.02   16.52
   6  -5  -9   13.40   16.91
   6  -5  -9   33.10   18.27
  -6   5   8    9.62   13.01
  -6   5   8   19.70   17.23
  -6   5   8   -3.58   13.07
   6  -5  -8   18.53   14.18
   6  -5  -8    8.39   16.00
   6  -5  -8   27.44   17.75
  -6   5   7   11.64   13.53
  -6   5   7   16.91   14.89
  -6   5   7   -8.71   13.14
   6  -5  -7   13.20   10.40
   6  -5  -7   -2.41   12.88
   6  -5  -7   23.35   15.87
  -6   5   6   41.29   16.39
  -6   5   6   52.28   18.47
  -6   5   6   49.16   17.30
   6  -5  -6   31.21   12.55
   6  -5  -6   22.04   11.05
   6  -5  -6   31.08   17.56
   6  -5  -6   32.58   17.17
  -6   5   5    1.95   12.62
  -6   5   5   15.61   15.15
  -6   5   5    4.23   13.66
   6  -5  -5   14.89   10.66
   6  -5  -5    8.78   10.53
   6  -5  -5    4.10   15.41
   6  -5  -5    0.65   12.16
  -6   5   4   75.24   18.53
  -6   5   4   78.49   19.83
  -6   5   4   94.42   20.16
   6  -5  -4   67.37   16.32
   6  -5  -4  103.98   17.43
   6  -5  -4   90.85   21.72
   6  -5  -4   80.44   19.51
  -6   5   3   22.96   14.37
  -6   5   3   28.22   14.70
  -6   5   3   15.15   14.76
   6  -5  -3   36.29   13.33
   6  -5  -3   36.94   13.66
   6  -5  -3   31.21   16.39
   6  -5  -3   24.97   14.18
  -6   5   2  113.41   20.48
  -6   5   2  102.62   21.33
  -6   5   2  111.52   21.39
   6  -5  -2  110.61   18.34
   6  -5  -2  157.63   22.04
   6  -5  -2  139.81   23.87
   6  -5  -2  112.18   20.22
  -6   5   1   66.98   17.95
  -6   5   1   46.30   17.30
  -6   5   1   87.46   20.29
   6  -5  -1   49.36   14.18
   6  -5  -1   52.22   15.54
   6  -5  -1   57.03   18.86
   6  -5  -1   70.95   19.18
  -6   5   0   28.42   14.70
  -6   5   0   31.80   15.61
  -6   5   0   18.99   15.61
   6  -5   0   22.50   12.42
   6  -5   0   31.54   14.83
   6  -5   0   19.90   17.43
   6  -5   0   13.92   14.50
  -6   5  -1   44.67   16.58
  -6   5  -1   20.16   15.67
  -6   5  -1   28.74   17.17
   6  -5   1   50.66   14.50
   6  -5   1   45.13   16.19
   6  -5   1   29.46   16.52
   6  -5   1   27.38   16.06
  -6   5  -2   76.41   19.83
  -6   5  -2   98.91   21.72
  -6   5  -2   59.18   19.64
   6  -5   2  103.01   18.53
   6  -5   2   89.81   19.70
   6  -5   2   44.74   17.88
   6  -5   2   43.63   18.86
  -6   5  -3   19.83   16.00
  -6   5  -3   19.25   16.19
  -6   5  -3   22.44   16.65
   6  -5   3   31.80   14.76
   6  -5   3   23.74   16.78
   6  -5   3    5.14   13.98
   6  -5   3    1.37   14.11
  -6   5  -4   -5.66   14.50
  -6   5  -4    1.95   15.28
  -6   5  -4   -2.80   15.74
   6  -5   4   -0.20   12.03
   6  -5   4   11.32   14.50
   6  -5   4    9.95   13.46
  -6   5  -5   44.81   19.83
  -6   5  -5   49.16   20.29
  -6   5  -5   37.65   19.05
   6  -5   5   25.88   15.80
   6  -5   5   67.76   21.98
   6  -5   5   46.24   17.75
  -6   5  -6   29.72   20.09
  -6   5  -6   16.32   17.88
  -6   5  -6   44.48   20.94
   6  -5   6   42.79   16.26
   6  -5   6   -4.10   17.62
   6  -5   6  -11.64   17.43
  -6   5  -7   16.26   19.64
  -6   5  -7    1.89   18.34
  -6   5  -7   41.10   22.50
   6  -5   7   20.68   15.09
   6  -5   7   29.46   19.90
   6  -5   7   13.14   16.39
  -6   4  14   -3.97   15.87
  -6   4  14   -6.11   21.46
  -6   4  14   17.36   17.10
   6  -4 -14   -0.72   17.36
  -6   4  13    5.98   15.54
  -6   4  13   22.11   21.20
  -6   4  13   14.37   15.48
   6  -4 -13   18.86   18.66
  -6   4  12   35.77   17.30
  -6   4  12   29.65   19.57
  -6   4  12   31.08   17.82
   6  -4 -12   23.41   17.88
   6  -4 -12   29.13   18.53
  -6   4  11   47.60   17.75
  -6   4  11    4.94   16.26
  -6   4  11    3.90   13.98
   6  -4 -11   35.05   17.36
   6  -4 -11    1.69   15.22
   6  -4 -11   35.90   16.84
  -6   4  10    8.78   14.11
  -6   4  10   23.61   17.36
  -6   4  10   11.97   13.46
   6  -4 -10   13.53   15.02
   6  -4 -10   11.84   16.52
   6  -4 -10   17.17   15.74
  -6   4   9   -0.52   12.62
  -6   4   9   -5.14   14.44
  -6   4   9   -0.78   10.47
   6  -4  -9    6.18   12.62
   6  -4  -9    6.11   14.57
   6  -4  -9   -1.63   13.85
  -6   4   8   10.79   13.07
  -6   4   8    8.45   14.05
  -6   4   8    5.92   11.71
  -6   4   8   14.96   15.48
   6  -4  -8    9.04   11.64
   6  -4  -8   10.40   16.06
   6  -4  -8   21.52   15.15
  -6   4   7    2.73   12.03
  -6   4   7   13.53   13.79
  -6   4   7    0.72   13.07
   6  -4  -7   -4.55   12.10
   6  -4  -7    8.58   13.72
  -6   4   6   24.26   13.79
  -6   4   6   36.87   16.58
  -6   4   6   39.60   16.13
   6  -4  -6   38.82   13.27
   6  -4  -6   48.12   12.03
   6  -4  -6   26.60   15.74
   6  -4  -6   42.46   15.80
  -6   4   5   44.81   14.50
  -6   4   5   51.11   17.43
  -6   4   5   31.99   15.22
   6  -4  -5   48.19   13.85
   6  -4  -5   56.90   13.01
   6  -4  -5    9.82   19.18
   6  -4  -5    2.73   16.84
  -6   4   4  156.98   21.78
  -6   4   4  187.93   24.58
  -6   4   4  170.57   23.54
   6  -4  -4  168.62   20.16
   6  -4  -4  196.97   19.70
   6  -4  -4  178.89   28.16
   6  -4  -4  186.89   28.61
  -6   4   3   20.61   13.46
  -6   4   3   17.36   13.72
  -6   4   3   25.43   14.37
   6  -4  -3   13.27   10.21
   6  -4  -3    8.19    9.43
   6  -4  -3   -3.90   14.89
   6  -4  -3   10.99   15.35
  -6   4   2    2.47   11.71
  -6   4   2   12.36   12.68
  -6   4   2    9.43   13.72
   6  -4  -2   -1.82    8.58
   6  -4  -2    4.23    9.43
   6  -4  -2   -8.45   16.13
   6  -4  -2   -5.85   14.31
  -6   4   1   41.75   14.50
  -6   4   1   37.26   15.02
  -6   4   1   38.76   16.71
   6  -4  -1   25.56   12.10
   6  -4  -1   29.59   13.01
   6  -4  -1    7.74   21.65
   6  -4  -1    1.82   17.75
  -6   4   0   68.09   17.69
  -6   4   0   70.88   17.88
  -6   4   0   75.17   19.25
   6  -4   0   76.02   16.13
   6  -4   0   66.91   16.52
   6  -4   0   24.45   19.57
   6  -4   0   30.11   16.78
  -6   4  -1   13.66   13.98
  -6   4  -1   16.13   14.50
  -6   4  -1    7.22   14.89
   6  -4   1   31.73   13.46
   6  -4   1   30.24   14.18
   6  -4   1   14.89   14.37
   6  -4   1   19.70   13.20
  -6   4  -2   11.90   13.92
  -6   4  -2   -2.02   12.75
  -6   4  -2   19.38   15.35
   6  -4   2    9.95   11.25
   6  -4   2   14.11   13.01
   6  -4   2   -3.38   13.14
   6  -4   2  -12.49   11.45
  -6   4  -3   41.42   16.97
  -6   4  -3   40.51   16.71
  -6   4  -3   19.38   15.80
   6  -4   3   33.75   13.85
   6  -4   3   52.67   17.04
   6  -4   3    1.76   16.71
   6  -4   3   30.56   16.39
  -6   4  -4   13.20   16.00
  -6   4  -4   12.23   13.79
  -6   4  -4   -1.95   14.24
   6  -4   4    4.36   12.29
   6  -4   4    6.76   14.05
   6  -4   4  -21.20   13.14
   6  -4   4  -10.21   14.37
  -6   4  -5    6.05   14.96
  -6   4  -5    7.74   14.96
  -6   4  -5    2.47   16.32
   6  -4   5    7.22   12.16
   6  -4   5   14.89   15.15
   6  -4   5   -4.81   13.79
  -6   4  -6    9.43   15.48
  -6   4  -6   10.66   16.39
  -6   4  -6   -4.42   16.32
   6  -4   6   37.07   15.61
   6  -4   6   23.28   17.56
   6  -4   6   22.11   16.39
  -6   4  -7   16.00   18.92
  -6   4  -7   12.81   17.69
  -6   4  -7   -1.89   17.69
   6  -4   7   25.82   16.06
   6  -4   7   24.26   20.87
   6  -4   7    0.52   17.56
  -6   4  -8   44.67   20.94
  -6   4  -8   51.76   29.52
  -6   4  -8   50.59   24.71
   6  -4   8   31.47   16.91
   6  -4   8   39.86   21.52
   6  -4   8   49.42   19.77
  -6   3  14    0.00   15.54
  -6   3  14    7.02   21.26
  -6   3  14   16.84   21.85
   6  -3 -14   24.19   19.38
  -6   3  13   -1.63   14.83
  -6   3  13    5.85   18.73
  -6   3  13    4.68   14.70
   6  -3 -13    6.11   16.45
   6  -3 -13    6.57   17.95
  -6   3  12    4.16   13.46
  -6   3  12   11.90   19.96
  -6   3  12   -0.72   13.33
   6  -3 -12    0.91   14.96
   6  -3 -12    4.23   16.32
  -6   3  11   31.80   16.26
  -6   3  11   39.73   20.03
  -6   3  11   29.46   14.96
   6  -3 -11   54.88   18.86
   6  -3 -11   61.13   20.94
   6  -3 -11   81.03   27.57
  -6   3  10   50.46   16.65
  -6   3  10   47.41   18.86
  -6   3  10   31.67   15.28
   6  -3 -10   46.89   17.43
   6  -3 -10   40.25   17.88
   6  -3 -10   71.27   18.34
  -6   3   9    6.70   12.42
  -6   3   9    8.19   15.48
  -6   3   9   28.87   14.70
   6  -3  -9   20.42   13.14
   6  -3  -9   25.17   17.62
   6  -3  -9   26.21   15.09
  -6   3   8    9.95   12.62
  -6   3   8   31.02   15.15
  -6   3   8   14.57   12.10
   6  -3  -8    5.59   12.10
   6  -3  -8    2.99   12.49
   6  -3  -8   17.95   12.68
  -6   3   7   11.90   11.64
  -6   3   7   13.92   15.15
  -6   3   7   17.17   11.97
  -6   3   7   30.50   15.35
   6  -3  -7    6.44   15.02
   6  -3  -7   17.30   13.27
  -6   3   6   58.98   15.41
  -6   3   6   81.16   18.66
  -6   3   6   75.30   18.92
   6  -3  -6   78.10   15.87
   6  -3  -6   49.55   10.60
   6  -3  -6   72.51   20.42
   6  -3  -6   56.84   18.27
  -6   3   5    4.49   10.73
  -6   3   5    6.89   12.81
  -6   3   5   -0.39   11.71
   6  -3  -5    5.72    8.78
   6  -3  -5    8.39    7.74
   6  -3  -5    5.85   12.55
   6  -3  -5    1.82   11.58
   6  -3  -5    5.79   10.73
  -6   3   4  112.31   19.44
  -6   3   4  114.78   19.90
  -6   3   4  139.49   22.24
   6  -3  -4  130.77   19.57
   6  -3  -4  131.29   16.13
   6  -3  -4  134.94   22.96
   6  -3  -4  138.51   22.76
   6  -3  -4  103.40   18.92
  -6   3   3   95.85   18.79
  -6   3   3   96.50   17.95
  -6   3   3   68.09   17.36
   6  -3  -3  104.96   17.95
   6  -3  -3   97.41   14.57
   6  -3  -3   69.78   20.29
   6  -3  -3  100.34   20.16
   6  -3  -3   90.59   17.69
  -6   3   2    4.75   11.05
  -6   3   2   -3.90   10.73
  -6   3   2   -2.67   12.23
   6  -3  -2   -5.66    8.26
   6  -3  -2    9.56    8.91
   6  -3  -2  -19.44   10.27
   6  -3  -2   -1.04   11.97
  -6   3   1   -6.44   11.12
  -6   3   1    6.31   11.51
  -6   3   1   -1.76   12.36
   6  -3  -1    3.58    9.43
   6  -3  -1    6.44    8.52
   6  -3  -1  -21.78   12.88
   6  -3  -1   -2.80   10.53
  -6   3   0   14.50   12.62
  -6   3   0   -4.23   11.45
  -6   3   0    5.66   12.75
   6  -3   0    1.89    9.10
   6  -3   0   11.12    9.75
   6  -3   0    4.16   13.40
   6  -3   0    9.62   11.58
  -6   3  -1   23.61   13.27
  -6   3  -1   11.58   12.10
  -6   3  -1   19.90   14.50
   6  -3   1   45.13   13.72
   6  -3   1    6.50   10.60
   6  -3   1   24.45   14.83
   6  -3   1   49.29   15.67
  -6   3  -2    8.65   12.10
  -6   3  -2   -1.50   11.77
  -6   3  -2    9.30   13.72
   6  -3   2    0.72    9.82
   6  -3   2  -25.17   12.23
   6  -3   2   29.85   19.44
  -6   3  -3   15.35   12.94
  -6   3  -3   38.76   14.76
  -6   3  -3   37.59   16.84
   6  -3   3   19.96   12.42
   6  -3   3   39.99   14.89
   6  -3   3   10.79   14.70
   6  -3   3   29.59   14.57
  -6   3  -4   21.52   14.96
  -6   3  -4   23.80   14.70
  -6   3  -4   18.14   15.54
   6  -3   4   33.03   13.98
   6  -3   4   25.69   15.48
   6  -3   4    3.45   16.65
   6  -3   4   30.50   16.19
  -6   3  -5    3.77   13.98
  -6   3  -5   21.59   14.96
  -6   3  -5    5.46   15.35
   6  -3   5   10.14   12.16
   6  -3   5   30.56   16.78
   6  -3   5   -5.79   14.37
   6  -3   5   18.99   15.22
  -6   3  -6   -4.42   13.79
  -6   3  -6   -0.52   13.98
  -6   3  -6    5.14   16.00
   6  -3   6    0.52   12.23
   6  -3   6  -15.87   14.63
   6  -3   6    4.23   14.83
  -6   3  -7    8.91   15.09
  -6   3  -7   -7.02   14.31
  -6   3  -7   -2.86   16.39
   6  -3   7    3.97   12.62
   6  -3   7   -9.04   13.98
   6  -3   7   -2.15   14.57
  -6   3  -8   35.44   19.64
   6  -3   8   26.40   15.02
   6  -3   8   33.42   21.65
   6  -3   8   28.22   17.49
  -6   3  -9   -5.98   17.30
   6  -3   9   -0.59   14.18
   6  -3   9  -18.21   17.56
   6  -3   9  -13.01   15.61
  -6   2  14   23.80   18.14
  -6   2  14   14.37   23.67
  -6   2  14   25.95   21.46
   6  -2 -14   62.88   24.45
  -6   2  13   55.27   19.90
  -6   2  13   84.47   26.73
  -6   2  13   88.96   25.17
   6  -2 -13   81.09   24.84
   6  -2 -13  109.38   25.30
  -6   2  12    6.37   13.66
  -6   2  12   12.68   18.27
  -6   2  12  -10.86   16.65
   6  -2 -12   -5.40   15.35
   6  -2 -12   -4.88   13.98
  -6   2  11   51.24   17.10
  -6   2  11  103.27   24.45
  -6   2  11   66.78   18.21
   6  -2 -11   85.51   22.37
   6  -2 -11  105.74   23.54
  -6   2  10   65.74   17.75
  -6   2  10   87.53   22.04
  -6   2  10   57.23   17.23
   6  -2 -10   59.50   18.47
   6  -2 -10   63.01   18.73
   6  -2 -10   65.55   15.87
  -6   2   9   33.49   14.11
  -6   2   9   29.33   16.39
  -6   2   9   21.65   13.14
   6  -2  -9   32.32   15.02
   6  -2  -9   33.29   16.58
   6  -2  -9   48.77   15.15
   6  -2  -9   32.12   18.40
   6  -2  -9   44.28   17.43
  -6   2   8   31.02   13.98
  -6   2   8   34.40   15.28
  -6   2   8   18.92   12.36
   6  -2  -8   44.74   17.10
   6  -2  -8   32.06   12.68
   6  -2  -8   33.62   14.37
   6  -2  -8   15.15    9.43
  -6   2   7  204.06   22.89
  -6   2   7  185.92   24.71
  -6   2   7  130.32   19.77
  -6   2   7  177.72   31.02
   6  -2  -7  185.40   21.26
   6  -2  -7  183.64   26.79
   6  -2  -7  208.87   25.88
   6  -2  -7  217.39   24.91
   6  -2  -7  219.99   18.21
  -6   2   6  104.57   18.79
  -6   2   6   90.65   18.08
  -6   2   6   69.26   15.74
  -6   2   6  111.78   20.55
   6  -2  -6   72.05   15.15
   6  -2  -6  151.97   23.41
   6  -2  -6  120.17   19.25
   6  -2  -6   96.50   18.47
   6  -2  -6  105.02   14.18
  -6   2   5   18.60   11.90
  -6   2   5   22.63   12.42
  -6   2   5   11.84   12.55
   6  -2  -5   18.34   10.99
   6  -2  -5   15.35   14.50
   6  -2  -5    4.36   13.01
   6  -2  -5   13.98   11.32
   6  -2  -5   15.22    8.32
  -6   2   4   53.58   14.70
  -6   2   4   63.86   15.80
  -6   2   4   30.89   13.85
   6  -2  -4   50.92   13.72
   6  -2  -4   47.93    9.88
   6  -2  -4   62.36   17.88
   6  -2  -4   61.39   17.43
   6  -2  -4   55.60   15.41
  -6   2   3  512.36   30.11
  -6   2   3  549.04   30.89
  -6   2   3  547.54   32.90
   6  -2  -3  533.95   28.74
   6  -2  -3  541.89   22.89
   6  -2  -3  511.13   31.54
   6  -2  -3  520.62   31.34
   6  -2  -3  529.79   30.30
  -6   2   2  207.77   22.83
  -6   2   2  209.98   22.70
  -6   2   2  211.99   25.23
   6  -2  -2  223.63   21.00
   6  -2  -2  252.18   18.60
   6  -2  -2  252.77   25.17
   6  -2  -2  225.59   23.35
   6  -2  -2  231.11   23.61
  -6   2   1   11.05   11.25
  -6   2   1   14.24   11.77
  -6   2   1  -12.68   11.51
   6  -2  -1    8.19    9.62
   6  -2  -1   22.30    9.23
   6  -2  -1   19.57   13.01
   6  -2  -1   39.93   13.85
   6  -2  -1    1.37   10.14
  -6   2   0    3.12   10.79
  -6   2   0    1.56    9.95
  -6   2   0  -10.60   10.86
   6  -2   0    2.73    8.97
   6  -2   0   15.41    9.62
   6  -2   0   -2.60   12.03
   6  -2   0   10.66   10.86
   6  -2   0    2.15    9.43
  -6   2  -1  231.70   23.61
  -6   2  -1  217.39   22.70
  -6   2  -1  272.47   26.92
   6  -2   1  243.53   21.85
   6  -2   1  275.85   22.37
   6  -2   1  204.84   29.33
   6  -2   1  319.75   28.87
   6  -2   1  249.52   24.71
  -6   2  -2  205.56   23.67
  -6   2  -2  192.88   22.37
  -6   2  -2  224.94   26.08
   6  -2   2  182.28   21.26
   6  -2   2  230.72   22.44
   6  -2   2  198.53   26.21
   6  -2   2  192.75   23.35
   6  -2   2  212.32   34.21
  -6   2  -3    9.04   13.27
  -6   2  -3   -3.84    9.88
  -6   2  -3    8.19   11.77
  -6   2  -3   -5.33   12.42
   6  -2   3    9.36   11.19
   6  -2   3   18.86   12.23
   6  -2   3   18.40   14.31
  -6   2  -4  140.27   21.39
  -6   2  -4  163.81   22.04
  -6   2  -4  148.53   20.68
  -6   2  -4  141.44   22.63
   6  -2   4  147.62   21.46
   6  -2   4  152.49   24.32
   6  -2   4   88.11   23.80
  -6   2  -5  143.45   22.83
  -6   2  -5  123.30   20.09
  -6   2  -5   95.98   21.78
   6  -2   5  141.44   21.52
   6  -2   5  134.22   21.33
   6  -2   5  118.74   21.59
   6  -2   5  121.67   21.07
  -6   2  -6   17.17   14.44
  -6   2  -6   31.67   15.28
  -6   2  -6   34.73   18.47
   6  -2   6    1.11   10.92
   6  -2   6   12.36   15.67
   6  -2   6  -12.94   14.96
   6  -2   6   37.33   15.74
  -6   2  -7   19.57   16.06
  -6   2  -7   20.74   14.83
  -6   2  -7   20.03   17.75
   6  -2   7    2.02   12.75
   6  -2   7    3.12   17.69
  -6   2  -8   36.03   18.47
   6  -2   8   48.64   17.88
   6  -2   8   44.54   19.77
   6  -2   8   31.54   16.52
  -6   2  -9   -4.68   15.74
   6  -2   9   14.89   14.37
   6  -2   9    0.78   17.82
   6  -2   9   19.96   17.17
  -6   2 -10    5.59   18.53
   6  -2  10    2.02   14.37
   6  -2  10    5.92   20.87
   6  -2  10   15.02   17.43
  -6   1  14   -0.33   15.74
  -6   1  14   -1.17   20.94
  -6   1  14  -15.67   17.75
   6  -1 -14  -14.24   17.56
  -6   1  13   27.12   16.58
  -6   1  13   31.15   21.98
  -6   1  13   -4.10   18.27
   6  -1 -13   25.95   19.05
   6  -1 -13   31.80   18.86
  -6   1  12   32.64   16.00
  -6   1  12   32.38   20.55
  -6   1  12   28.16   19.70
   6  -1 -12   37.39   20.29
   6  -1 -12   51.18   19.44
  -6   1  11    2.34   13.20
  -6   1  11   -3.38   16.91
  -6   1  11   23.54   17.75
   6  -1 -11    2.02   15.15
   6  -1 -11   -8.97   13.33
   6  -1 -11   -5.92   10.86
  -6   1  10   -5.07   11.90
  -6   1  10   -4.49   14.37
  -6   1  10    0.78   11.97
   6  -1 -10   -0.46   13.20
   6  -1 -10   14.24   14.50
   6  -1 -10    8.84   12.81
   6  -1 -10   10.27   11.12
  -6   1   9   13.92   12.49
  -6   1   9   20.35   15.93
  -6   1   9    1.76   11.58
   6  -1  -9   17.75   14.05
   6  -1  -9    9.56   13.72
   6  -1  -9   15.61   10.86
   6  -1  -9   -1.63   10.34
   6  -1  -9    9.04   10.60
  -6   1   8    7.80   11.38
  -6   1   8  -13.66   11.32
  -6   1   8    0.00   10.27
   6  -1  -8    8.19   13.27
   6  -1  -8    2.54    9.56
   6  -1  -8    4.29   10.66
   6  -1  -8   14.76    9.30
  -6   1   7   52.67   14.63
  -6   1   7   64.77   16.52
  -6   1   7   40.25   13.59
   6  -1  -7   46.69   13.85
   6  -1  -7   57.16   17.69
   6  -1  -7   59.76   15.48
   6  -1  -7   45.26   14.57
   6  -1  -7   50.79   12.16
  -6   1   6  103.98   17.75
  -6   1   6  112.50   20.74
  -6   1   6   90.85   17.95
  -6   1   6  107.36   21.26
   6  -1  -6  114.06   18.66
   6  -1  -6  124.99   21.85
   6  -1  -6  143.26   20.35
   6  -1  -6  132.92   20.29
   6  -1  -6  116.86   15.54
  -6   1   5  114.52   18.01
  -6   1   5  129.02   20.09
  -6   1   5   83.43   16.06
  -6   1   5  104.89   18.60
   6  -1  -5  124.99   18.86
   6  -1  -5  140.59   21.91
   6  -1  -5  157.70   21.78
   6  -1  -5  146.12   21.33
   6  -1  -5  135.52   15.61
  -6   1   4  104.44   17.56
  -6   1   4   81.42   16.65
  -6   1   4   97.02   17.62
  -6   1   4   72.70   16.13
   6  -1  -4  103.27   17.04
   6  -1  -4   84.02   17.17
   6  -1  -4  106.06   18.27
   6  -1  -4  104.05   18.47
  -6   1   3   19.38   11.19
  -6   1   3    6.05   10.79
  -6   1   3   29.13   12.75
   6  -1  -3   22.89    9.95
   6  -1  -3    8.45    6.50
   6  -1  -3   32.06   13.66
   6  -1  -3   23.15   12.03
   6  -1  -3   22.83   10.66
  -6   1   2  215.90   21.78
  -6   1   2  204.19   21.33
  -6   1   2  204.45   23.22
   6  -1  -2  222.40   20.35
   6  -1  -2  215.18   15.41
   6  -1  -2  245.61   23.22
   6  -1  -2  222.66   22.96
   6  -1  -2  233.91   22.44
  -6   1   1   26.01   12.10
  -6   1   1   47.54   10.66
  -6   1   1   49.81   13.72
  -6   1   1   38.82   14.31
   6  -1  -1   53.26   13.27
   6  -1  -1   55.08   10.73
   6  -1  -1   55.73   15.54
   6  -1  -1   43.57   14.11
   6  -1  -1   62.36   14.96
  -6   1   0  118.55   18.14
  -6   1   0  150.22   15.48
  -6   1   0  167.78   20.35
  -6   1   0  160.88   22.24
   6  -1   0  168.23   19.05
   6  -1   0  180.78   16.71
   6  -1   0  145.14   21.39
   6  -1   0  174.21   21.46
  -6   1  -1  255.56   23.35
  -6   1  -1  259.79   17.88
  -6   1  -1  243.14   21.52
  -6   1  -1  221.29   25.10
   6  -1   1  241.13   21.85
   6  -1   1  261.42   19.77
   6  -1   1  181.30   21.91
   6  -1   1  263.56   24.58
  -6   1  -2   35.12   13.46
  -6   1  -2   56.58   11.77
  -6   1  -2   34.47   12.03
  -6   1  -2   20.81   13.33
   6  -1   2   40.64   12.29
   6  -1   2   28.94   10.73
   6  -1   2   48.71   16.32
   6  -1   2   48.25   14.50
  -6   1  -3   71.40   15.87
  -6   1  -3   92.28   14.44
  -6   1  -3   81.74   15.87
  -6   1  -3   88.96   19.38
   6  -1   3   76.80   16.84
   6  -1   3   81.94   16.00
   6  -1   3   81.61   17.43
  -6   1  -4  311.75   26.86
  -6   1  -4  381.85   24.13
  -6   1  -4  299.07   24.13
  -6   1  -4  344.72   30.30
   6  -1   4  353.56   26.08
   6  -1   4  358.38   27.18
   6  -1   4  213.43   26.53
   6  -1   4  357.59   28.68
  -6   1  -5   74.13   17.62
  -6   1  -5   97.80   17.10
  -6   1  -5   80.31   16.58
  -6   1  -5   83.24   19.96
   6  -1   5  105.61   18.60
   6  -1   5   83.37   23.09
   6  -1   5   43.76   24.71
  -6   1  -6   22.76   15.22
  -6   1  -6   21.46   14.24
  -6   1  -6    7.48   12.16
  -6   1  -6   15.54   16.71
   6  -1   6    6.37   11.84
   6  -1   6   18.86   13.33
   6  -1   6   19.05   14.76
  -6   1  -7  143.65   23.61
  -6   1  -7  190.34   24.06
  -6   1  -7  178.63   22.37
  -6   1  -7  175.90   36.61
   6  -1   7  161.79   23.80
   6  -1   7  165.95   25.36
   6  -1   7  102.16   21.39
  -6   1  -8   28.29   16.84
  -6   1  -8   36.03   16.65
   6  -1   8   28.81   14.63
   6  -1   8   26.60   20.16
  -6   1  -9   68.22   20.81
  -6   1  -9   89.87   22.30
   6  -1   9   81.22   20.22
   6  -1   9   63.53   22.30
  -6   1 -10    5.14   16.32
  -6   1 -10   -7.15   21.65
   6  -1  10   -2.34   14.37
   6  -1  10   -8.32   19.70
  -6   1 -11    7.35   17.43
   6  -1  11   11.25   16.32
   6  -1  11   -6.70   19.77
  -6   0  13   52.74   18.92
  -6   0  13   71.66   25.30
  -6   0  13   77.19   24.97
   6   0 -13   85.58   25.23
   6   0 -13  100.40   30.30
   6   0 -13   66.72   20.42
  -6   0  12  202.11   27.18
  -6   0  12  243.53   33.23
  -6   0  12  247.57   33.10
   6   0 -12  275.79   33.88
   6   0 -12  264.08   30.69
   6   0 -12  221.10   32.12
   6   0 -12  270.72   28.87
  -6   0  11   16.39   13.40
  -6   0  11   25.69   18.53
  -6   0  11   21.52   17.30
   6   0 -11   28.61   17.75
   6   0 -11   28.09   16.19
   6   0 -11    7.09   15.28
   6   0 -11   10.01   13.40
  -6   0  10  354.08   28.87
  -6   0  10  396.81   35.25
  -6   0  10  397.13   33.88
   6   0 -10  455.33   35.31
   6   0 -10  442.46   32.51
   6   0 -10  439.73   34.34
   6   0 -10  385.56   27.90
  -6   0   9  346.08   27.77
  -6   0   9  278.45   30.43
  -6   0   9  280.08   27.57
   6   0  -9  321.70   29.52
   6   0  -9  321.44   29.07
   6   0  -9  369.17   36.29
   6   0  -9  320.27   28.94
   6   0  -9  283.40   23.87
  -6   0   8  101.71   18.60
  -6   0   8  111.72   20.55
  -6   0   8   97.28   18.73
   6   0  -8  125.57   22.17
   6   0  -8  128.63   17.49
   6   0  -8  106.26   19.90
   6   0  -8  127.59   18.08
  -6   0   7   11.58   10.53
  -6   0   7   -0.39   11.25
  -6   0   7   12.23   10.34
   6   0  -7    1.76    9.10
   6   0  -7   16.13   13.20
   6   0  -7   16.52   10.86
   6   0  -7    1.56   10.73
   6   0  -7    7.87    9.10
  -6   0   6  264.86   23.61
  -6   0   6  290.88   26.21
  -6   0   6  242.88   23.54
   6   0  -6  269.68   23.09
   6   0  -6  309.02   26.66
   6   0  -6  301.99   23.54
   6   0  -6  313.31   26.53
   6   0  -6  270.00   21.00
  -6   0   5   45.26   12.68
  -6   0   5   47.73   14.70
  -6   0   5   58.85   14.18
  -6   0   5   53.52   19.25
   6   0  -5   59.05   14.89
   6   0  -5   60.80   15.93
   6   0  -5   61.19   15.09
   6   0  -5   69.06   15.93
   6   0  -5   66.59   13.14
  -6   0   4   12.16   10.14
  -6   0   4   14.70   11.12
  -6   0   4    8.26    9.62
  -6   0   4   16.19   11.90
   6   0  -4   14.89    9.49
   6   0  -4    5.79    9.88
   6   0  -4   10.47   11.77
   6   0  -4   14.63   10.60
  -6   0   3  179.81   20.09
  -6   0   3  185.72   20.74
  -6   0   3  218.04   20.68
  -6   0   3  215.44   22.83
   6   0  -3  205.75   19.64
   6   0  -3  223.63   22.04
   6   0  -3  235.54   22.04
  -6   0   2  410.59   25.69
  -6   0   2  388.35   25.36
  -6   0   2  404.35   27.57
   6   0  -2  409.94   25.17
   6   0  -2  310.38   25.04
   6   0  -2  426.46   27.31
  -6   0   1  197.36   20.48
  -6   0   1  229.94   18.53
  -6   0   1  200.22   20.16
  -6   0   1  184.42   21.91
   6   0  -1  194.44   19.18
   6   0  -1  213.36   14.76
   6   0  -1  195.80   25.10
   6   0  -1  216.42   21.85
  -6   0   0    7.35   10.08
  -6   0   0   14.96   10.01
  -6   0   0   24.00   11.05
  -6   0   0   12.68   12.23
   6   0   0   17.49    9.75
   6   0   0   24.19    7.93
   6   0   0   18.66   12.29
   6   0   0   21.13   11.45
  -6   0  -1  169.40   20.03
  -6   0  -1  174.67   17.69
  -6   0  -1  184.55   19.38
  -6   0  -1  153.86   20.74
   6   0   1  171.94   19.18
   6   0   1  207.51   16.97
   6   0   1  112.05   19.38
   6   0   1  183.51   21.59
  -6   0  -2  219.08   21.65
  -6   0  -2  258.10   20.03
  -6   0  -2  253.22   20.68
  -6   0  -2  219.02   23.67
   6   0   2  250.17   21.85
   6   0   2  275.53   19.96
   6   0   2  123.95   19.77
   6   0   2  254.78   24.13
  -6   0  -3  134.42   19.64
  -6   0  -3  127.00   16.97
  -6   0  -3  113.22   15.93
  -6   0  -3   98.06   17.82
   6   0   3  125.44   18.47
   6   0   3  119.33   16.65
   6   0   3   48.25   14.70
   6   0   3  120.50   19.31
  -6   0  -4   77.12   16.45
  -6   0  -4  100.86   16.91
  -6   0  -4   82.20   14.76
  -6   0  -4   83.24   17.56
   6   0   4   74.59   15.67
   6   0   4   80.90   16.52
   6   0   4   85.77   17.95
  -6   0  -5  210.43   24.00
  -6   0  -5  235.41   23.15
  -6   0  -5  235.99   20.87
  -6   0  -5  245.09   27.90
   6   0   5  213.88   22.24
   6   0   5  221.42   24.00
   6   0   5   63.14   15.87
   6   0   5  240.09   25.88
  -6   0  -6   65.16   16.97
  -6   0  -6   91.69   17.95
  -6   0  -6   86.23   15.80
  -6   0  -6   92.47   20.81
   6   0   6   72.44   17.04
   6   0   6   75.63   22.83
   6   0   6   99.95   24.65
   6   0   6   67.04   18.21
  -6   0  -7  -11.71   11.58
  -6   0  -7   -8.71   13.98
   6   0   7    7.41   11.84
   6   0   7    6.11   12.75
   6   0   7   10.40   12.62
  -6   0  -8    9.36   13.72
  -6   0  -8    4.03   15.87
   6   0   8  -10.60   11.77
   6   0   8   -6.44   14.24
   6   0   8   14.76   14.05
  -6   0  -9   77.64   19.77
  -6   0  -9   67.18   21.65
   6   0   9   97.28   22.44
   6   0   9   45.52   20.35
  -6   0 -10   63.27   19.77
  -6   0 -10   98.26   24.97
   6   0  10   59.18   20.22
   6   0  10   20.55   18.40
  -6   0 -11   13.98   18.08
  -6   0 -11    4.23   21.65
   6   0  11    2.93   14.57
   6   0  11  -10.73   25.23
  -6   0 -12   -7.09   16.65
  -6   0 -12   -9.88   24.06
   6   0  12    2.21   15.35
   6   0  12  -21.00   19.51
  -6  -1  13   -6.83   13.01
  -6  -1  13   -5.92   17.95
   6   1 -13   16.39   19.44
   6   1 -13   11.90   16.26
   6   1 -13    9.17   15.61
  -6  -1  12   26.40   15.61
  -6  -1  12   37.72   19.83
   6   1 -12   63.01   21.91
   6   1 -12   33.49   18.34
   6   1 -12   49.16   18.66
   6   1 -12   33.36   16.19
  -6  -1  11   55.60   17.62
  -6  -1  11   77.77   22.76
  -6  -1  11  111.72   24.45
   6   1 -11   76.67   22.24
   6   1 -11  100.14   21.13
   6   1 -11  104.89   23.87
   6   1 -11  114.32   22.24
  -6  -1  10   -3.97   10.86
  -6  -1  10   -7.61   14.50
  -6  -1  10    7.74   14.83
   6   1 -10   25.62   16.00
   6   1 -10    8.78   13.85
   6   1 -10    5.59   12.75
   6   1 -10   -6.57    9.95
  -6  -1   9   12.68   11.32
  -6  -1   9    2.54   14.83
  -6  -1   9   17.04   16.00
   6   1  -9   21.20   14.63
   6   1  -9    6.70   14.44
   6   1  -9    8.39   12.68
   6   1  -9   30.56   12.94
  -6  -1   8   94.16   17.56
  -6  -1   8  109.05   21.52
  -6  -1   8   85.77   19.51
   6   1  -8  134.61   21.78
   6   1  -8  117.05   15.80
   6   1  -8  101.38   19.31
   6   1  -8  111.92   18.73
  -6  -1   7  181.37   20.94
  -6  -1   7  161.79   23.48
  -6  -1   7  156.00   21.78
   6   1  -7  175.77   20.42
   6   1  -7  194.50   25.82
   6   1  -7  199.12   21.52
   6   1  -7  197.56   23.61
   6   1  -7  192.23   20.29
  -6  -1   6   39.02   12.29
  -6  -1   6   24.91   13.40
  -6  -1   6   -2.08    8.58
   6   1  -6   28.16   12.10
   6   1  -6   19.38   13.01
   6   1  -6    3.25    9.56
   6   1  -6   26.60   12.81
   6   1  -6   26.27   11.25
  -6  -1   5   34.14   12.29
  -6  -1   5   20.81   12.29
  -6  -1   5   21.26   11.05
   6   1  -5   19.18   10.79
   6   1  -5   32.19   13.01
   6   1  -5    5.53   10.73
   6   1  -5   39.54   12.81
   6   1  -5   30.43   11.05
  -6  -1   4    4.16    9.30
  -6  -1   4   -0.13    9.69
  -6  -1   4   16.39   10.14
   6   1  -4   12.10    9.36
   6   1  -4   13.92   11.71
   6   1  -4    1.04    9.10
  -6  -1   3   27.25   10.60
  -6  -1   3   26.34   12.03
  -6  -1   3   22.04   10.99
  -6  -1   3   27.70   11.97
   6   1  -3   10.73    8.71
   6   1  -3   14.70   11.45
   6   1  -3   32.38   11.32
  -6  -1   2    5.85    9.43
  -6  -1   2   15.48   10.73
  -6  -1   2    5.40    9.23
  -6  -1   2   15.93   11.32
   6   1  -2    8.32    7.80
   6   1  -2   -4.75   11.45
   6   1  -2    3.51    8.91
  -6  -1   1  505.21   27.18
  -6  -1   1  550.08   26.27
  -6  -1   1  529.27   26.34
  -6  -1   1  491.10   26.99
  -6  -1   1  535.90   29.39
   6   1  -1  512.36   27.05
   6   1  -1  301.47   25.04
   6   1  -1  571.35   30.04
  -6  -1   0  468.14   26.53
  -6  -1   0  537.01   25.30
  -6  -1   0  519.39   25.36
  -6  -1   0  461.97   28.29
   6   1   0  531.81   27.57
   6   1   0  534.86   20.35
   6   1   0  247.44   23.54
   6   1   0  507.55   29.00
  -6  -1  -1   13.14   10.73
  -6  -1  -1   33.16   11.38
  -6  -1  -1   35.57   10.53
  -6  -1  -1   10.08   11.84
   6   1   1    8.58    9.30
   6   1   1   31.86    9.10
   6   1   1   17.75   13.46
   6   1   1   24.06   11.58
  -6  -1  -2   19.77   11.19
  -6  -1  -2   10.53   10.21
  -6  -1  -2   14.96    9.69
  -6  -1  -2   -5.20    9.69
   6   1   2   18.86    9.56
   6   1   2    7.15    7.67
   6   1   2    7.02   10.66
   6   1   2   -3.06    9.30
  -6  -1  -3   22.50   11.64
  -6  -1  -3   50.33   13.53
  -6  -1  -3   36.22   10.92
  -6  -1  -3   24.45   12.36
   6   1   3   33.56   11.64
   6   1   3   22.50    9.30
   6   1   3    6.31    9.75
   6   1   3   38.76   13.98
  -6  -1  -4   95.40   16.78
  -6  -1  -4   76.80   15.67
  -6  -1  -4  104.24   14.24
  -6  -1  -4   75.82   16.91
   6   1   4   86.55   16.19
   6   1   4   62.56   13.40
   6   1   4   33.29   12.75
   6   1   4   96.18   18.27
  -6  -1  -5    9.36   11.12
  -6  -1  -5   12.29   12.03
  -6  -1  -5    6.50    9.17
  -6  -1  -5   11.84   13.72
   6   1   5   14.57   10.92
   6   1   5    7.35   10.79
   6   1   5   14.89   12.36
  -6  -1  -6    3.71   11.90
  -6  -1  -6   22.17   14.24
  -6  -1  -6    9.62   10.14
   6   1   6   23.67   12.42
   6   1   6    0.91   10.40
   6   1   6    5.98   10.79
   6   1   6   18.01   13.72
  -6  -1  -7   52.35   16.13
  -6  -1  -7   29.00   15.80
   6   1   7   48.97   15.22
   6   1   7   15.87   13.98
   6   1   7   23.09   14.63
   6   1   7   53.65   16.58
  -6  -1  -8   51.63   16.58
  -6  -1  -8   82.20   21.13
   6   1   8   62.23   16.26
   6   1   8   20.29   14.63
   6   1   8   38.89   13.66
  -6  -1  -9   20.22   15.67
  -6  -1  -9   29.07   18.73
   6   1   9   22.17   15.02
   6   1   9   -0.65   14.24
   6   1   9   19.57   13.59
  -6  -1 -10   28.16   17.04
  -6  -1 -10   42.98   21.72
   6   1  10   29.98   17.10
   6   1  10   -3.97   15.41
  -6  -1 -11   10.08   16.65
  -6  -1 -11    4.88   21.72
   6   1  11    2.86   15.02
   6   1  11    2.47   18.34
  -6  -1 -12   30.24   18.08
  -6  -1 -12   27.12   23.09
   6   1  12    6.11   16.84
   6   1  12  -24.00   18.60
  -6  -2  13    4.62   13.79
  -6  -2  13   -0.39   19.05
   6   2 -13    8.78   19.64
   6   2 -13   10.47   17.82
   6   2 -13   -9.95   14.18
  -6  -2  12   -4.36   13.27
  -6  -2  12    3.45   17.88
   6   2 -12    2.47   16.65
   6   2 -12    2.67   14.57
   6   2 -12    7.48   15.28
  -6  -2  11   -4.03   11.77
  -6  -2  11   -6.57   14.70
   6   2 -11    0.91   15.28
   6   2 -11    8.65   14.18
   6   2 -11    8.26   14.24
   6   2 -11    4.68   13.72
  -6  -2  10    7.28   12.49
  -6  -2  10   -0.98   14.18
   6   2 -10   13.59   15.02
   6   2 -10   25.30   14.70
   6   2 -10    0.98   13.14
   6   2 -10   -4.55   11.19
  -6  -2   9    2.02   10.34
  -6  -2   9    7.87   16.26
  -6  -2   9   12.03   14.70
   6   2  -9   -8.32   12.10
   6   2  -9    5.27   12.29
   6   2  -9   -3.58   11.32
   6   2  -9   12.23   11.71
  -6  -2   8   12.68   10.79
  -6  -2   8   11.71   14.57
  -6  -2   8   14.89   14.05
   6   2  -8   20.61   13.20
   6   2  -8   23.28   14.05
   6   2  -8    5.72   11.71
   6   2  -8    7.09   10.14
  -6  -2   7    4.49    9.95
  -6  -2   7    0.78   11.45
  -6  -2   7    5.98   12.68
   6   2  -7    1.04   15.15
   6   2  -7    3.38   10.34
   6   2  -7   -9.69   10.01
   6   2  -7   21.52   11.38
  -6  -2   6   18.73   10.60
  -6  -2   6   12.49   12.49
  -6  -2   6    9.95   11.19
   6   2  -6   20.87   10.73
   6   2  -6   17.56   11.97
   6   2  -6   16.97   10.79
   6   2  -6   19.90   11.64
   6   2  -6   13.66   10.86
  -6  -2   5  131.49   17.49
  -6  -2   5  152.36   21.07
  -6  -2   5  136.95   19.57
   6   2  -5  165.89   19.18
   6   2  -5  155.68   22.30
   6   2  -5  169.34   20.87
   6   2  -5  146.71   19.64
  -6  -2   4   73.29   14.11
  -6  -2   4  102.88   17.88
  -6  -2   4   63.66   14.57
   6   2  -4  115.30   18.27
   6   2  -4   63.08   15.09
   6   2  -4   85.51   15.61
  -6  -2   3  163.35   17.88
  -6  -2   3  152.75   19.05
  -6  -2   3  157.44   18.92
   6   2  -3  179.09   18.21
   6   2  -3  116.92   18.73
   6   2  -3  205.49   21.20
  -6  -2   2    8.97    8.91
  -6  -2   2    7.09    9.75
  -6  -2   2   11.12    9.17
  -6  -2   2   13.46   10.47
   6   2  -2    8.71    8.58
   6   2  -2   -5.40   10.27
   6   2  -2   14.89    9.49
  -6  -2   1  243.21   20.22
  -6  -2   1  213.43   21.39
  -6  -2   1  241.45   20.42
  -6  -2   1  215.70   20.03
  -6  -2   1  239.37   22.17
   6   2  -1  235.21   20.09
   6   2  -1   69.84   15.41
   6   2  -1  248.48   22.17
   6   2  -1  242.49   22.24
  -6  -2   0  627.34   28.68
  -6  -2   0  655.69   28.87
  -6  -2   0  630.52   26.34
  -6  -2   0  613.61   28.87
  -6  -2   0  570.83   29.33
   6   2   0  631.17   29.20
   6   2   0  657.05   19.90
   6   2   0  158.22   19.57
   6   2   0  661.74   31.08
   6   2   0  549.50   28.16
  -6  -2  -1  228.25   20.22
  -6  -2  -1  274.36   21.33
  -6  -2  -1  239.11   17.88
  -6  -2  -1  231.18   19.70
  -6  -2  -1  193.98   21.78
   6   2   1  266.55   21.33
   6   2   1  249.00   15.93
   6   2   1   67.96   16.00
   6   2   1  266.23   22.76
   6   2   1  197.88   20.42
  -6  -2  -2    5.98    9.75
  -6  -2  -2    3.58    9.69
  -6  -2  -2    5.92    7.61
  -6  -2  -2   -1.82    7.87
  -6  -2  -2   -8.45    9.17
   6   2   2    0.13    8.00
   6   2   2    7.15    7.28
   6   2   2    1.95   10.60
   6   2   2    3.25    9.82
  -6  -2  -3   43.37   12.36
  -6  -2  -3   41.94   13.01
  -6  -2  -3   55.73   10.73
  -6  -2  -3   55.21   14.44
   6   2   3   58.98   13.53
   6   2   3    5.20    7.41
   6   2   3   15.67   10.34
   6   2   3   55.99   14.44
  -6  -2  -4   96.96   16.45
  -6  -2  -4  101.71   17.36
  -6  -2  -4  112.50   13.20
  -6  -2  -4  108.53   18.08
   6   2   4  130.58   18.40
   6   2   4    7.15    7.35
   6   2   4   33.10   12.29
   6   2   4  106.06   18.21
  -6  -2  -5   57.81   14.11
  -6  -2  -5   45.98   14.83
   6   2   5   31.80   12.36
   6   2   5   -1.82    7.28
   6   2   5    6.37    9.88
   6   2   5   59.31   15.28
  -6  -2  -6   20.29   11.64
  -6  -2  -6   16.78   13.92
   6   2   6   14.31   11.58
   6   2   6    5.98    9.36
   6   2   6   11.38   11.25
   6   2   6   26.60   13.01
  -6  -2  -7  126.74   21.33
  -6  -2  -7  148.40   22.11
   6   2   7  127.52   20.09
   6   2   7  -28.09   11.51
   6   2   7   79.92   18.60
   6   2   7  129.15   21.26
  -6  -2  -8    5.07   12.16
  -6  -2  -8    8.00   15.61
   6   2   8   12.49   12.29
   6   2   8    7.15   11.25
   6   2   8    2.28   11.58
   6   2   8   -1.04   11.51
  -6  -2  -9   92.80   19.44
  -6  -2  -9  108.47   23.67
   6   2   9  105.09   21.00
   6   2   9   12.68   15.48
   6   2   9   80.57   18.08
   6   2   9   82.78   20.29
  -6  -2 -10   12.75   14.89
  -6  -2 -10   17.95   19.18
   6   2  10   15.80   14.96
   6   2  10   -0.98   15.80
   6   2  10   32.12   16.78
  -6  -2 -11   78.56   20.74
  -6  -2 -11   70.95   24.71
   6   2  11   61.45   20.03
   6   2  11   13.72   15.22
  -6  -2 -12   11.19   15.93
  -6  -2 -12   17.95   24.13
   6   2  12    7.28   16.39
   6   2  12   13.98   20.03
  -6  -2 -13    4.36   16.78
  -6  -2 -13   33.62   26.01
   6   2  13   -8.26   15.67
   6   2  13    6.89   20.68
  -6  -3  12    1.56   18.08
   6   3 -12   -2.67   17.69
   6   3 -12   -2.54   14.31
   6   3 -12    4.16   16.06
  -6  -3  11   14.57   12.68
  -6  -3  11    8.71   17.43
   6   3 -11    6.11   16.71
   6   3 -11  -10.99   13.07
   6   3 -11  -14.37   13.01
  -6  -3  10   56.12   15.41
  -6  -3  10   70.62   21.72
   6   3 -10   53.78   19.70
   6   3 -10   43.18   16.58
   6   3 -10   42.79   17.49
   6   3 -10   39.28   15.67
  -6  -3   9    2.99    9.88
  -6  -3   9   -8.91   13.79
   6   3  -9    0.59   13.53
   6   3  -9    2.15   13.07
   6   3  -9   -2.54   11.77
   6   3  -9    2.34   10.40
  -6  -3   8    6.24    9.43
  -6  -3   8   17.75   14.31
   6   3  -8   11.32   13.07
   6   3  -8   12.36   14.05
   6   3  -8   16.26   13.07
   6   3  -8    1.37    9.49
  -6  -3   7   27.83   11.97
  -6  -3   7   33.10   15.28
  -6  -3   7   31.93   14.44
   6   3  -7   22.37   13.59
   6   3  -7   39.34   13.72
   6   3  -7   31.47   13.40
  -6  -3   6   41.55   11.64
  -6  -3   6   39.28   15.28
  -6  -3   6   53.78   15.54
   6   3  -6   39.60   12.75
   6   3  -6   68.35   16.78
   6   3  -6   51.50   14.96
   6   3  -6   41.88   13.27
  -6  -3   5    3.71    8.13
  -6  -3   5    0.07   10.53
  -6  -3   5   11.64   10.40
   6   3  -5    4.42    8.71
   6   3  -5    2.54   11.12
   6   3  -5    0.59    9.30
   6   3  -5   -3.64    7.61
  -6  -3   4   10.73    8.65
  -6  -3   4   -3.64   10.47
  -6  -3   4   12.81   10.47
   6   3  -4   12.29    9.56
   6   3  -4    4.55   10.60
   6   3  -4    5.92    8.91
   6   3  -4   13.98    9.62
  -6  -3   3   82.59   13.46
  -6  -3   3  100.99   17.30
  -6  -3   3   75.17   14.89
   6   3  -3   82.78   14.31
   6   3  -3   32.58   12.36
   6   3  -3  109.90   17.36
  -6  -3   2   85.64   13.66
  -6  -3   2   77.58   14.05
  -6  -3   2   67.31   14.50
   6   3  -2   96.96   15.15
   6   3  -2   30.24   12.23
   6   3  -2   69.32   14.11
  -6  -3   1   69.84   12.36
  -6  -3   1   81.42   15.80
  -6  -3   1   63.14   13.01
  -6  -3   1   60.80   14.37
   6   3  -1   69.45   13.66
   6   3  -1    5.40   11.05
   6   3  -1   69.84   14.37
  -6  -3   0    1.50    8.06
  -6  -3   0   -2.41   10.27
  -6  -3   0   -1.63    8.06
  -6  -3   0   -0.33    8.32
  -6  -3   0    3.90    9.49
   6   3   0   -5.72    7.67
   6   3   0    8.97   10.21
   6   3   0   -0.65    7.93
   6   3   0    3.12    8.32
  -6  -3  -1  187.15   18.34
  -6  -3  -1  202.37   21.26
  -6  -3  -1  204.45   16.58
  -6  -3  -1  193.46   18.60
  -6  -3  -1  196.19   19.44
   6   3   1  193.66   18.73
   6   3   1   37.91    8.52
   6   3   1   44.87   13.40
   6   3   1  209.98   20.48
   6   3   1  182.41   19.18
  -6  -3  -2  169.21   18.01
  -6  -3  -2  204.06   21.07
  -6  -3  -2  199.12   15.48
  -6  -3  -2  193.07   18.01
  -6  -3  -2  157.96   19.31
   6   3   2  190.80   19.12
   6   3   2   -6.05    5.72
   6   3   2   71.73   14.83
   6   3   2  199.12   20.68
  -6  -3  -3   -1.82    8.19
  -6  -3  -3   -0.65   10.53
  -6  -3  -3   -3.84    6.11
  -6  -3  -3   -2.67    7.41
  -6  -3  -3   -8.26    9.88
   6   3   3   -0.85    8.13
   6   3   3    1.82    5.98
   6   3   3   -0.98    8.13
   6   3   3    8.19    9.30
  -6  -3  -4   50.14   12.75
  -6  -3  -4   48.45   14.89
  -6  -3  -4   43.50   11.12
   6   3   4   60.09   14.37
   6   3   4   34.86   12.75
   6   3   4   73.09   15.54
  -6  -3  -5   88.37   16.13
  -6  -3  -5  115.36   18.47
  -6  -3  -5   91.63   14.24
   6   3   5  113.54   18.08
   6   3   5   54.36   15.15
   6   3   5  104.18   18.53
  -6  -3  -6    8.26   10.08
  -6  -3  -6    1.50   12.29
   6   3   6    0.78    9.36
   6   3   6    0.46    9.62
   6   3   6   12.10   11.64
  -6  -3  -7  136.95   20.61
  -6  -3  -7  158.28   24.26
   6   3   7  166.67   22.89
   6   3   7  103.40   19.05
   6   3   7  144.36   21.91
  -6  -3  -8    9.30   12.36
  -6  -3  -8   -2.80   14.57
   6   3   8    7.80   11.45
   6   3   8   19.57   14.76
   6   3   8    1.43   12.03
  -6  -3  -9   47.21   16.32
  -6  -3  -9   76.67   22.70
   6   3   9   38.17   15.80
   6   3   9   48.12   15.80
   6   3   9   74.72   19.18
  -6  -3 -10   13.72   14.31
  -6  -3 -10   -6.37   17.43
   6   3  10    5.33   12.81
   6   3  10   -3.38   11.45
   6   3  10    4.94   12.42
   6   3  10    4.88   13.27
  -6  -3 -11   35.31   17.56
  -6  -3 -11   49.62   23.15
   6   3  11   24.91   16.39
   6   3  11   -3.06   13.40
   6   3  11   25.69   15.02
  -6  -3 -12   44.22   19.05
  -6  -3 -12   95.72   28.16
   6   3  12   75.24   22.11
   6   3  12    4.88   15.54
  -6  -3 -13  -17.82   14.76
  -6  -3 -13   -3.77   23.02
   6   3  13   -9.36   15.54
   6   3  13   29.39   20.35
  -6  -4  12   91.04   26.27
   6   4 -12  114.06   27.12
   6   4 -12   59.18   21.07
   6   4 -12   54.30   21.33
  -6  -4  11   53.91   22.50
   6   4 -11   42.85   20.87
   6   4 -11   35.90   18.34
   6   4 -11   29.39   18.73
  -6  -4  10   25.36   19.31
   6   4 -10   31.02   18.08
   6   4 -10   20.68   15.41
   6   4 -10   21.59   15.02
  -6  -4   9    5.14   11.58
  -6  -4   9   12.75   14.96
   6   4  -9    8.26   13.92
   6   4  -9   15.41   13.53
   6   4  -9    4.42   12.62
   6   4  -9   -0.72   11.84
  -6  -4   8    1.04    9.69
  -6  -4   8   -6.70   12.16
   6   4  -8   -2.21   11.45
   6   4  -8   13.59   13.59
   6   4  -8    2.41   11.25
   6   4  -8   13.53   11.64
  -6  -4   7   49.94   12.42
  -6  -4   7   31.99   15.93
   6   4  -7   42.27   15.02
   6   4  -7   73.87   17.49
   6   4  -7   40.84   14.83
  -6  -4   6   74.52   13.01
  -6  -4   6   66.78   17.36
   6   4  -6   80.31   15.87
   6   4  -6   78.30   18.40
   6   4  -6   81.74   16.84
   6   4  -6   89.35   18.01
  -6  -4   5   30.50    9.36
  -6  -4   5   36.03   13.66
   6   4  -5   36.42   11.64
   6   4  -5   26.79   13.27
   6   4  -5   45.98   13.66
   6   4  -5   44.41   14.31
  -6  -4   4    8.71    7.87
  -6  -4   4   21.98   11.51
   6   4  -4   24.13   10.60
   6   4  -4    6.70   10.79
   6   4  -4   17.23   10.79
   6   4  -4   28.22   12.36
  -6  -4   3   18.27    8.71
  -6  -4   3   24.13   11.77
  -6  -4   3    2.86    9.30
   6   4  -3   21.98   10.21
   6   4  -3   -9.10    8.52
   6   4  -3   24.52   10.66
  -6  -4   2   71.53   11.97
  -6  -4   2   98.19   15.54
  -6  -4   2   61.39   14.57
   6   4  -2   86.68   14.63
   6   4  -2    9.36    9.17
   6   4  -2   74.91   14.50
  -6  -4   1    9.69    8.00
  -6  -4   1   25.69   12.42
  -6  -4   1   17.23    9.56
  -6  -4   1    6.50    9.23
   6   4  -1   12.55    8.78
   6   4  -1   -4.55    7.87
   6   4  -1   10.53    9.75
  -6  -4   0   35.77    9.88
  -6  -4   0   39.28   14.31
  -6  -4   0   45.13   11.25
  -6  -4   0   39.73   12.03
   6   4   0   45.72   11.77
   6   4   0    4.94   10.01
   6   4   0   44.87   12.29
  -6  -4  -1  338.80   20.35
  -6  -4  -1  397.98   26.92
  -6  -4  -1  347.65   19.31
  -6  -4  -1  325.34   22.30
   6   4   1  346.54   22.11
   6   4   1  139.23   22.24
   6   4   1  385.49   24.13
   6   4   1  332.10   34.86
  -6  -4  -2  298.42   20.22
  -6  -4  -2  331.06   25.56
  -6  -4  -2  291.98   16.58
  -6  -4  -2  288.08   20.94
   6   4   2  334.38   22.50
   6   4   2  147.23   21.26
   6   4   2  327.03   23.09
  -6  -4  -3   10.34    8.97
  -6  -4  -3    1.89   10.73
  -6  -4  -3   15.28    8.91
   6   4   3   10.40    9.23
   6   4   3   -0.13    8.91
   6   4   3    9.75   10.14
  -6  -4  -4   31.28   10.92
  -6  -4  -4   33.69   13.85
  -6  -4  -4   49.68   11.51
   6   4   4   44.48   12.81
   6   4   4   32.38   13.20
   6   4   4   47.41   13.20
  -6  -4  -5   54.17   13.33
  -6  -4  -5   52.80   15.74
  -6  -4  -5   36.68   10.27
   6   4   5   47.21   13.40
   6   4   5   53.00   14.50
   6   4   5   47.28   14.05
  -6  -4  -6  139.23   18.60
  -6  -4  -6  124.66   20.48
  -6  -4  -6  116.86   14.76
   6   4   6  146.71   21.07
   6   4   6  116.40   19.57
   6   4   6  142.87   20.22
  -6  -4  -7   -5.79    9.75
  -6  -4  -7   -0.07   13.79
  -6  -4  -7    2.08    7.48
   6   4   7   -1.37   10.40
   6   4   7   -1.56   10.66
   6   4   7    8.78   11.58
  -6  -4  -8  126.81   20.48
  -6  -4  -8  142.35   23.74
   6   4   8  155.55   23.15
   6   4   8  152.62   25.88
   6   4   8  141.44   22.17
  -6  -4  -9   94.81   18.60
  -6  -4  -9  124.99   23.61
   6   4   9  124.66   22.63
   6   4   9  101.38   19.96
   6   4   9  107.36   21.13
  -6  -4 -10   39.93   16.45
  -6  -4 -10   43.37   20.03
   6   4  10   37.91   16.71
   6   4  10   38.37   16.52
   6   4  10   50.20   18.08
  -6  -4 -11   21.52   15.22
  -6  -4 -11   41.62   23.09
   6   4  11   35.05   17.75
   6   4  11   30.17   17.10
   6   4  11   32.45   17.56
  -6  -4 -12   90.52   21.39
  -6  -4 -12  145.47   30.24
   6   4  12  105.28   24.06
   6   4  12   88.44   20.42
  -6  -4 -13   71.99   21.33
  -6  -4 -13   31.93   24.97
   6   4  13   39.02   20.81
  -6  -4 -14   12.94   17.23
  -6  -4 -14    0.13   25.10
   6   4  14    5.33   19.44
  -6  -5  11  -14.76   17.49
   6   5 -11  -22.37   16.06
   6   5 -11   -3.77   14.50
   6   5 -11    0.00   17.75
  -6  -5  10   31.93   20.29
   6   5 -10   53.58   20.81
   6   5 -10   84.54   20.94
   6   5 -10   46.69   18.66
  -6  -5   9    9.23   16.91
   6   5  -9   16.78   16.19
   6   5  -9   14.70   13.46
   6   5  -9   14.70   13.92
  -6  -5   8   10.21   15.61
   6   5  -8   20.16   15.80
   6   5  -8   -1.76   12.29
   6   5  -8    0.33   12.29
   6   5  -8    8.06   12.10
  -6  -5   7   24.52   14.96
   6   5  -7   35.77   14.57
   6   5  -7   29.59   15.22
   6   5  -7   20.94   12.62
   6   5  -7   22.50   13.46
  -6  -5   6  205.36   25.43
   6   5  -6  216.94   21.85
   6   5  -6  158.48   22.24
   6   5  -6  208.35   22.70
   6   5  -6  192.55   23.67
  -6  -5   5  166.21   23.15
   6   5  -5  165.56   19.70
   6   5  -5  116.40   20.42
   6   5  -5  169.08   20.42
   6   5  -5  161.47   22.63
  -6  -5   4    2.08    9.88
   6   5  -4    8.84    9.04
   6   5  -4    5.07   10.27
   6   5  -4  -12.55    7.87
   6   5  -4   -1.82    9.69
  -6  -5   3    6.05    6.70
  -6  -5   3    5.92    9.88
   6   5  -3   10.60    8.58
   6   5  -3   11.32   10.79
   6   5  -3   12.36    9.88
   6   5  -3   15.15   11.38
  -6  -5   2   71.40   10.53
  -6  -5   2   78.16   16.06
   6   5  -2   74.00   13.53
   6   5  -2   11.38   10.40
   6   5  -2   89.15   15.61
  -6  -5   1   65.16   10.27
  -6  -5   1   94.68   18.60
  -6  -5   1   85.51   15.93
   6   5  -1   86.03   14.18
   6   5  -1   44.15   12.94
   6   5  -1   94.23   15.35
  -6  -5   0    3.25    6.70
  -6  -5   0    1.37   11.77
  -6  -5   0    8.58    9.30
   6   5   0    6.11    7.48
   6   5   0   -1.11    7.48
   6   5   0   13.20    8.78
  -6  -5  -1  159.39   14.44
  -6  -5  -1  182.02   22.70
  -6  -5  -1  118.35   16.84
   6   5   1  135.07   16.32
   6   5   1   99.17   17.56
   6   5   1  155.48   17.75
  -6  -5  -2  405.13   20.42
  -6  -5  -2  432.44   29.00
  -6  -5  -2  405.46   23.67
   6   5   2  469.18   24.97
   6   5   2  320.79   24.26
   6   5   2  422.10   24.84
  -6  -5  -3  320.72   19.77
  -6  -5  -3  311.55   26.21
  -6  -5  -3  295.56   20.68
   6   5   3  318.12   22.57
   6   5   3  246.59   22.44
   6   5   3  324.50   23.54
  -6  -5  -4   32.84   10.86
  -6  -5  -4   74.65   16.91
  -6  -5  -4   51.37   12.10
   6   5   4   48.45   12.62
   6   5   4   39.28   13.85
   6   5   4   39.41   12.03
  -6  -5  -5   19.83   10.08
  -6  -5  -5   18.27   13.92
  -6  -5  -5    4.81    8.32
   6   5   5   25.88   11.97
   6   5   5   18.99   12.42
   6   5   5   19.83   11.64
  -6  -5  -6   54.62   13.01
  -6  -5  -6   42.20   15.61
  -6  -5  -6   54.43   11.25
   6   5   6   51.96   14.24
   6   5   6   57.23   16.32
   6   5   6   63.79   15.02
  -6  -5  -7    7.28   10.40
  -6  -5  -7   34.66   16.58
  -6  -5  -7   25.36    9.69
   6   5   7   42.72   14.50
   6   5   7   24.45   13.40
   6   5   7   59.05   15.74
  -6  -5  -8   59.89   15.61
  -6  -5  -8   65.94   19.51
   6   5   8   74.85   17.10
   6   5   8   83.24   21.85
   6   5   8   79.08   18.47
  -6  -5  -9   -5.59   10.47
  -6  -5  -9   -8.65   14.83
   6   5   9    1.82   12.36
   6   5   9   -5.66   12.49
   6   5   9    4.81   11.45
  -6  -5 -10  211.34   24.45
  -6  -5 -10  221.49   31.34
   6   5  10  169.40   25.04
   6   5  10  193.72   27.05
   6   5  10  150.80   24.52
  -6  -5 -11   57.81   17.30
  -6  -5 -11   58.85   22.44
   6   5  11   58.20   19.57
   6   5  11   47.93   19.57
   6   5  11   28.29   17.36
  -6  -5 -12   21.00   16.00
  -6  -5 -12   12.23   20.68
   6   5  12   15.54   16.52
   6   5  12   22.44   16.78
   6   5  12   21.72   16.26
  -6  -5 -13   31.21   17.04
  -6  -5 -13   66.85   26.60
   6   5  13   47.02   21.33
   6   5  13   59.05   20.87
  -6  -5 -14   -5.27   16.26
  -6  -5 -14  -14.57   23.35
   6   5  14   17.69   19.44
  -6  -6  10   13.79   19.25
   6   6 -10   30.63   19.70
   6   6 -10   21.46   15.67
   6   6 -10   39.41   20.68
  -6  -6   9  229.16   33.03
   6   6  -9  247.37   31.21
   6   6  -9  195.54   26.60
   6   6  -9  232.02   32.71
  -6  -6   8  220.19   31.47
   6   6  -8  284.11   28.87
   6   6  -8  237.81   26.14
   6   6  -8  251.47   29.07
  -6  -6   7   31.41   17.23
   6   6  -7   44.48   15.41
   6   6  -7   18.99   13.98
   6   6  -7   23.87   13.14
   6   6  -7   25.75   13.79
  -6  -6   6   18.08   15.35
   6   6  -6   45.33   15.67
   6   6  -6   37.39   13.66
   6   6  -6   38.63   14.57
  -6  -6   5  294.13   29.13
   6   6  -5  295.69   23.41
   6   6  -5  104.63   18.86
   6   6  -5  273.12   23.54
   6   6  -5  240.35   25.82
  -6  -6   4  153.14   23.02
   6   6  -4  173.63   19.38
   6   6  -4   46.04   14.24
   6   6  -4  158.02   19.51
   6   6  -4  160.04   22.76
  -6  -6   3  108.53   20.35
   6   6  -3  107.10   16.45
   6   6  -3   13.20   11.38
   6   6  -3   81.81   15.15
   6   6  -3   89.35   17.69
  -6  -6   2   65.81   16.06
   6   6  -2   69.91   13.66
   6   6  -2   19.77   11.19
   6   6  -2   96.89   15.80
  -6  -6   1  409.55   31.02
  -6  -6   1  335.68   25.43
   6   6  -1  419.50   23.15
   6   6  -1  159.19   19.31
   6   6  -1  406.63   23.67
  -6  -6   0  247.50   26.40
  -6  -6   0  205.69   20.87
   6   6   0  232.87   18.99
   6   6   0  159.58   19.31
   6   6   0  221.23   19.64
  -6  -6  -1  -13.27   12.03
  -6  -6  -1    8.65    9.23
   6   6   1  -11.64    7.02
   6   6   1    1.89    9.17
   6   6   1   -2.93    7.54
  -6  -6  -2  155.55   21.85
  -6  -6  -2  137.60   18.21
   6   6   2  192.68   18.21
   6   6   2  153.01   21.26
   6   6   2  188.78   18.92
  -6  -6  -3  416.90   30.30
  -6  -6  -3  354.28   22.37
   6   6   3  400.25   23.80
   6   6   3  358.70   26.34
   6   6   3  406.11   24.65
  -6  -6  -4   65.16   11.51
  -6  -6  -4   82.07   18.34
  -6  -6  -4   84.41   14.05
   6   6   4   88.37   15.74
   6   6   4   75.04   16.00
   6   6   4   75.76   15.35
  -6  -6  -5   -1.76    7.54
  -6  -6  -5    6.96   12.88
  -6  -6  -5   -9.36    7.15
   6   6   5    4.62    9.23
   6   6   5   -3.84   10.34
   6   6   5   13.85   10.14
  -6  -6  -6   -2.67    8.65
  -6  -6  -6   -9.56   12.49
  -6  -6  -6   12.16    8.00
   6   6   6   12.75   11.19
   6   6   6    9.10   13.53
   6   6   6    9.62   10.34
  -6  -6  -7  104.11   16.00
  -6  -6  -7  114.39   21.65
   6   6   7  133.44   20.16
   6   6   7  135.07   23.61
   6   6   7  112.37   19.05
  -6  -6  -8    7.87   11.32
  -6  -6  -8   20.42   17.30
   6   6   8   13.40   13.01
   6   6   8   31.41   17.49
   6   6   8   16.84   12.88
  -6  -6  -9   17.49   11.58
  -6  -6  -9   12.68   16.78
   6   6   9  -16.19   10.27
   6   6   9   -1.50   13.85
   6   6   9    3.32   11.77
  -6  -6 -10   47.67   15.67
  -6  -6 -10   98.32   25.43
   6   6  10   68.35   18.66
   6   6  10   83.17   21.52
   6   6  10   62.95   18.27
  -6  -6 -11   39.08   15.87
  -6  -6 -11   41.49   22.89
   6   6  11   38.69   17.69
   6   6  11   60.28   21.13
   6   6  11   32.97   17.04
  -6  -6 -12    2.73   12.94
  -6  -6 -12   35.05   23.80
   6   6  12    0.85   15.61
   6   6  12   -3.90   15.48
   6   6  12   34.92   17.17
  -6  -6 -13   -5.07   14.50
  -6  -6 -13   15.22   22.63
   6   6  13  -16.39   16.19
   6   6  13    9.04   16.58
   6   6  13    3.71   16.91
  -6  -6 -14   20.55   17.75
  -6  -6 -14   44.41   28.74
   6   6  14   -8.78   18.14
   6   6  14   12.10   18.86
   6   6  14    3.32   20.22
  -6  -7   9   17.62   20.22
   6   7  -9   13.53   13.66
   6   7  -9   12.36   15.15
  -6  -7   8    3.45   17.75
   6   7  -8   16.71   16.06
   6   7  -8    8.91   12.88
   6   7  -8   19.31   15.67
  -6  -7   7   74.72   22.63
   6   7  -7   64.05   17.56
   6   7  -7   51.44   16.06
   6   7  -7   62.88   19.38
  -6  -7   6   32.25   17.43
   6   7  -6   22.96   13.72
   6   7  -6   11.58   13.01
   6   7  -6   13.27   12.55
   6   7  -6    9.56   13.01
  -6  -7   5    7.87   14.11
   6   7  -5   19.57   11.51
   6   7  -5  -11.45    9.95
   6   7  -5   17.17   10.79
   6   7  -5   17.30   12.68
  -6  -7   4   49.16   17.95
   6   7  -4   60.93   14.37
   6   7  -4   16.26   11.84
   6   7  -4   43.50   12.16
   6   7  -4   50.20   16.13
  -6  -7   3  117.83   22.24
   6   7  -3  107.49   16.13
   6   7  -3   19.38   11.32
   6   7  -3  110.94   16.91
   6   7  -3   81.81   18.86
  -6  -7   2   65.61   17.88
   6   7  -2   50.66   12.68
   6   7  -2   26.60   14.63
   6   7  -2   56.06   12.62
   6   7  -2   47.08   14.63
  -6  -7   1   20.48   15.41
  -6  -7   1   -1.17   10.34
   6   7  -1   18.21    9.17
   6   7  -1    6.63    9.04
   6   7  -1   11.25    8.39
  -6  -7   0  311.03   29.91
  -6  -7   0  266.36   24.26
   6   7   0  304.01   20.42
   6   7   0  220.32   22.57
   6   7   0  295.30   20.74
  -6  -7  -1  301.34   29.00
  -6  -7  -1  289.57   24.06
   6   7   1  329.57   21.33
   6   7   1  317.67   25.69
   6   7   1  356.10   22.11
  -6  -7  -2    3.12   12.75
  -6  -7  -2    7.54   10.08
   6   7   2    4.81    9.17
   6   7   2    7.74   11.45
   6   7   2    7.09    8.71
  -6  -7  -3  432.64   31.60
  -6  -7  -3  374.57   23.80
   6   7   3  417.23   23.93
   6   7   3  401.10   28.35
   6   7   3  420.54   24.19
  -6  -7  -4  275.14   28.22
  -6  -7  -4  276.31   20.68
   6   7   4  292.57   21.98
   6   7   4  296.60   25.95
   6   7   4  322.48   23.02
  -6  -7  -5  117.70   20.68
  -6  -7  -5  112.96   15.80
   6   7   5  106.39   16.91
   6   7   5   99.43   19.90
   6   7   5  113.80   17.23
  -6  -7  -6    3.64   12.88
  -6  -7  -6    1.24    7.80
   6   7   6    6.50   10.14
   6   7   6    6.31   12.36
   6   7   6    5.01   10.60
  -6  -7  -7  160.49   17.17
  -6  -7  -7  175.19   26.27
   6   7   7  182.08   23.09
   6   7   7  212.84   29.00
   6   7   7  162.83   22.37
  -6  -7  -8   40.25   12.36
  -6  -7  -8   36.35   17.88
   6   7   8   53.00   16.00
   6   7   8   46.11   17.36
   6   7   8   50.59   14.89
  -6  -7  -9   10.53   11.38
  -6  -7  -9   36.55   20.61
   6   7   9   29.59   14.96
   6   7   9   23.61   16.71
   6   7   9    5.20   12.03
  -6  -7 -10    1.63   11.12
  -6  -7 -10   -0.78   19.25
   6   7  10   -4.75   13.14
   6   7  10    7.22   15.15
   6   7  10   -6.50   12.16
  -6  -7 -11   40.90   14.50
  -6  -7 -11   49.94   23.15
   6   7  11   74.33   20.55
   6   7  11   90.98   23.22
   6   7  11   55.73   18.40
  -6  -7 -12   56.64   16.71
  -6  -7 -12   36.68   23.54
   6   7  12   44.02   20.35
   6   7  12   27.83   18.40
   6   7  12   38.11   18.60
  -6  -7 -13    5.01   14.18
  -6  -7 -13  -20.68   20.94
   6   7  13   -5.98   16.06
   6   7  13  -11.58   16.52
   6   7  13   -5.27   14.96
  -6  -7 -14   19.38   16.19
  -6  -7 -14   37.46   26.27
   6   7  14    7.15   17.36
   6   7  14    7.35   18.73
   6   7  14    8.26   17.82
  -6  -8   8   -8.78   18.21
   6   8  -8    7.54   12.16
   6   8  -8    0.65   15.15
  -6  -8   7   -3.77   15.93
   6   8  -7   -2.73   11.12
   6   8  -7    8.97   12.94
  -6  -8   6    4.03   16.45
   6   8  -6    7.74   11.19
   6   8  -6    0.26   12.55
  -6  -8   5   -2.60   14.76
   6   8  -5   -0.78   10.60
   6   8  -5    2.02    9.17
   6   8  -5    8.52   12.49
  -6  -8   4    8.39   14.63
   6   8  -4    4.42   10.92
   6   8  -4   17.95   10.60
   6   8  -4   14.18   13.14
  -6  -8   3  166.28   25.36
   6   8  -3   38.30   13.07
   6   8  -3  147.55   18.14
   6   8  -3  129.99   22.24
  -6  -8   2  184.36   25.17
   6   8  -2  187.28   18.73
   6   8  -2   75.63   16.65
   6   8  -2  189.10   18.66
   6   8  -2  210.76   25.10
  -6  -8   1   25.17   13.46
   6   8  -1   19.44    9.56
   6   8  -1   24.84   12.49
   6   8  -1   26.79   10.21
   6   8  -1    9.36   11.84
  -6  -8   0  191.71   26.14
  -6  -8   0  188.58   23.35
   6   8   0  198.86   17.95
   6   8   0  173.43   24.52
   6   8   0  183.12   17.62
  -6  -8  -1  460.60   34.14
  -6  -8  -1  383.02   28.03
   6   8   1  447.33   23.28
   6   8   1  454.81   30.50
   6   8   1  475.04   24.00
  -6  -8  -2   86.49   20.03
  -6  -8  -2   69.91   16.00
   6   8   2  108.08   15.41
   6   8   2   88.89   17.88
   6   8   2   80.51   13.66
  -6  -8  -3  333.73   30.50
  -6  -8  -3  308.63   23.93
   6   8   3  330.93   21.78
   6   8   3  304.99   26.66
   6   8   3  333.86   21.78
  -6  -8  -4  527.71   35.18
  -6  -8  -4  428.22   25.10
   6   8   4  479.78   25.56
   6   8   4  492.34   32.71
   6   8   4  510.48   26.08
  -6  -8  -5  158.35   23.35
  -6  -8  -5  150.93   17.69
   6   8   5  167.32   19.70
   6   8   5  158.87   23.41
   6   8   5  152.56   19.31
  -6  -8  -6   -6.63   13.01
  -6  -8  -6    4.42    8.65
   6   8   6   -0.72   10.08
   6   8   6   21.39   14.83
   6   8   6   -2.60   10.01
  -6  -8  -7   22.44   16.13
   6   8   7   38.56   13.85
   6   8   7   33.56   15.87
   6   8   7   36.74   13.27
  -6  -8  -8   66.33   21.39
   6   8   8   63.14   16.58
   6   8   8   86.23   20.74
   6   8   8   70.17   16.06
  -6  -8  -9    4.36   15.35
   6   8   9    6.05   13.14
   6   8   9    0.00   14.83
   6   8   9   14.31   13.27
  -6  -8 -10   -5.33   16.45
   6   8  10  -11.19   12.62
   6   8  10  -15.93   13.59
   6   8  10   -0.72   12.03
  -6  -8 -11   82.85   25.36
   6   8  11  102.29   22.76
   6   8  11   67.18   22.76
   6   8  11   88.11   20.87
  -6  -8 -12   71.53   25.10
   6   8  12   83.11   22.44
   6   8  12   95.66   23.54
   6   8  12   84.60   22.04
  -6  -8 -13   22.11   24.26
   6   8  13   -1.43   16.32
   6   8  13   -6.63   16.45
   6   8  13    2.60   15.67
  -6  -8 -14   55.53   27.70
   6   8  14   37.91   21.78
   6   8  14   37.20   21.78
   6   8  14   54.75   21.46
  -6  -9   7  -10.14   17.17
   6   9  -7   11.45   12.55
   6   9  -7    7.35   15.54
  -6  -9   6   65.87   22.63
   6   9  -6   50.66   15.09
   6   9  -6   29.46   17.62
  -6  -9   5   21.65   18.40
   6   9  -5   17.56   10.66
   6   9  -5   19.57   15.41
  -6  -9   4  -20.22   13.07
   6   9  -4    3.12   11.97
   6   9  -4   -3.06    9.75
   6   9  -4    3.06   12.42
  -6  -9   3   53.78   19.25
   6   9  -3    9.69   11.32
   6   9  -3   64.77   20.22
  -6  -9   2  226.43   28.94
   6   9  -2  130.38   20.55
   6   9  -2  219.47   27.05
  -6  -9   1  109.38   21.59
   6   9  -1   83.89   18.08
   6   9  -1  105.93   20.55
  -6  -9   0   12.94   15.41
  -6  -9   0   -7.87   11.64
   6   9   0   -1.37   11.38
  -6  -9  -1   12.55   16.32
  -6  -9  -1   15.22   12.88
   6   9   1    4.49   12.23
  -6  -9  -2   22.96   16.00
  -6  -9  -2    7.61   11.71
   6   9   2   18.40   13.79
  -6  -9  -3   74.85   19.77
  -6  -9  -3   34.73   14.18
   6   9   3   43.57   13.79
   6   9   3   49.23   17.49
  -6  -9  -4   -0.46   14.44
  -6  -9  -4    2.34    9.95
   6   9   4    5.46    9.10
   6   9   4   11.51   12.75
   6   9   4    8.00    8.84
  -6  -9  -5    4.23   14.83
  -6  -9  -5   -3.90    9.17
   6   9   5    0.91   10.08
   6   9   5    4.81   13.07
   6   9   5    3.90    8.91
  -6  -9  -6   76.28   20.03
   6   9   6  100.73   16.91
   6   9   6   74.07   18.99
   6   9   6   68.15   15.02
  -6  -9  -7  225.26   29.33
   6   9   7  265.51   24.13
   6   9   7  255.17   28.94
   6   9   7  259.08   23.22
  -6  -9  -8   -0.78   16.71
   6   9   8    5.46   11.71
   6   9   8  -10.27   14.18
   6   9   8    9.75   10.92
  -6  -9  -9   -0.46   17.17
   6   9   9   18.66   13.92
   6   9   9   14.18   15.48
   6   9   9   20.55   13.07
  -6  -9 -10   44.41   21.65
   6   9  10   19.18   15.35
   6   9  10   36.81   18.21
   6   9  10   40.25   17.17
  -6  -9 -11   13.14   18.86
   6   9  11    7.74   15.09
   6   9  11   20.94   17.88
   6   9  11    8.00   13.27
  -6  -9 -12  106.26   27.83
   6   9  12  107.56   23.41
   6   9  12  110.03   26.27
   6   9  12   85.12   19.96
  -6  -9 -13   55.08   24.91
   6   9  13   29.65   19.64
   6   9  13   37.78   20.29
   6   9  13   46.17   18.73
  -6  -9 -14   15.48   24.91
   6   9  14    3.38   18.79
   6   9  14  -25.62   16.65
   6   9  14    9.23   17.23
  -6 -10   6   27.57   20.03
   6  10  -6   21.33   13.27
   6  10  -6   13.53   17.10
  -6 -10   5  104.18   26.86
   6  10  -5  121.41   26.86
  -6 -10   4   34.79   18.99
   6  10  -4   39.99   18.53
  -6 -10   3    0.26   16.39
   6  10  -3   -0.20   12.03
   6  10  -3   18.53   14.96
  -6 -10   2  109.96   23.15
   6  10  -2   81.29   17.75
   6  10  -2  106.78   22.30
  -6 -10   1  154.44   25.56
   6  10  -1  148.59   23.35
   6  10  -1  172.00   27.57
  -6 -10   0  119.20   26.14
  -6 -10   0   70.10   18.92
   6  10   0   94.88   20.48
   6  10   0   69.13   18.34
  -6 -10  -1    2.41   16.00
  -6 -10  -1   -3.77   12.10
   6  10   1   -3.32   11.71
  -6 -10  -2  174.28   27.38
  -6 -10  -2  146.90   22.11
   6  10   2  145.14   24.00
  -6 -10  -3  336.33   33.62
  -6 -10  -3  320.66   26.40
   6  10   3  331.91   29.98
  -6 -10  -4    8.91   16.58
  -6 -10  -4   13.59   11.58
   6  10   4    4.42   14.11
  -6 -10  -5   42.66   18.79
  -6 -10  -5   50.33   13.92
   6  10   5   21.39   16.39
  -6 -10  -6   77.06   21.52
   6  10   6   37.52   17.30
   6  10   6   54.30   13.40
  -6 -10  -7  138.51   26.73
   6  10   7  135.20   25.04
   6  10   7  137.54   19.05
  -6 -10  -8   -3.38   15.74
   6  10   8    4.55   12.36
   6  10   8    7.61   15.22
   6  10   8   16.84   11.71
  -6 -10  -9   27.96   19.25
   6  10   9   27.25   14.44
   6  10   9   19.18   16.97
   6  10   9   24.97   13.72
  -6 -10 -10   65.42   22.76
   6  10  10   77.45   19.77
   6  10  10   82.46   22.24
   6  10  10   85.32   18.60
  -6 -10 -11   11.25   21.52
   6  10  11    8.91   15.35
   6  10  11   10.08   16.13
   6  10  11   15.54   14.37
  -6 -10 -12   28.74   23.67
   6  10  12   21.85   18.21
   6  10  12    9.49   16.52
   6  10  12   -6.11   13.14
  -6 -10 -13   70.56   27.83
   6  10  13   76.54   24.39
   6  10  13   52.48   21.98
   6  10  13   76.60   21.72
  -6 -10 -14   71.53   29.33
   6  10  14   40.51   21.72
   6  10  14   28.09   20.03
   6  10  14   34.53   19.44
  -6 -11   4    6.37   16.26
   6  11  -4   10.66   16.84
  -6 -11   3    7.48   17.10
   6  11  -3   22.89   18.66
  -6 -11   2  -10.08   14.96
   6  11  -2   -9.36   20.74
   6  11  -2  -10.86   13.20
  -6 -11   1   39.02   18.34
   6  11  -1   42.20   16.78
   6  11  -1   17.36   15.61
  -6 -11   0  171.09   26.53
   6  11   0  188.91   26.99
   6  11   0  143.65   25.23
  -6 -11  -1   20.42   17.95
  -6 -11  -1  -10.40   12.55
   6  11   1   -8.45   12.42
   6  11   1   -2.80   12.88
  -6 -11  -2   37.20   19.77
  -6 -11  -2   15.80   14.37
   6  11   2    6.24   14.05
  -6 -11  -3   82.20   22.24
  -6 -11  -3   50.53   16.00
   6  11   3   65.81   19.44
  -6 -11  -4   59.18   21.13
  -6 -11  -4   70.82   17.04
   6  11   4   34.40   17.95
  -6 -11  -5   -0.26   15.87
  -6 -11  -5   38.50   20.74
   6  11   5    0.78   14.24
  -6 -11  -6   48.32   19.70
   6  11   6   64.25   19.77
  -6 -11  -7  134.42   26.01
   6  11   7  132.27   26.34
  -6 -11  -8   38.82   19.25
   6  11   8   67.89   21.20
   6  11   8   69.58   16.00
  -6 -11  -9  -13.20   16.00
   6  11   9    5.79   15.93
   6  11   9  -11.12   10.08
  -6 -11 -10    3.32   17.30
   6  11  10    9.17   15.80
   6  11  10   -5.66   10.99
  -6 -11 -11   60.80   24.71
   6  11  11   37.85   20.48
   6  11  11   57.42   17.88
  -6 -11 -12   61.13   24.91
   6  11  12   22.44   17.62
   6  11  12   31.99   16.52
  -6 -11 -13    1.69   22.70
   6  11  13    0.07   17.43
   6  11  13    8.32   17.69
   6  11  13   -4.10   14.31
  -6 -12   2  -15.48   15.61
   6  12  -2  -10.92   14.37
  -6 -12   1   -8.26   15.22
   6  12  -1    0.85   15.93
  -6 -12   0   92.34   23.67
   6  12   0   73.48   20.81
   6  12   0  101.71   24.19
  -6 -12  -1  130.38   25.36
   6  12   1  139.81   25.88
   6  12   1  107.04   23.80
  -6 -12  -2   35.77   21.07
  -6 -12  -2   16.19   15.48
   6  12   2   16.52   15.48
   6  12   2   17.30   16.19
  -6 -12  -3   30.89   21.52
  -6 -12  -3   17.10   16.26
   6  12   3   20.61   16.32
  -6 -12  -4  234.36   33.56
  -6 -12  -4  146.97   24.26
   6  12   4  143.91   26.34
  -6 -12  -5    7.80   18.01
   6  12   5    1.95   15.15
  -6 -12  -6   41.42   21.72
   6  12   6   11.25   16.45
  -6 -12  -7   42.79   20.22
   6  12   7   51.83   20.03
  -6 -12  -8  140.20   26.79
   6  12   8  114.32   26.99
  -6 -12  -9    1.82   18.01
   6  12   9   15.87   18.92
   6  12   9    3.32   11.58
  -6 -12 -10    2.02   18.86
   6  12  10   19.64   18.92
   6  12  10    2.28   12.10
  -6 -12 -11   80.25   24.97
   6  12  11   95.33   25.95
   6  12  11   86.62   19.57
  -6 -12 -12    2.99   20.48
   6  12  12   -9.30   17.43
   6  12  12   -7.41   12.94
  -6 -13   0  101.90   25.17
   6  13   0  129.08   29.39
  -6 -13  -1  271.30   33.69
   6  13   1  286.26   32.25
   6  13   1  294.45   35.18
  -6 -13  -2  148.46   29.07
  -6 -13  -2   78.36   22.30
   6  13   2   93.06   22.76
   6  13   2   75.43   22.24
  -6 -13  -3   -1.30   17.82
  -6 -13  -3   12.49   15.09
   6  13   3    4.16   15.02
   6  13   3   -4.94   14.31
  -6 -13  -4  106.52   27.05
   6  13   4   83.11   23.93
  -6 -13  -5   26.92   21.13
   6  13   5   49.29   20.61
  -6 -13  -6    2.80   17.82
   6  13   6  -10.14   15.02
  -6 -13  -7   22.76   21.33
   6  13   7   10.92   17.62
  -6 -13  -8   86.42   25.88
   6  13   8  102.62   26.60
  -6 -13  -9   29.72   20.68
   6  13   9   10.08   20.29
  -6 -13 -10   24.32   21.65
   6  13  10   11.90   19.57
  -6 -13 -11   27.05   22.11
   6  13  11   16.00   19.70
   6  13  11   21.20   14.50
  -6 -14  -3   17.36   20.74
  -6 -14  -3   22.11   18.21
   6  14   3    3.12   17.30
   6  14   3   26.53   18.73
  -6 -14  -4   86.29   26.60
   6  14   4   49.49   22.24
   6  14   4   84.67   23.80
  -6 -14  -5   85.19   25.82
   6  14   5   56.51   22.83
  -6 -14  -6   54.49   23.54
   6  14   6   60.87   23.15
  -6 -14  -7    9.62   19.38
   6  14   7   -2.41   17.62
  -6 -14  -8  102.81   29.13
   6  14   8   75.63   25.82
   6  14   9   66.72   25.56
  -7   8   8   40.97   21.07
  -7   8   8   30.17   22.24
  -7   8   8   45.26   22.83
   7  -8  -8   39.99   17.49
   7  -8  -8   28.03   21.72
  -7   8   7   91.04   25.30
  -7   8   7   71.66   26.40
  -7   8   7   90.33   25.04
   7  -8  -7  104.11   22.37
   7  -8  -7  106.52   28.42
   7  -8  -7   91.95   29.00
  -7   8   6   62.30   21.59
  -7   8   6   85.64   27.25
  -7   8   6   67.24   22.96
   7  -8  -6   93.32   21.00
   7  -8  -6  106.58   26.27
   7  -8  -6  114.91   30.50
   7  -8  -6  155.48   34.34
  -7   8   5    2.93   17.43
  -7   8   5   13.92   21.78
  -7   8   5   -3.38   17.82
   7  -8  -5   21.26   17.04
   7  -8  -5   30.63   22.37
   7  -8  -5   18.21   21.91
  -7   8   4   26.99   19.51
  -7   8   4   -2.73   18.53
  -7   8   4   10.79   19.31
   7  -8  -4   15.15   14.05
   7  -8  -4   12.75   17.75
   7  -8  -4   23.74   21.26
   7  -8  -4   11.45   18.92
  -7   8   3   45.39   21.72
  -7   8   3   35.90   22.24
  -7   8   3   30.17   20.09
   7  -8  -3   40.45   28.09
   7  -8  -3   42.01   21.26
   7  -8  -3   59.89   25.17
   7  -8  -3   45.39   22.37
  -7   8   2   21.91   19.31
  -7   8   2   46.24   22.76
  -7   8   2   -7.48   17.30
   7  -8  -2    6.18   18.60
   7  -8  -2    6.57   19.90
   7  -8  -2    4.10   17.23
  -7   8   1   10.08   19.77
  -7   8   1  -10.73   19.25
  -7   8   1    1.89   17.82
   7  -8  -1   -7.93   18.08
   7  -8  -1   21.00   21.78
   7  -8  -1    7.02   15.02
  -7   7  10  128.95   27.57
  -7   7  10  144.36   30.82
   7  -7 -10  152.62   27.64
   7  -7 -10  126.87   31.67
   7  -7 -10  175.84   33.42
  -7   7   9   49.68   20.42
  -7   7   9  130.51   29.59
   7  -7  -9  100.60   22.96
   7  -7  -9   94.29   27.12
   7  -7  -9  113.48   29.33
  -7   7   8    2.28   16.32
  -7   7   8   -6.37   18.66
  -7   7   8    6.57   18.53
   7  -7  -8   -0.59   13.98
   7  -7  -8   -1.50   20.03
   7  -7  -8   16.78   21.65
  -7   7   7   64.31   21.33
  -7   7   7   74.26   25.36
  -7   7   7   60.74   21.78
   7  -7  -7   60.54   18.79
   7  -7  -7   88.05   26.66
   7  -7  -7  114.65   29.72
  -7   7   6   49.23   19.83
  -7   7   6   61.58   22.76
  -7   7   6   66.46   21.72
   7  -7  -6   62.62   24.84
   7  -7  -6   64.64   27.12
  -7   7   5   16.13   17.88
  -7   7   5   -2.86   18.34
  -7   7   5   -9.56   15.35
   7  -7  -5   -1.11   12.55
   7  -7  -5   -0.33   14.11
   7  -7  -5   -8.65   18.73
   7  -7  -5  -16.39   16.65
  -7   7   4   17.36   17.56
  -7   7   4   30.37   20.61
  -7   7   4   27.90   19.31
   7  -7  -4   35.38   15.74
   7  -7  -4   26.66   16.45
   7  -7  -4   27.51   22.83
   7  -7  -4   23.67   20.16
  -7   7   3   30.24   18.79
  -7   7   3   42.72   22.11
  -7   7   3   47.41   20.87
   7  -7  -3   32.51   14.44
   7  -7  -3   47.28   18.66
   7  -7  -3   43.76   24.52
   7  -7  -3   21.52   19.44
  -7   7   2    6.70   16.58
  -7   7   2    0.98   18.01
  -7   7   2   16.00   18.14
   7  -7  -2    6.63   12.55
   7  -7  -2   -0.33   16.65
   7  -7  -2   -9.10   19.05
   7  -7  -2  -14.11   14.50
  -7   7   1  -14.11   15.15
  -7   7   1  -13.07   15.87
  -7   7   1   15.35   19.31
   7  -7  -1    2.93   12.42
   7  -7  -1   -6.96   16.26
   7  -7  -1  -28.22   15.87
   7  -7  -1   -4.36   14.70
  -7   7   0   35.51   20.55
  -7   7   0    6.57   18.86
  -7   7   0   55.14   21.78
   7  -7   0   14.50   14.70
   7  -7   0   40.32   21.78
   7  -7   0   19.70   20.74
   7  -7   0   12.23   14.89
  -7   7  -1  108.47   26.34
  -7   7  -1   96.24   25.10
  -7   7  -1   88.50   24.45
   7  -7   1   85.38   19.31
   7  -7   1   65.03   24.26
   7  -7   1   78.88   22.96
  -7   6  11   20.55   18.47
  -7   6  11  -12.10   19.38
  -7   6  11    9.30   16.13
   7  -6 -11   -2.15   15.93
   7  -6 -11   27.05   22.04
   7  -6 -11    1.89   20.87
  -7   6  10    9.17   17.43
  -7   6  10   36.55   22.50
  -7   6  10    9.88   15.61
   7  -6 -10   11.32   16.32
   7  -6 -10   12.23   19.90
   7  -6 -10   28.68   21.52
  -7   6   9   46.17   19.90
  -7   6   9   39.80   22.17
   7  -6  -9   76.34   20.55
   7  -6  -9   52.67   24.00
   7  -6  -9   56.64   25.69
  -7   6   8   -7.22   14.37
  -7   6   8   11.38   19.70
   7  -6  -8   10.86   14.11
   7  -6  -8   10.53   18.40
   7  -6  -8   -1.56   19.57
  -7   6   7    0.72   15.61
  -7   6   7   11.19   18.79
  -7   6   7    5.01   16.52
   7  -6  -7    4.36   18.27
   7  -6  -7   -3.25   18.27
  -7   6   6   41.68   17.69
  -7   6   6   50.85   21.20
  -7   6   6    8.52   17.23
   7  -6  -6   82.33   25.10
   7  -6  -6   68.48   22.89
  -7   6   5   57.75   19.51
  -7   6   5   45.65   21.39
  -7   6   5   50.20   20.35
   7  -6  -5   33.49   15.41
   7  -6  -5   44.87   16.65
   7  -6  -5   55.14   24.19
   7  -6  -5   52.15   20.94
  -7   6   4   30.37   18.73
  -7   6   4   34.27   19.05
  -7   6   4   29.78   18.60
   7  -6  -4   44.48   16.65
   7  -6  -4   50.53   17.23
   7  -6  -4   47.67   22.70
   7  -6  -4   47.99   21.46
  -7   6   3   17.10   17.17
  -7   6   3   32.19   20.35
  -7   6   3   40.77   20.16
   7  -6  -3   32.25   15.41
   7  -6  -3   38.17   16.00
   7  -6  -3   32.38   21.85
   7  -6  -3   48.38   20.03
  -7   6   2   61.91   20.29
  -7   6   2   47.28   19.90
  -7   6   2   41.75   19.64
   7  -6  -2   58.59   17.49
   7  -6  -2   57.03   18.14
   7  -6  -2   76.80   25.23
   7  -6  -2   52.02   18.53
  -7   6   1   48.45   19.31
  -7   6   1   60.02   21.65
  -7   6   1   28.55   18.79
   7  -6  -1   39.67   16.06
   7  -6  -1   43.76   19.51
   7  -6  -1   37.00   21.59
   7  -6  -1   24.91   15.87
  -7   6   0   21.07   18.01
  -7   6   0    0.13   15.87
  -7   6   0   -5.79   16.06
   7  -6   0    5.27   13.01
   7  -6   0   11.12   16.26
   7  -6   0  -17.30   15.67
   7  -6   0   -1.17   14.31
  -7   6  -1   -4.29   16.71
  -7   6  -1   -2.86   17.23
  -7   6  -1    9.49   18.14
   7  -6   1    9.82   13.27
   7  -6   1   -4.81   16.32
   7  -6   1   -1.17   19.44
   7  -6   1   -1.95   15.41
  -7   6  -2   57.42   21.65
  -7   6  -2   94.75   25.04
  -7   6  -2   93.51   24.52
   7  -6   2  141.63   23.80
   7  -6   2  145.41   27.64
   7  -6   2   79.73   21.65
  -7   6  -3   51.11   21.72
  -7   6  -3   74.39   22.24
  -7   6  -3   38.43   22.30
   7  -6   3   32.58   16.78
   7  -6   3   51.70   21.52
   7  -6   3   50.59   18.79
  -7   5  12   32.58   19.90
  -7   5  12  100.47   29.00
  -7   5  12   38.11   19.64
   7  -5 -12   58.07   23.28
   7  -5 -12   80.70   27.12
  -7   5  11   70.56   22.70
  -7   5  11   80.51   26.73
  -7   5  11   69.91   21.39
   7  -5 -11  104.18   24.06
   7  -5 -11   74.33   24.32
   7  -5 -11  116.14   27.12
  -7   5  10    2.67   15.54
  -7   5  10    2.80   17.82
  -7   5  10   14.31   15.35
   7  -5 -10   13.72   16.65
   7  -5 -10   -3.19   18.86
   7  -5 -10   14.31   21.07
  -7   5   9   60.48   19.31
  -7   5   9   71.40   23.61
  -7   5   9   52.22   18.34
   7  -5  -9   64.96   20.09
   7  -5  -9  119.00   26.92
   7  -5  -9   99.36   25.62
  -7   5   8   35.70   17.69
  -7   5   8   59.96   21.59
   7  -5  -8   39.15   17.56
   7  -5  -8   53.97   21.13
   7  -5  -8   77.71   24.13
  -7   5   7   -4.55   13.46
  -7   5   7   -7.35   16.71
   7  -5  -7   -2.41   16.58
   7  -5  -7   15.61   18.66
  -7   5   6   32.45   17.36
  -7   5   6   25.82   18.34
  -7   5   6   24.58   17.36
   7  -5  -6   21.26   13.46
   7  -5  -6   36.55   20.55
   7  -5  -6   32.77   19.57
  -7   5   5   30.04   16.97
  -7   5   5   42.92   18.66
  -7   5   5   55.73   20.94
   7  -5  -5   46.24   16.06
   7  -5  -5   34.27   19.64
   7  -5  -5   56.38   21.07
  -7   5   4   53.45   18.86
  -7   5   4   83.04   22.11
  -7   5   4   45.20   19.44
   7  -5  -4   71.27   17.75
   7  -5  -4   64.51   16.26
   7  -5  -4   62.30   22.37
   7  -5  -4   79.27   23.93
  -7   5   3   37.07   18.08
  -7   5   3   31.60   17.23
  -7   5   3   43.76   19.31
   7  -5  -3   18.14   13.66
   7  -5  -3   34.34   14.50
   7  -5  -3   16.78   19.25
   7  -5  -3   20.22   17.82
  -7   5   2   -0.26   14.57
  -7   5   2   21.85   16.97
  -7   5   2    7.35   16.13
   7  -5  -2    4.49   10.92
   7  -5  -2   -1.50   12.68
   7  -5  -2  -21.26   15.02
   7  -5  -2    1.89   13.27
  -7   5   1    6.83   16.45
  -7   5   1    3.84   15.80
  -7   5   1   20.22   17.30
   7  -5  -1   20.55   13.33
   7  -5  -1   11.45   14.11
   7  -5  -1    2.99   17.10
   7  -5  -1   -1.76   12.75
  -7   5   0    7.61   15.54
  -7   5   0   -4.23   15.22
  -7   5   0    4.42   16.84
   7  -5   0    5.85   12.03
   7  -5   0    6.24   15.35
   7  -5   0   11.90   17.30
   7  -5   0   -8.39   12.62
  -7   5  -1  -11.51   14.05
  -7   5  -1   -1.30   15.48
  -7   5  -1   19.70   18.86
   7  -5   1   13.98   13.33
   7  -5   1   -2.86   13.27
   7  -5   1   22.24   17.56
   7  -5   1    0.65   13.72
  -7   5  -2   43.05   20.09
  -7   5  -2   63.99   20.87
  -7   5  -2   39.08   20.55
   7  -5   2   40.45   15.61
   7  -5   2   66.85   21.39
   7  -5   2   38.76   19.05
   7  -5   2   23.35   16.39
  -7   5  -3   31.60   18.40
  -7   5  -3   30.50   18.60
  -7   5  -3   18.14   18.86
   7  -5   3   28.55   15.41
   7  -5   3   31.99   19.96
   7  -5   3   13.33   19.38
  -7   5  -4   20.81   18.66
  -7   5  -4   -0.26   16.78
  -7   5  -4   13.79   19.31
   7  -5   4   20.16   14.44
   7  -5   4   18.73   18.79
   7  -5   4   16.39   18.01
  -7   5  -5   12.62   19.57
  -7   5  -5   22.57   19.05
  -7   5  -5   15.09   27.31
   7  -5   5    5.79   14.89
   7  -5   5   12.88   17.88
   7  -5   5    3.58   16.91
  -7   4  12   28.94   19.70
  -7   4  12   -5.27   20.09
  -7   4  12   15.28   16.84
   7  -4 -12   -0.85   16.52
   7  -4 -12   22.11   20.94
  -7   4  11   57.94   20.42
  -7   4  11   92.73   25.62
  -7   4  11   64.90   21.20
   7  -4 -11   96.24   24.00
   7  -4 -11   47.80   22.57
   7  -4 -11   83.76   25.10
  -7   4  10   29.52   17.49
  -7   4  10   57.29   22.50
  -7   4  10   24.45   15.02
   7  -4 -10   80.90   22.17
   7  -4 -10   65.74   23.22
   7  -4 -10   77.64   22.37
  -7   4   9    2.99   14.76
  -7   4   9   12.36   17.75
  -7   4   9   -4.03   12.55
   7  -4  -9   10.40   14.31
   7  -4  -9   -4.42   17.04
   7  -4  -9   10.01   17.62
  -7   4   8   45.98   18.08
  -7   4   8   61.71   21.78
  -7   4   8   34.40   16.13
   7  -4  -8   65.03   21.33
   7  -4  -8   83.11   23.15
  -7   4   7   95.53   20.35
  -7   4   7   92.93   22.50
   7  -4  -7   70.10   17.36
   7  -4  -7   92.60   23.41
   7  -4  -7   93.84   23.74
  -7   4   6   13.79   14.44
  -7   4   6    1.63   14.63
   7  -4  -6   15.74   13.33
   7  -4  -6    1.63   18.40
   7  -4  -6   -2.80   18.53
  -7   4   5   17.82   14.37
  -7   4   5   21.85   16.32
  -7   4   5   31.21   16.84
   7  -4  -5   23.74   13.72
   7  -4  -5   11.97   17.49
   7  -4  -5   13.53   17.04
  -7   4   4   17.88   13.98
  -7   4   4    8.65   15.09
  -7   4   4   19.18   16.00
   7  -4  -4   18.08   13.01
   7  -4  -4   29.72   12.49
   7  -4  -4    1.82   15.41
   7  -4  -4   34.14   18.99
  -7   4   3   84.15   19.12
  -7   4   3   96.18   21.39
  -7   4   3   94.23   21.65
   7  -4  -3  101.45   19.96
   7  -4  -3  111.98   17.95
   7  -4  -3  106.06   24.97
   7  -4  -3  102.29   24.58
  -7   4   2   -4.68   12.88
  -7   4   2    2.86   13.53
  -7   4   2   -4.49   14.44
   7  -4  -2    6.50   11.19
   7  -4  -2   -2.67   10.79
   7  -4  -2    9.17   16.97
   7  -4  -2   -8.52   13.92
  -7   4   1   18.40   14.37
  -7   4   1   10.40   14.44
  -7   4   1   39.93   18.47
   7  -4  -1   16.06   12.68
   7  -4  -1   29.98   14.05
   7  -4  -1   -8.26   17.43
   7  -4  -1   26.27   16.45
  -7   4   0    5.01   13.79
  -7   4   0    1.24   14.24
  -7   4   0   -3.97   14.70
   7  -4   0   17.04   12.42
   7  -4   0   -0.59   12.10
   7  -4   0  -18.66   16.78
   7  -4   0   -3.71   14.83
  -7   4  -1   25.62   16.97
  -7   4  -1   22.11   16.65
  -7   4  -1   14.89   16.52
   7  -4   1   16.71   13.40
   7  -4   1   12.88   14.05
   7  -4   1   -8.97   17.95
   7  -4   1   -2.67   15.02
  -7   4  -2   34.21   18.53
  -7   4  -2   27.64   17.10
  -7   4  -2   22.89   18.47
   7  -4   2   18.92   14.11
   7  -4   2   29.00   16.65
   7  -4   2   15.02   17.17
   7  -4   2   -1.30   13.85
  -7   4  -3   76.73   20.61
  -7   4  -3   39.60   19.25
  -7   4  -3   44.87   19.77
   7  -4   3   55.08   17.69
   7  -4   3   81.48   21.20
   7  -4   3   30.04   18.92
   7  -4   3   53.06   18.99
  -7   4  -4   50.46   19.83
  -7   4  -4   37.52   18.27
  -7   4  -4   53.71   22.17
   7  -4   4   48.97   16.78
   7  -4   4   64.25   20.42
   7  -4   4   31.02   18.14
  -7   4  -5    4.36   16.52
  -7   4  -5    5.01   16.45
   7  -4   5    3.71   13.72
   7  -4   5  -13.92   17.30
   7  -4   5  -29.85   16.58
  -7   4  -6    9.82   17.95
  -7   4  -6  -25.30   25.17
   7  -4   6   -0.26   14.89
   7  -4   6    3.97   18.27
   7  -4   6  -19.38   13.79
  -7   3  12   -0.33   15.87
  -7   3  12  -26.73   17.88
  -7   3  12    5.92   15.54
   7  -3 -12   -7.67   17.56
   7  -3 -12    6.76   18.47
  -7   3  11   67.70   20.29
  -7   3  11   71.08   24.65
  -7   3  11   39.02   18.40
   7  -3 -11   55.79   22.44
   7  -3 -11   71.73   24.19
  -7   3  10  115.17   23.22
  -7   3  10  122.06   26.21
  -7   3  10   89.74   20.48
   7  -3 -10  173.76   27.12
   7  -3 -10  144.23   28.16
   7  -3 -10  153.92   25.69
  -7   3   9   54.95   19.70
  -7   3   9   68.41   22.17
  -7   3   9   67.83   19.05
   7  -3  -9   88.57   21.85
   7  -3  -9   73.22   22.11
   7  -3  -9   92.08   22.04
  -7   3   8    7.35   13.59
  -7   3   8   26.27   17.36
  -7   3   8   17.43   13.46
   7  -3  -8   14.37   16.97
   7  -3  -8   30.63   18.08
  -7   3   7   99.17   20.81
  -7   3   7  138.32   24.84
  -7   3   7   70.95   16.97
   7  -3  -7  108.99   21.33
   7  -3  -7  102.88   24.32
   7  -3  -7  122.45   24.06
  -7   3   6   70.62   17.82
  -7   3   6   36.61   17.10
   7  -3  -6   42.72   15.35
   7  -3  -6   48.84   20.29
   7  -3  -6   70.49   19.90
  -7   3   5   33.10   15.54
  -7   3   5   38.76   17.43
   7  -3  -5   40.12   14.96
   7  -3  -5  -19.90   15.61
   7  -3  -5   33.42   19.77
  -7   3   4   -2.54   11.97
  -7   3   4   10.47   14.50
  -7   3   4  -11.84   13.33
   7  -3  -4    8.26   11.12
   7  -3  -4  -17.95   14.76
   7  -3  -4  -26.34   14.44
  -7   3   3   19.96   14.37
  -7   3   3   18.99   15.61
  -7   3   3   12.49   15.09
   7  -3  -3   39.93   14.44
   7  -3  -3   46.17   12.68
   7  -3  -3   25.75   19.64
   7  -3  -3   33.10   19.77
  -7   3   2   14.37   14.50
  -7   3   2   -7.87   12.49
  -7   3   2    5.40   14.18
   7  -3  -2   -2.08   10.27
   7  -3  -2    3.90    9.36
   7  -3  -2  -19.83   15.41
   7  -3  -2   -5.46   14.24
  -7   3   1   11.84   13.27
  -7   3   1   16.45   14.50
  -7   3   1    2.21   14.76
   7  -3  -1   14.76   12.23
   7  -3  -1   13.92   11.05
   7  -3  -1   -6.44   19.90
   7  -3  -1    0.98   17.04
  -7   3   0    3.45   12.68
  -7   3   0    2.80   12.88
  -7   3   0   15.41   16.39
   7  -3   0    2.93   11.38
   7  -3   0   10.14   12.29
   7  -3   0  -49.81   17.88
   7  -3   0   -5.14   14.70
  -7   3  -1   -7.48   12.23
  -7   3  -1    3.32   14.05
  -7   3  -1   17.82   16.45
   7  -3   1    7.22   13.33
   7  -3   1    2.34   11.97
   7  -3   1  -19.83   17.95
   7  -3   1    8.39   14.83
  -7   3  -2    2.47   13.14
  -7   3  -2    8.19   14.18
  -7   3  -2    3.45   16.19
   7  -3   2    2.93   12.36
   7  -3   2   -7.09   12.10
   7  -3   2   -7.54   18.99
   7  -3   2   22.04   17.23
  -7   3  -3   20.81   15.28
  -7   3  -3   -4.10   14.31
  -7   3  -3    8.32   16.84
   7  -3   3   18.47   13.46
   7  -3   3    7.28   14.24
   7  -3   3  -25.36   19.12
   7  -3   3   16.78   16.97
  -7   3  -4   16.52   16.65
  -7   3  -4   13.66   15.22
  -7   3  -4   21.91   31.73
   7  -3   4   29.52   15.80
   7  -3   4   32.45   16.91
   7  -3   4   -1.76   17.04
   7  -3   4   24.52   16.78
  -7   3  -5    0.39   16.06
  -7   3  -5  -17.30   13.72
   7  -3   5   -1.56   13.20
   7  -3   5   20.16   16.84
   7  -3   5  -23.09   19.18
   7  -3   5   -5.07   14.83
  -7   3  -6   26.86   18.47
   7  -3   6   17.10   14.83
   7  -3   6   15.48   19.18
   7  -3   6   12.94   20.16
  -7   3  -7   -2.93   17.10
   7  -3   7   -9.56   15.02
   7  -3   7   23.54   19.44
   7  -3   7   -5.27   16.84
  -7   3  -8  -12.88   16.39
   7  -3   8    5.53   15.67
   7  -3   8    4.03   18.08
   7  -3   8   -1.43   17.88
  -7   2  12  -14.89   13.46
  -7   2  12    9.17   20.61
  -7   2  12   -9.04   14.57
   7  -2 -12   -8.19   18.79
   7  -2 -12   -3.25   17.62
  -7   2  11   24.52   17.36
  -7   2  11   14.24   20.03
  -7   2  11   24.19   16.78
   7  -2 -11   21.00   18.66
   7  -2 -11   12.75   18.92
  -7   2  10  104.31   21.65
  -7   2  10  158.28   27.57
  -7   2  10  104.37   21.98
   7  -2 -10  186.24   29.85
   7  -2 -10  178.31   28.68
  -7   2   9  105.41   22.70
  -7   2   9   91.76   23.93
  -7   2   9   66.65   18.79
   7  -2  -9  132.46   25.17
   7  -2  -9   89.87   23.02
   7  -2  -9  121.80   22.83
  -7   2   8   20.94   14.63
  -7   2   8    6.31   15.67
  -7   2   8    1.63   12.03
   7  -2  -8   -2.21   16.39
   7  -2  -8   -3.06   14.63
  -7   2   7   63.86   17.62
  -7   2   7   65.87   20.68
  -7   2   7   38.50   14.83
   7  -2  -7   69.19   17.04
   7  -2  -7   76.21   22.70
   7  -2  -7   93.32   21.65
  -7   2   6   30.95   14.70
  -7   2   6   50.92   19.64
  -7   2   6   24.91   12.62
   7  -2  -6   33.88   13.72
   7  -2  -6   24.84   20.09
   7  -2  -6   25.88   19.25
  -7   2   5    5.01   11.19
  -7   2   5    3.97   14.24
  -7   2   5   12.49   10.79
   7  -2  -5    5.01   10.34
   7  -2  -5   13.59   16.06
   7  -2  -5   -5.40   14.63
  -7   2   4   -1.04   11.51
  -7   2   4   -2.47   12.36
   7  -2  -4    3.51   10.01
   7  -2  -4   -1.69   13.33
   7  -2  -4   -1.76   14.89
  -7   2   3   39.60   15.80
  -7   2   3   17.62   15.09
  -7   2   3   31.28   24.78
   7  -2  -3   17.49   10.66
   7  -2  -3   37.00   11.45
   7  -2  -3   20.81   16.58
   7  -2  -3   52.54   18.34
  -7   2   2  147.68   22.50
  -7   2   2  136.37   22.44
  -7   2   2  156.26   23.93
   7  -2  -2  133.31   20.29
   7  -2  -2  140.46   16.97
   7  -2  -2  166.34   27.25
   7  -2  -2  129.54   22.96
  -7   2   1   82.52   18.73
  -7   2   1   68.35   17.04
  -7   2   1   70.36   18.86
   7  -2  -1   79.40   17.75
   7  -2  -1   70.36   13.98
   7  -2  -1   77.90   21.52
   7  -2  -1   79.27   19.25
  -7   2   0    2.86   11.90
  -7   2   0   -0.20   12.42
  -7   2   0    7.74   15.22
   7  -2   0   13.72   12.49
   7  -2   0   22.96   11.51
   7  -2   0   -5.98   14.76
   7  -2   0    9.95   13.79
  -7   2  -1    2.41   12.23
  -7   2  -1   26.99   14.63
  -7   2  -1   10.21   14.76
   7  -2   1   12.42   12.75
   7  -2   1   41.16   13.59
   7  -2   1    7.67   16.71
   7  -2   1    8.58   12.75
  -7   2  -2  148.72   23.22
  -7   2  -2  205.36   25.36
  -7   2  -2  139.81   24.39
   7  -2   2  197.04   26.21
   7  -2   2  205.49   24.84
   7  -2   2  202.70   32.51
   7  -2   2  164.20   26.21
  -7   2  -3    5.20   13.92
  -7   2  -3    1.30   13.01
  -7   2  -3   -0.39   19.57
   7  -2   3   25.62   15.22
   7  -2   3   25.62   14.44
   7  -2   3   -3.64   17.43
   7  -2   3   26.34   15.48
  -7   2  -4   42.79   17.62
  -7   2  -4   42.27   16.19
   7  -2   4   69.91   18.92
   7  -2   4   67.11   19.31
   7  -2   4   48.32   23.41
   7  -2   4   53.65   19.77
  -7   2  -5   64.25   19.25
  -7   2  -5   88.63   19.64
   7  -2   5   87.72   20.55
   7  -2   5  117.77   22.70
   7  -2   5   54.43   21.52
   7  -2   5   50.85   19.12
  -7   2  -6   22.89   16.91
   7  -2   6    2.21   13.72
   7  -2   6    6.89   15.35
   7  -2   6   -3.45   20.16
   7  -2   6   29.00   17.75
  -7   2  -7   -9.95   15.22
   7  -2   7   12.10   15.09
   7  -2   7    3.12   17.75
   7  -2   7   37.07   19.12
  -7   2  -8   33.36   18.14
   7  -2   8   24.45   16.71
   7  -2   8   50.40   22.57
   7  -2   8   24.58   18.34
  -7   2  -9   28.87   21.26
   7  -2   9   45.20   19.90
   7  -2   9   40.97   22.89
   7  -2   9   35.57   21.59
  -7   1  12   20.09   15.61
  -7   1  12   25.49   22.30
  -7   1  12   13.59   19.77
   7  -1 -12   18.34   20.48
   7  -1 -12   19.25   18.73
  -7   1  11  -14.18   14.05
  -7   1  11    3.71   19.38
  -7   1  11   15.35   20.35
   7  -1 -11   -7.35   16.65
   7  -1 -11   -0.46   15.67
  -7   1  10   37.26   17.49
  -7   1  10   35.51   20.03
  -7   1  10   30.56   16.84
   7  -1 -10   28.35   18.27
   7  -1 -10   56.32   20.61
  -7   1   9   79.47   19.57
  -7   1   9   89.02   23.15
  -7   1   9   70.17   19.25
   7  -1  -9   86.75   22.17
   7  -1  -9  112.44   23.93
   7  -1  -9  114.91   20.35
  -7   1   8   98.58   20.22
  -7   1   8   83.69   21.98
  -7   1   8   60.35   16.97
   7  -1  -8   96.24   23.28
   7  -1  -8  104.83   20.29
   7  -1  -8  106.71   21.78
  -7   1   7   26.01   15.35
  -7   1   7   36.29   17.75
  -7   1   7   27.31   13.53
   7  -1  -7   20.74   12.42
   7  -1  -7    7.22   16.97
   7  -1  -7   40.19   16.78
   7  -1  -7   15.09   13.92
   7  -1  -7   22.11   11.12
  -7   1   6   55.66   16.32
  -7   1   6   50.92   18.34
  -7   1   6   44.81   15.80
   7  -1  -6   33.88   13.46
   7  -1  -6   43.31   18.01
   7  -1  -6   60.28   18.92
   7  -1  -6   27.44   14.24
   7  -1  -6   67.83   13.85
  -7   1   5  225.00   24.39
  -7   1   5  238.07   26.66
  -7   1   5  187.02   22.76
   7  -1  -5  193.85   22.96
   7  -1  -5  229.55   28.16
   7  -1  -5  237.55   28.68
   7  -1  -5  226.56   26.47
   7  -1  -5  172.07   18.99
  -7   1   4    3.19   11.12
  -7   1   4    6.57   13.07
  -7   1   4   -2.60   10.34
   7  -1  -4   -2.60    8.91
   7  -1  -4  -14.11   15.09
   7  -1  -4   -7.93   13.79
   7  -1  -4   -2.08   10.60
  -7   1   3   20.81   13.72
  -7   1   3   10.27   13.59
   7  -1  -3   14.63   10.47
   7  -1  -3  -27.64   18.34
   7  -1  -3   19.77   12.49
  -7   1   2  297.18   26.99
  -7   1   2  264.93   26.66
   7  -1  -2  288.27   24.39
   7  -1  -2  300.04   19.51
   7  -1  -2  299.91   36.68
   7  -1  -2  455.20   37.91
   7  -1  -2  313.05   27.57
  -7   1   1  110.29   19.38
  -7   1   1  159.00   22.30
   7  -1  -1  176.42   21.98
   7  -1  -1  163.48   18.27
   7  -1  -1  230.53   32.84
   7  -1  -1  373.92   35.51
   7  -1  -1  166.93   23.54
  -7   1   0   -6.76   10.47
  -7   1   0   -1.82   11.71
  -7   1   0    5.92   18.21
   7  -1   0    2.02   11.51
   7  -1   0  -12.03    8.65
   7  -1   0   10.34   23.22
   7  -1   0    7.41   11.71
  -7   1  -1   67.44   18.21
  -7   1  -1   61.65   16.91
  -7   1  -1   61.71   24.78
   7  -1   1   93.12   19.44
   7  -1   1   84.67   14.89
   7  -1   1   54.75   22.83
   7  -1   1   77.77   19.12
  -7   1  -2  127.26   21.39
  -7   1  -2  128.76   20.09
   7  -1   2  142.61   22.70
   7  -1   2  132.33   18.73
   7  -1   2  134.87   26.21
  -7   1  -3   11.58   13.53
  -7   1  -3    5.98   12.49
   7  -1   3   12.55   11.97
   7  -1   3   14.89   12.36
   7  -1   3   23.67   18.34
  -7   1  -4  258.95   28.48
  -7   1  -4  255.37   25.82
   7  -1   4  246.85   27.44
   7  -1   4  260.51   28.03
   7  -1   4  200.87   33.16
  -7   1  -5  147.10   24.00
  -7   1  -5  161.60   21.91
   7  -1   5  151.06   23.41
   7  -1   5  155.68   24.91
   7  -1   5  143.58   28.48
  -7   1  -6   17.17   15.61
   7  -1   6   41.55   16.78
   7  -1   6   34.53   17.62
   7  -1   6   14.18   20.42
  -7   1  -7   -1.76   13.66
   7  -1   7    2.21   14.11
   7  -1   7    3.06   16.26
   7  -1   7   -4.55   18.60
  -7   1  -8  -19.77   14.63
   7  -1   8   17.10   15.80
   7  -1   8   20.87   18.92
  -7   1  -9   11.51   16.71
   7  -1   9  -22.11   13.79
   7  -1   9  -19.12   16.97
  -7   0  12  108.53   23.15
  -7   0  12  111.07   28.68
  -7   0  12  133.89   29.20
   7   0 -12  157.37   30.50
   7   0 -12  124.34   26.21
  -7   0  11   57.23   18.27
  -7   0  11   41.81   21.26
  -7   0  11   86.49   24.52
   7   0 -11   75.82   23.35
   7   0 -11   91.69   24.65
  -7   0  10    1.56   12.68
  -7   0  10   -2.15   16.84
  -7   0  10   -2.21   17.17
   7   0 -10    2.99   17.23
   7   0 -10   22.50   15.93
   7   0 -10   -6.11   13.72
   7   0 -10   -2.67   11.32
  -7   0   9   27.77   15.22
  -7   0   9   48.71   20.22
  -7   0   9   12.55   14.05
   7   0  -9   49.55   18.66
   7   0  -9   47.54   18.99
   7   0  -9   25.30   15.87
   7   0  -9   45.20   14.96
  -7   0   8  140.07   22.70
  -7   0   8  142.54   24.97
  -7   0   8  113.61   21.72
   7   0  -8  180.98   27.64
   7   0  -8  144.49   21.85
   7   0  -8  144.43   24.26
   7   0  -8  147.42   20.81
  -7   0   7   23.41   13.79
  -7   0   7   67.44   19.57
  -7   0   7   37.20   14.96
   7   0  -7   46.43   15.61
   7   0  -7   26.66   19.18
   7   0  -7   59.76   17.49
   7   0  -7   53.45   17.62
   7   0  -7   44.28   14.63
  -7   0   6    3.12   11.64
  -7   0   6    0.26   13.40
  -7   0   6   10.47   11.64
   7   0  -6   19.83   12.62
   7   0  -6   14.05   14.31
   7   0  -6   24.65   14.57
   7   0  -6    2.28   12.23
   7   0  -6   16.39   11.25
  -7   0   5   16.00   12.03
  -7   0   5   27.25   15.02
  -7   0   5   24.13   12.29
   7   0  -5   10.27   10.66
   7   0  -5    6.83   14.83
   7   0  -5   19.90   15.09
   7   0  -5   30.17   14.31
   7   0  -5   25.82   11.19
  -7   0   4    8.58   11.64
  -7   0   4    5.40   13.20
  -7   0   4    5.85    9.56
   7   0  -4   12.23   10.53
   7   0  -4   13.53   19.70
   7   0  -4   52.87   19.31
   7   0  -4   17.23   12.29
  -7   0   3  196.26   23.09
  -7   0   3  207.38   24.71
  -7   0   3  183.32   21.65
   7   0  -3  176.29   20.68
   7   0  -3  275.33   30.43
   7   0  -3  274.88   30.82
   7   0  -3  206.14   23.87
  -7   0   2    8.84   11.19
  -7   0   2    7.15   11.51
  -7   0   2   -2.28    9.49
   7   0  -2    4.36   10.34
   7   0  -2   16.97   13.72
   7   0  -2   10.99   11.38
  -7   0   1  103.01   18.14
  -7   0   1  128.95   16.65
  -7   0   1  109.57   18.21
   7   0  -1  127.33   20.35
   7   0  -1   99.69   12.94
   7   0  -1   80.64   19.38
   7   0  -1  115.17   20.29
  -7   0   0   20.35   12.55
  -7   0   0   31.99   12.55
  -7   0   0   26.34   12.81
   7   0   0   19.44   12.03
   7   0   0   36.22   10.14
   7   0   0   45.33   17.62
   7   0   0   39.47   14.31
  -7   0  -1  -13.27    9.56
  -7   0  -1   -5.14   10.40
  -7   0  -1   -1.89   10.86
   7   0   1   -3.32    9.56
   7   0   1    9.69    9.62
   7   0   1   35.83   16.71
   7   0   1    7.74   12.23
  -7   0  -2   29.72   14.05
  -7   0  -2   37.65   13.40
  -7   0  -2   42.40   13.85
   7   0   2   38.43   13.92
   7   0   2   29.33   14.18
   7   0   2   77.51   27.64
   7   0   2   35.12   15.22
  -7   0  -3   68.87   17.62
  -7   0  -3   78.36   17.04
  -7   0  -3   70.49   15.61
   7   0   3   69.58   16.71
   7   0   3   54.23   14.11
   7   0   3   45.65   19.70
   7   0   3   67.89   18.01
  -7   0  -4    9.62   13.92
  -7   0  -4   22.17   14.57
  -7   0  -4   19.90   12.49
   7   0   4   14.96   12.42
   7   0   4   16.91   12.55
   7   0   4   24.26   17.43
   7   0   4   22.30   23.48
  -7   0  -5   47.08   17.43
  -7   0  -5   60.74   17.88
   7   0   5   57.03   16.91
   7   0   5   63.99   19.12
   7   0   5   72.96   26.14
  -7   0  -6  125.12   22.44
  -7   0  -6  163.35   23.61
   7   0   6  161.21   25.56
   7   0   6  132.33   23.09
   7   0   6   86.68   23.35
  -7   0  -7   61.71   18.34
  -7   0  -7   96.96   26.14
   7   0   7   84.93   21.00
   7   0   7   64.12   21.07
   7   0   7   51.63   20.29
  -7   0  -8    0.65   14.70
   7   0   8    2.99   14.44
   7   0   8   -5.53   16.52
   7   0   8   -6.24   19.57
  -7   0  -9    2.93   15.41
   7   0   9   -1.63   14.50
   7   0   9   21.52   21.52
  -7   0 -10   41.36   20.81
   7   0  10   37.98   18.99
   7   0  10   -2.60   21.07
  -7  -1  12   25.10   16.84
  -7  -1  12   10.66   21.65
  -7  -1  12   31.08   22.04
   7   1 -12   47.73   23.09
   7   1 -12   49.94   21.33
   7   1 -12   23.93   17.36
  -7  -1  11  121.34   21.98
  -7  -1  11  204.13   33.75
  -7  -1  11  144.17   28.74
   7   1 -11  206.53   32.12
   7   1 -11  150.74   26.99
   7   1 -11  123.49   26.08
   7   1 -11  151.91   24.00
  -7  -1  10   78.95   18.99
  -7  -1  10   93.25   23.67
  -7  -1  10  102.68   24.32
   7   1 -10  112.89   24.65
   7   1 -10   96.37   22.50
   7   1 -10   99.56   22.96
   7   1 -10   87.72   19.38
  -7  -1   9   15.48   13.53
  -7  -1   9   28.42   18.47
  -7  -1   9   20.48   16.71
   7   1  -9   23.22   16.65
   7   1  -9   15.48   15.22
   7   1  -9   10.99   14.89
   7   1  -9    5.20   12.10
  -7  -1   8   23.15   14.11
  -7  -1   8   26.40   18.34
  -7  -1   8   21.78   17.30
   7   1  -8   40.38   18.79
   7   1  -8   42.14   17.88
   7   1  -8   26.40   13.53
  -7  -1   7  119.72   19.90
  -7  -1   7  108.27   21.85
  -7  -1   7   78.10   18.66
   7   1  -7   91.56   17.88
   7   1  -7  117.70   24.58
   7   1  -7  112.96   19.57
   7   1  -7  115.82   21.72
   7   1  -7  106.45   18.53
  -7  -1   6   66.98   16.06
  -7  -1   6   92.08   20.68
  -7  -1   6   40.06   14.44
   7   1  -6   61.19   15.67
   7   1  -6   56.45   18.40
   7   1  -6   73.35   17.36
   7   1  -6   65.55   18.27
   7   1  -6   63.27   14.96
  -7  -1   5   48.32   14.57
  -7  -1   5   75.30   19.12
  -7  -1   5   47.02   14.83
   7   1  -5   54.49   15.41
   7   1  -5   42.40   17.43
   7   1  -5   61.32   17.88
   7   1  -5   61.19   16.91
   7   1  -5   49.23   13.79
  -7  -1   4    8.71   11.19
  -7  -1   4   10.01   12.55
  -7  -1   4   21.00   11.90
   7   1  -4    4.23   10.66
   7   1  -4   28.22   19.96
   7   1  -4   23.22   12.75
  -7  -1   3    8.97   11.84
  -7  -1   3   13.85   12.88
  -7  -1   3    6.18   10.14
   7   1  -3   18.73   11.51
   7   1  -3   27.18   13.85
   7   1  -3   12.55   12.16
  -7  -1   2   -1.76   10.08
  -7  -1   2    0.33   10.86
  -7  -1   2    6.89    9.69
   7   1  -2    4.68    9.82
   7   1  -2   12.75   13.33
   7   1  -2   11.97   10.92
  -7  -1   1   22.57   12.81
  -7  -1   1   16.97   12.23
  -7  -1   1   12.23   11.19
  -7  -1   1    7.15    9.88
   7   1  -1   19.05   11.25
   7   1  -1   20.03   14.83
   7   1  -1   27.77   12.62
  -7  -1   0   25.75   12.88
  -7  -1   0   36.35   13.40
  -7  -1   0   32.84   12.94
  -7  -1   0   22.17   11.97
   7   1   0   32.45   11.90
   7   1   0   48.06    9.75
   7   1   0   34.40   16.52
   7   1   0   39.02   14.11
  -7  -1  -1    0.78   10.99
  -7  -1  -1    4.29   11.32
  -7  -1  -1    0.20    9.95
   7   1   1    9.88   10.73
   7   1   1   10.60    8.06
   7   1   1   10.34   12.94
   7   1   1    7.93   11.58
  -7  -1  -2    4.16   10.86
  -7  -1  -2    0.91   11.90
  -7  -1  -2    5.66   10.53
   7   1   2   20.42   11.38
   7   1   2   15.54    9.69
   7   1   2   22.50   15.02
   7   1   2    2.86   11.32
  -7  -1  -3   45.52   15.15
  -7  -1  -3   37.78   14.76
  -7  -1  -3   45.59   12.81
   7   1   3   62.23   16.32
   7   1   3   57.94   16.97
   7   1   3   73.03   21.59
   7   1   3   47.99   15.87
  -7  -1  -4   48.25   15.74
  -7  -1  -4   97.80   18.40
  -7  -1  -4   89.35   15.54
   7   1   4   75.17   17.10
   7   1   4   87.33   17.56
   7   1   4   26.79   16.97
   7   1   4   90.59   20.29
  -7  -1  -5   14.05   13.53
  -7  -1  -5    5.07   14.44
   7   1   5    5.98   11.90
   7   1   5    4.03   12.62
   7   1   5   13.92   13.66
   7   1   5   10.21   12.81
  -7  -1  -6    2.47   13.14
  -7  -1  -6   11.77   14.96
   7   1   6   -4.42   11.77
   7   1   6    1.24   14.11
   7   1   6   23.28   18.27
   7   1   6   22.04   23.15
  -7  -1  -7   10.53   14.18
  -7  -1  -7   26.47   17.62
   7   1   7    4.68   13.07
   7   1   7   -1.76   15.28
   7   1   7   27.31   17.30
  -7  -1  -8    6.37   14.44
  -7  -1  -8   15.61   18.08
   7   1   8   20.81   14.63
   7   1   8   -8.32   14.18
   7   1   8   22.50   15.28
  -7  -1  -9    4.10   15.87
  -7  -1  -9    3.71   18.53
   7   1   9    1.37   14.50
   7   1   9   -7.74   16.71
   7   1   9   16.78   20.74
  -7  -1 -10    0.00   15.61
  -7  -1 -10   14.31   21.65
   7   1  10   -0.65   16.26
   7   1  10    2.67   23.74
  -7  -1 -11   29.46   19.12
  -7  -1 -11    4.75   24.26
   7   1  11   -0.13   16.65
   7   1  11  -11.19   18.86
  -7  -2  11   15.54   14.31
  -7  -2  11   24.91   19.64
   7   2 -11    8.26   17.43
   7   2 -11   22.76   17.30
   7   2 -11    6.05   15.87
   7   2 -11   18.60   15.61
  -7  -2  10   49.42   16.71
  -7  -2  10   67.83   23.61
  -7  -2  10   39.80   20.61
   7   2 -10   34.34   18.79
   7   2 -10   72.57   20.74
   7   2 -10   68.93   21.52
   7   2 -10   38.76   16.13
  -7  -2   9    3.84   11.90
  -7  -2   9   -5.46   16.06
  -7  -2   9   12.68   16.06
   7   2  -9   11.25   15.41
   7   2  -9    4.68   14.89
   7   2  -9  -14.37   11.77
   7   2  -9   13.01   12.68
  -7  -2   8   29.20   13.98
  -7  -2   8   17.23   17.88
  -7  -2   8   42.66   18.92
   7   2  -8   16.71   18.08
   7   2  -8   19.96   15.09
   7   2  -8   11.12   11.58
  -7  -2   7  121.54   19.77
  -7  -2   7  112.44   22.96
  -7  -2   7   97.54   20.61
   7   2  -7   92.34   18.01
   7   2  -7  140.98   24.26
   7   2  -7  141.89   19.83
   7   2  -7  149.37   24.19
   7   2  -7  110.42   19.18
  -7  -2   6   40.97   14.57
  -7  -2   6   45.65   16.78
  -7  -2   6   34.66   14.24
   7   2  -6   42.98   14.18
   7   2  -6   61.91   19.31
   7   2  -6   37.26   14.63
   7   2  -6   61.65   17.62
   7   2  -6   42.85   14.37
  -7  -2   5   14.37   11.45
  -7  -2   5   32.58   14.57
  -7  -2   5   26.73   13.33
   7   2  -5   22.04   12.16
   7   2  -5   34.08   15.74
   7   2  -5   39.99   14.70
   7   2  -5   42.27   13.53
  -7  -2   4  204.78   21.65
  -7  -2   4  195.87   24.39
  -7  -2   4  164.59   22.83
   7   2  -4  191.19   21.78
   7   2  -4  203.22   27.90
   7   2  -4  199.31   23.80
  -7  -2   3   17.56   11.45
  -7  -2   3   24.71   12.36
  -7  -2   3   11.05   10.92
   7   2  -3    4.23    8.91
   7   2  -3   16.45   13.53
   7   2  -3   17.04   11.90
  -7  -2   2    1.76   10.14
  -7  -2   2   11.77   11.32
  -7  -2   2   -8.52    8.32
   7   2  -2    7.87    9.95
   7   2  -2   -9.04   10.40
   7   2  -2    6.83   10.08
  -7  -2   1   60.74   14.11
  -7  -2   1   92.67   17.56
  -7  -2   1   80.38   15.74
  -7  -2   1   80.44   16.71
   7   2  -1   93.45   16.78
   7   2  -1   45.98   17.10
   7   2  -1   93.84   18.14
  -7  -2   0  131.62   18.60
  -7  -2   0  146.51   19.51
  -7  -2   0  124.66   17.82
  -7  -2   0  124.01   18.73
   7   2   0  138.32   20.48
   7   2   0   51.11   16.58
   7   2   0  148.40   21.13
  -7  -2  -1   12.88   11.05
  -7  -2  -1   10.92   12.03
  -7  -2  -1   18.73   10.66
  -7  -2  -1    0.59    9.43
   7   2   1    8.97   10.34
   7   2   1   12.42    7.54
   7   2   1   25.30   12.94
   7   2   1    6.63   11.71
  -7  -2  -2    4.94   10.60
  -7  -2  -2  -12.75   10.66
  -7  -2  -2    0.33    8.84
  -7  -2  -2    9.88   10.08
   7   2   2    3.90   10.47
   7   2   2    5.59    7.67
   7   2   2   12.88   13.01
   7   2   2   -3.84   10.47
  -7  -2  -3   -5.33   10.47
  -7  -2  -3    3.90   12.88
  -7  -2  -3    4.68    9.17
   7   2   3    1.63   10.79
   7   2   3    1.95    8.78
   7   2   3    5.14   11.97
   7   2   3    2.41   11.45
  -7  -2  -4   45.91   14.96
  -7  -2  -4   25.56   14.89
   7   2   4   36.22   14.37
   7   2   4   54.30   16.78
   7   2   4   29.59   20.09
   7   2   4   45.20   15.93
  -7  -2  -5    1.56   12.36
  -7  -2  -5   -5.85   13.07
   7   2   5   10.27   12.29
   7   2   5   -4.81    9.82
   7   2   5    0.78   12.03
   7   2   5    1.43   11.64
  -7  -2  -6   16.13   13.27
  -7  -2  -6    0.26   14.70
   7   2   6    2.15   12.42
   7   2   6    8.71   11.90
   7   2   6    5.66   12.94
   7   2   6    8.91   13.92
  -7  -2  -7   11.25   13.20
  -7  -2  -7   -6.50   15.41
   7   2   7   -9.62   10.92
   7   2   7   16.13   14.31
   7   2   7   23.35   14.37
   7   2   7    2.28   13.98
  -7  -2  -8   18.66   14.76
  -7  -2  -8   13.40   18.21
   7   2   8   16.39   14.31
   7   2   8   21.39   18.27
   7   2   8   28.09   18.21
  -7  -2  -9    6.83   14.96
  -7  -2  -9   10.21   18.92
   7   2   9   -9.49   13.85
   7   2   9   -7.54   14.50
   7   2   9   14.76   14.50
  -7  -2 -10   -1.56   14.24
  -7  -2 -10   -2.67   20.16
   7   2  10   -4.03   15.02
   7   2  10   -3.51   15.74
   7   2  10   38.56   27.96
  -7  -2 -11  -10.66   15.09
  -7  -2 -11   16.52   23.80
   7   2  11   43.50   20.35
   7   2  11  -23.35   17.56
   7   2  12   32.77   20.55
   7   2  12   20.61   22.44
  -7  -3  11   -8.52   16.78
   7   3 -11    2.47   18.27
   7   3 -11   -4.88   14.83
   7   3 -11   13.01   15.54
  -7  -3  10   46.43   15.87
  -7  -3  10   54.04   21.59
   7   3 -10   53.19   21.78
   7   3 -10   35.77   18.79
   7   3 -10   41.23   18.01
   7   3 -10   50.46   18.40
  -7  -3   9   11.77   11.97
  -7  -3   9   11.12   17.04
   7   3  -9   18.27   16.71
   7   3  -9   24.19   16.91
   7   3  -9   27.51   16.32
   7   3  -9   13.46   13.46
  -7  -3   8   -1.89   10.53
  -7  -3   8   20.03   16.45
   7   3  -8   24.71   16.45
   7   3  -8   13.79   14.05
   7   3  -8   10.79   12.23
  -7  -3   7    7.74    9.88
  -7  -3   7  -11.58   14.89
  -7  -3   7   -0.07   13.40
   7   3  -7    6.11   11.51
   7   3  -7   19.44   14.89
   7   3  -7   -4.49   11.19
   7   3  -7    7.48   11.71
  -7  -3   6    3.06   10.60
  -7  -3   6   -1.82   13.53
  -7  -3   6    4.16   12.94
   7   3  -6   24.26   12.23
   7   3  -6   39.08   18.60
   7   3  -6   10.21   11.71
   7   3  -6    9.56   11.64
  -7  -3   5   55.27   14.11
  -7  -3   5   54.04   17.17
  -7  -3   5   41.49   15.35
   7   3  -5   58.66   15.02
   7   3  -5   60.28   18.66
   7   3  -5   48.45   15.67
   7   3  -5   73.94   16.71
  -7  -3   4   29.46   12.42
  -7  -3   4   29.98   14.31
  -7  -3   4   24.52   13.01
   7   3  -4   35.12   12.81
   7   3  -4   43.70   17.17
   7   3  -4   36.16   14.63
   7   3  -4   27.77   12.49
  -7  -3   3   72.57   15.22
  -7  -3   3   97.28   18.01
  -7  -3   3   73.03   16.78
   7   3  -3   68.35   15.09
   7   3  -3   43.24   17.49
   7   3  -3  113.61   19.57
  -7  -3   2    5.27    9.88
  -7  -3   2   11.71   10.79
  -7  -3   2    6.96   10.73
   7   3  -2    3.97    8.91
   7   3  -2   -4.68   10.73
   7   3  -2    9.10   11.19
  -7  -3   1   17.75   10.92
  -7  -3   1   19.44   14.11
  -7  -3   1   12.42   11.19
  -7  -3   1   12.55   11.32
   7   3  -1   25.88   10.99
   7   3  -1    9.95   12.88
   7   3  -1   44.74   14.05
  -7  -3   0   59.11   13.85
  -7  -3   0   44.15   15.48
  -7  -3   0   54.43   13.07
  -7  -3   0   40.64   13.07
   7   3   0   47.99   13.98
   7   3   0   23.22   13.85
   7   3   0   49.81   14.76
  -7  -3  -1  116.53   17.30
  -7  -3  -1  114.97   18.92
  -7  -3  -1  112.63   15.67
  -7  -3  -1   92.15   16.32
   7   3   1  109.57   17.69
   7   3   1  112.37   13.59
   7   3   1   17.17   11.84
   7   3   1  102.03   18.86
  -7  -3  -2   23.35   11.90
  -7  -3  -2   27.31   14.31
  -7  -3  -2   15.02    9.36
  -7  -3  -2   27.38   11.84
   7   3   2    4.94   10.86
   7   3   2   15.28    8.71
   7   3   2   26.92   12.10
   7   3   2   31.73   13.92
  -7  -3  -3   10.79   10.66
  -7  -3  -3   -0.33   11.77
  -7  -3  -3    5.46    8.58
  -7  -3  -3    5.53   10.08
   7   3   3   10.92   11.05
   7   3   3   -2.02    7.67
   7   3   3    5.66   10.92
   7   3   3    5.20   11.45
  -7  -3  -4    7.61   10.86
  -7  -3  -4   16.91   14.96
  -7  -3  -4   13.07   11.19
   7   3   4   22.11   12.75
   7   3   4   -6.63    9.69
   7   3   4   12.23   13.14
   7   3   4   13.59   12.16
  -7  -3  -5   59.96   16.00
  -7  -3  -5   77.12   18.92
  -7  -3  -5   48.19   13.27
   7   3   5   70.30   17.10
   7   3   5   15.87   11.25
   7   3   5   32.19   17.95
   7   3   5   72.51   18.79
  -7  -3  -6   -3.06   11.12
  -7  -3  -6    9.17   15.28
   7   3   6   -2.80   11.45
   7   3   6   -7.80    8.97
   7   3   6   12.36   13.14
   7   3   6   -1.24   11.64
  -7  -3  -7   49.75   16.45
  -7  -3  -7   73.81   20.68
   7   3   7   64.05   18.01
   7   3   7   23.41   15.09
   7   3   7   61.45   19.18
   7   3   7   54.23   18.14
  -7  -3  -8   97.54   20.94
  -7  -3  -8  166.28   27.44
   7   3   8  142.15   23.93
   7   3   8   10.40   13.72
   7   3   8   77.90   19.83
   7   3   8  121.02   23.48
  -7  -3  -9   13.27   14.31
  -7  -3  -9   26.86   20.35
   7   3   9   10.66   15.93
   7   3   9    5.40   13.98
   7   3   9   14.44   14.50
   7   3   9   11.12   14.89
  -7  -3 -10   14.63   15.93
  -7  -3 -10   12.16   21.13
   7   3  10   35.64   18.08
   7   3  10   -3.06   13.92
   7   3  10   39.54   16.13
  -7  -3 -11    3.38   15.48
  -7  -3 -11  -11.51   21.72
   7   3  11   21.91   17.69
   7   3  11   29.65   22.89
  -7  -3 -12   11.19   17.43
  -7  -3 -12    8.32   25.23
   7   3  12   -6.83   16.32
   7   3  12   -0.59   18.79
  -7  -4  10    2.34   17.75
   7   4 -10   23.80   20.22
   7   4 -10   12.75   15.61
   7   4 -10   14.83   15.61
  -7  -4   9   94.88   24.13
   7   4  -9  134.15   25.62
   7   4  -9  133.89   24.84
   7   4  -9  143.65   25.49
   7   4  -9  100.27   22.04
  -7  -4   8   17.49   16.65
   7   4  -8   26.27   17.04
   7   4  -8   24.58   17.04
   7   4  -8   28.16   15.87
   7   4  -8   13.40   13.66
  -7  -4   7    3.84    9.49
  -7  -4   7   -3.19   12.62
   7   4  -7   10.21   15.02
   7   4  -7   -3.84   12.10
   7   4  -7   -9.23    9.82
  -7  -4   6    9.17    9.62
  -7  -4   6   -3.90   12.42
   7   4  -6   13.92   11.32
   7   4  -6    9.56   13.85
   7   4  -6    8.52   12.62
   7   4  -6    0.78   10.53
  -7  -4   5   62.23   13.72
  -7  -4   5   82.26   20.16
  -7  -4   5   72.77   18.66
   7   4  -5   72.18   16.45
   7   4  -5   73.42   19.05
   7   4  -5   88.11   18.60
   7   4  -5   84.86   18.01
  -7  -4   4   17.10   10.40
  -7  -4   4   25.43   14.76
  -7  -4   4   11.12   10.99
   7   4  -4   10.08   10.79
   7   4  -4    7.67   13.07
   7   4  -4   28.87   12.68
   7   4  -4   17.69   12.42
  -7  -4   3    1.50    8.65
  -7  -4   3   -7.80   10.01
  -7  -4   3   -1.43    9.30
   7   4  -3    4.29    9.04
   7   4  -3   24.71   16.58
   7   4  -3    7.41   10.73
  -7  -4   2    3.71    8.97
  -7  -4   2    7.80   11.38
  -7  -4   2   -9.23    8.19
   7   4  -2    2.41    8.52
   7   4  -2    2.15   12.55
   7   4  -2   10.73   10.01
  -7  -4   1   12.49    9.75
  -7  -4   1   -8.91   12.42
  -7  -4   1    0.98    9.56
  -7  -4   1    3.19   10.53
   7   4  -1    0.85    8.91
   7   4  -1   11.12   10.86
   7   4  -1    1.37    9.56
  -7  -4   0   26.53   11.19
  -7  -4   0   20.74   14.70
  -7  -4   0   10.60    9.75
  -7  -4   0   20.29   11.84
   7   4   0   21.39   11.32
   7   4   0   -1.82   10.40
   7   4   0   38.30   12.49
  -7  -4  -1   20.74   10.79
  -7  -4  -1   18.60   14.63
  -7  -4  -1   39.86   11.25
  -7  -4  -1   37.91   13.01
   7   4   1   34.21   12.49
   7   4   1    9.62   10.73
   7   4   1   30.04   12.62
  -7  -4  -2   75.63   14.89
  -7  -4  -2   74.33   18.34
  -7  -4  -2   76.41   12.81
  -7  -4  -2   83.37   16.13
   7   4   2   74.65   15.35
   7   4   2    6.70    6.57
   7   4   2   13.59   11.84
   7   4   2   85.25   17.62
  -7  -4  -3   45.85   13.53
  -7  -4  -3   78.30   18.73
  -7  -4  -3   62.43   14.44
   7   4   3   64.12   15.74
   7   4   3   -0.26    6.83
   7   4   3   10.92   11.45
   7   4   3   72.38   17.30
  -7  -4  -4    8.26   10.66
  -7  -4  -4   -3.06   13.40
  -7  -4  -4    0.72    9.36
   7   4   4    2.02   10.86
   7   4   4  -16.19    7.67
   7   4   4    5.07   11.25
   7   4   4    1.50   11.38
  -7  -4  -5  101.90   18.14
  -7  -4  -5  137.34   22.89
  -7  -4  -5   93.25   15.54
   7   4   5  109.44   20.09
   7   4   5   37.72   17.62
   7   4   5  138.12   22.30
  -7  -4  -6   82.00   17.23
  -7  -4  -6   80.57   20.48
  -7  -4  -6   88.37   15.54
   7   4   6   90.59   19.77
   7   4   6   41.29   15.54
   7   4   6  117.12   21.59
  -7  -4  -7   -0.98   11.58
  -7  -4  -7   11.25   16.84
   7   4   7   15.93   14.18
   7   4   7   12.03   14.76
   7   4   7   16.84   14.44
  -7  -4  -8   10.92   13.27
  -7  -4  -8   44.28   20.42
   7   4   8   33.36   16.71
   7   4   8   18.79   14.37
   7   4   8   15.87   14.76
  -7  -4  -9   32.51   15.15
  -7  -4  -9   65.29   23.09
   7   4   9   39.86   17.04
   7   4   9   60.80   20.09
   7   4   9   26.53   15.80
  -7  -4 -10   99.17   21.26
  -7  -4 -10  164.46   30.11
   7   4  10  144.69   25.30
   7   4  10    3.51   13.46
   7   4  10  106.84   22.50
   7   4  10  149.57   26.60
  -7  -4 -11    4.81   15.54
  -7  -4 -11   32.32   24.00
   7   4  11   44.67   20.03
   7   4  11   10.47   16.13
   7   4  11   33.75   17.75
  -7  -4 -12   24.65   17.43
  -7  -4 -12   25.62   25.43
   7   4  12   26.53   20.16
   7   4  12   18.66   18.34
  -7  -5  10   41.81   22.89
   7   5 -10   15.87   19.18
   7   5 -10   31.34   17.49
   7   5 -10    9.69   15.48
  -7  -5   9   62.36   22.30
   7   5  -9   74.33   22.11
   7   5  -9   93.38   22.37
   7   5  -9   56.64   18.99
  -7  -5   8   80.83   23.54
   7   5  -8  126.03   24.45
   7   5  -8  132.66   24.19
   7   5  -8  106.84   21.52
   7   5  -8   72.96   19.70
  -7  -5   7   41.55   19.12
   7   5  -7   53.78   18.79
   7   5  -7   57.29   17.04
   7   5  -7   43.37   17.56
  -7  -5   6    8.78   13.01
   7   5  -6    9.62   11.64
   7   5  -6   13.98   15.15
   7   5  -6   -2.15   11.51
   7   5  -6   -1.17   11.64
  -7  -5   5   34.40   15.09
   7   5  -5   16.32   11.51
   7   5  -5   27.70   14.70
   7   5  -5   38.37   14.18
   7   5  -5   30.63   14.18
  -7  -5   4  171.55   17.56
  -7  -5   4  182.47   25.69
   7   5  -4  186.70   21.72
   7   5  -4   83.04   19.25
   7   5  -4  198.99   23.35
   7   5  -4  180.72   24.84
  -7  -5   3   -5.01    7.74
  -7  -5   3   -6.83    9.23
   7   5  -3    2.47    9.43
   7   5  -3    7.48   11.90
   7   5  -3   -8.06    9.17
   7   5  -3   -4.68    9.56
  -7  -5   2   12.03    9.17
  -7  -5   2    2.28   10.60
   7   5  -2    1.50    8.52
   7   5  -2   15.41   13.85
   7   5  -2   11.45   10.53
  -7  -5   1   99.23   14.31
  -7  -5   1  111.26   21.78
  -7  -5   1   63.60   15.35
   7   5  -1  121.02   18.66
   7   5  -1   14.83   13.72
   7   5  -1   98.13   18.08
  -7  -5   0   63.53   12.23
  -7  -5   0   71.08   19.51
  -7  -5   0   67.50   16.26
   7   5   0   69.97   15.02
   7   5   0   26.99   13.59
   7   5   0   79.86   16.26
  -7  -5  -1   11.12    9.17
  -7  -5  -1   21.98   15.54
  -7  -5  -1   20.55   10.21
  -7  -5  -1   27.31   12.49
   7   5   1   14.44   11.05
   7   5   1    7.02   10.34
   7   5   1   16.13   11.51
  -7  -5  -2  302.91   21.78
  -7  -5  -2  312.53   29.39
  -7  -5  -2  271.11   18.99
  -7  -5  -2  277.67   23.15
   7   5   2  285.35   23.67
   7   5   2  111.92   19.77
   7   5   2  357.01   26.79
  -7  -5  -3  101.19   16.13
  -7  -5  -3  118.81   21.59
  -7  -5  -3   99.36   16.84
   7   5   3  131.10   20.16
   7   5   3   58.72   15.67
   7   5   3  107.88   19.18
  -7  -5  -4    7.87   10.40
  -7  -5  -4    1.82   14.37
  -7  -5  -4    6.89    9.88
   7   5   4   -2.21   11.12
   7   5   4   43.76   18.21
   7   5   4   -8.84   10.08
  -7  -5  -5  114.52   17.43
  -7  -5  -5  150.93   25.30
  -7  -5  -5  124.73   17.62
   7   5   5  136.30   21.52
   7   5   5   80.25   21.33
   7   5   5  124.01   21.46
  -7  -5  -6  285.02   24.45
  -7  -5  -6  326.06   33.29
  -7  -5  -6  243.21   20.94
   7   5   6  326.77   27.83
   7   5   6  251.66   26.86
   7   5   6  319.16   28.48
  -7  -5  -7   60.80   16.58
  -7  -5  -7   51.24   20.35
   7   5   7   80.38   19.38
   7   5   7   49.94   17.75
   7   5   7   40.38   15.67
  -7  -5  -8   88.11   18.34
  -7  -5  -8  127.07   25.56
   7   5   8  115.56   21.85
   7   5   8  103.79   21.78
   7   5   8   76.86   19.77
  -7  -5  -9  186.31   24.58
  -7  -5  -9  242.69   32.38
   7   5   9  237.23   29.33
   7   5   9  235.08   31.73
   7   5   9  264.99   30.76
  -7  -5 -10   11.38   14.63
  -7  -5 -10   43.05   22.57
   7   5  10   18.92   17.23
   7   5  10    5.59   15.87
   7   5  10   18.73   16.06
  -7  -5 -11    7.61   15.48
  -7  -5 -11    2.28   21.13
   7   5  11   -1.11   16.58
   7   5  11   -4.49   15.22
   7   5  11   17.75   16.45
  -7  -5 -12    3.19   14.96
  -7  -5 -12   36.35   25.62
   7   5  12   26.01   19.18
   7   5  12   50.33   20.68
  -7  -5 -13   55.34   20.42
  -7  -5 -13  118.42   31.86
   7   5  13   78.95   24.91
  -7  -6   9    4.03   19.51
   7   6  -9   -1.11   17.62
   7   6  -9   22.44   16.06
   7   6  -9   -2.41   15.54
  -7  -6   8   58.07   21.78
   7   6  -8   45.00   18.86
   7   6  -8   43.18   16.91
   7   6  -8   53.71   18.66
  -7  -6   7   81.16   23.80
   7   6  -7   57.81   18.86
   7   6  -7  110.03   20.94
   7   6  -7   94.03   21.52
  -7  -6   6    4.03   14.44
   7   6  -6  -10.86    9.88
   7   6  -6   -2.93   13.07
   7   6  -6    1.37   11.71
   7   6  -6    5.72   12.03
  -7  -6   5   16.39   16.71
   7   6  -5   23.93   12.75
   7   6  -5   26.40   15.15
   7   6  -5   23.61   13.46
   7   6  -5   14.70   13.40
  -7  -6   4  142.15   24.84
   7   6  -4  194.57   22.17
   7   6  -4   54.49   16.52
   7   6  -4  184.88   22.89
   7   6  -4  204.00   26.79
  -7  -6   3   -5.98   10.21
   7   6  -3    0.33    9.88
   7   6  -3   10.79   12.10
   7   6  -3    7.48   10.40
   7   6  -3    6.50   11.51
  -7  -6   2    8.06   11.32
   7   6  -2    6.11    9.88
   7   6  -2   -5.66    9.88
   7   6  -2    5.72    9.95
  -7  -6   1   35.64   18.79
  -7  -6   1   24.32   13.27
   7   6  -1   25.36   10.86
   7   6  -1   11.05   12.36
   7   6  -1   63.47   14.37
  -7  -6   0   84.15   21.59
  -7  -6   0   53.06   15.22
   7   6   0  101.97   16.71
   7   6   0   64.64   18.08
   7   6   0  100.21   17.30
  -7  -6  -1    3.12   15.28
  -7  -6  -1   12.68   11.45
   7   6   1   10.08    9.88
   7   6   1   13.46   15.15
   7   6   1    7.93    9.82
  -7  -6  -2   99.17   13.59
  -7  -6  -2  163.09   24.65
  -7  -6  -2  103.79   17.82
   7   6   2  141.11   20.35
   7   6   2   65.22   18.86
   7   6   2  149.31   20.81
  -7  -6  -3  413.58   22.76
  -7  -6  -3  512.49   35.77
  -7  -6  -3  455.79   27.25
   7   6   3  501.05   29.52
   7   6   3  342.57   31.60
   7   6   3  501.50   30.11
  -7  -6  -4  200.42   19.25
  -7  -6  -4  193.07   27.12
  -7  -6  -4  177.40   19.90
   7   6   4  211.41   23.09
   7   6   4  149.70   25.04
   7   6   4  191.97   23.41
  -7  -6  -5    0.26    9.82
  -7  -6  -5  -16.71   14.31
  -7  -6  -5    4.55    9.88
   7   6   5    6.83   11.38
   7   6   5    2.28   12.75
   7   6   5    8.71   12.10
  -7  -6  -6  161.01   19.83
  -7  -6  -6  142.09   25.56
   7   6   6  157.89   22.57
   7   6   6  150.87   25.23
   7   6   6  198.14   23.93
  -7  -6  -7  127.39   18.47
  -7  -6  -7  189.75   28.35
   7   6   7  177.27   24.65
   7   6   7  202.50   29.65
   7   6   7  191.51   25.88
  -7  -6  -8   59.44   15.74
  -7  -6  -8   74.33   22.96
   7   6   8   89.02   20.68
   7   6   8   74.33   20.29
   7   6   8   68.87   18.53
  -7  -6  -9   23.87   14.31
  -7  -6  -9   41.23   21.39
   7   6   9   46.43   18.08
   7   6   9   63.08   22.24
   7   6   9   35.38   17.30
  -7  -6 -10    8.19   13.79
  -7  -6 -10   17.36   21.39
   7   6  10  -16.84   13.92
   7   6  10    0.78   16.13
   7   6  10    0.78   15.28
  -7  -6 -11  129.02   22.63
  -7  -6 -11  186.89   32.97
   7   6  11  132.01   26.47
   7   6  11  161.92   29.20
   7   6  11  145.01   26.60
  -7  -6 -12   70.82   20.55
  -7  -6 -12  145.54   33.62
   7   6  12   73.16   23.80
   7   6  12   74.65   23.54
   7   6  12   42.33   19.05
  -7  -6 -13   33.23   18.99
  -7  -6 -13   38.76   27.83
   7   6  13   15.61   19.64
   7   6  13    9.10   18.47
   7   6  13    3.77   21.39
  -7  -7   8   54.36   23.80
   7   7  -8   32.51   16.45
   7   7  -8   34.66   18.14
  -7  -7   7   22.11   18.99
   7   7  -7   49.88   19.12
   7   7  -7   32.51   14.96
   7   7  -7   24.13   15.61
  -7  -7   6   -3.84   15.93
   7   7  -6   -8.19   13.53
   7   7  -6   23.28   12.88
   7   7  -6   -2.28   11.97
  -7  -7   5   11.97   16.97
   7   7  -5   18.01   12.68
   7   7  -5    1.56   13.72
   7   7  -5    4.62   10.92
   7   7  -5   -0.91   11.77
  -7  -7   4   56.64   19.38
   7   7  -4   50.92   14.50
   7   7  -4    4.10   13.14
   7   7  -4   61.58   15.80
   7   7  -4   58.59   18.08
  -7  -7   3   18.99   14.37
   7   7  -3   15.35   11.71
   7   7  -3    3.90   11.45
   7   7  -3   22.44   12.75
   7   7  -3   13.20   13.59
  -7  -7   2   53.71   18.14
   7   7  -2   50.01   13.40
   7   7  -2   11.12   12.68
   7   7  -2   56.06   14.63
   7   7  -2   57.81   16.78
  -7  -7   1   26.27   18.14
  -7  -7   1   -1.63   11.84
   7   7  -1   22.11   10.86
   7   7  -1   -3.51   10.34
   7   7  -1   18.40   10.60
  -7  -7   0   92.15   22.24
  -7  -7   0   72.25   18.01
   7   7   0   89.15   15.67
   7   7   0   24.78   13.07
   7   7   0   92.67   16.65
  -7  -7  -1   64.77   19.51
  -7  -7  -1   65.68   15.87
   7   7   1   88.76   16.26
   7   7   1   57.29   17.10
   7   7   1   61.00   14.63
  -7  -7  -2   18.66   16.06
  -7  -7  -2    6.76   10.34
   7   7   2   -3.77    9.75
   7   7   2    6.44   12.10
   7   7   2    5.07    9.69
  -7  -7  -3  201.33   27.31
  -7  -7  -3  175.12   20.74
   7   7   3  218.17   22.70
   7   7   3  183.64   26.99
   7   7   3  207.57   22.11
  -7  -7  -4  376.26   34.01
  -7  -7  -4  318.64   23.80
   7   7   4  387.90   27.12
   7   7   4  346.28   30.50
   7   7   4  372.29   27.38
  -7  -7  -5  103.27   23.67
  -7  -7  -5   95.40   16.32
   7   7   5  115.75   20.09
   7   7   5   92.67   21.39
   7   7   5   93.45   18.08
  -7  -7  -6    2.80   12.49
  -7  -7  -6   -8.58   15.35
   7   7   6    4.36   12.10
   7   7   6    1.37   13.85
   7   7   6   14.44   12.29
  -7  -7  -7   14.44   11.45
  -7  -7  -7    6.44   17.23
   7   7   7   16.13   13.53
   7   7   7   14.57   15.67
   7   7   7   -4.10   12.49
  -7  -7  -8  110.81   18.08
  -7  -7  -8  109.25   26.14
   7   7   8  135.46   22.96
   7   7   8  133.83   24.39
   7   7   8  125.57   22.04
  -7  -7  -9    8.84   12.49
  -7  -7  -9    3.06   19.18
   7   7   9    5.20   14.63
   7   7   9    4.49   15.22
   7   7   9   15.28   14.31
  -7  -7 -10   -7.74   12.68
  -7  -7 -10    4.62   20.48
   7   7  10   26.21   17.75
   7   7  10   -1.56   15.35
   7   7  10   18.73   16.26
  -7  -7 -11   25.30   15.54
  -7  -7 -11   15.67   22.50
   7   7  11   19.70   17.75
   7   7  11    5.92   18.01
   7   7  11   10.53   15.48
  -7  -7 -12   70.75   18.92
  -7  -7 -12   86.10   29.33
   7   7  12   81.68   23.61
   7   7  12   80.18   24.71
   7   7  12   73.74   21.46
  -7  -7 -13   16.06   15.87
  -7  -7 -13   20.29   26.53
   7   7  13   23.87   20.81
   7   7  13   27.90   20.29
   7   7  13   12.62   17.75
  -7  -8   7   20.87   20.81
   7   8  -7    0.26   12.36
   7   8  -7   10.27   15.09
  -7  -8   6   -1.82   17.36
   7   8  -6   23.15   13.92
   7   8  -6   -1.17   13.72
  -7  -8   5   10.92   16.97
   7   8  -5   -5.72   13.27
   7   8  -5    0.78   11.19
   7   8  -5   -6.89   12.49
  -7  -8   4   15.15   16.58
   7   8  -4   -4.42   12.75
   7   8  -4   26.53   12.36
   7   8  -4   12.81   15.02
  -7  -8   3   43.63   17.36
   7   8  -3   15.15   13.53
   7   8  -3   63.79   14.89
   7   8  -3   36.35   15.54
  -7  -8   2    0.98   13.79
   7   8  -2    0.59   11.58
   7   8  -2    4.29   13.07
   7   8  -2    5.40   10.47
   7   8  -2   25.43   13.53
  -7  -8   1   41.75   17.17
   7   8  -1   32.32   12.94
   7   8  -1   -2.15   10.53
   7   8  -1   33.95   13.01
  -7  -8   0  242.04   32.06
  -7  -8   0  229.29   26.86
   7   8   0  220.06   21.00
   7   8   0  118.61   20.94
   7   8   0  248.74   22.37
  -7  -8  -1  229.23   30.69
  -7  -8  -1  187.54   24.39
   7   8   1  177.72   20.09
   7   8   1  107.36   23.15
   7   8   1  198.99   21.13
  -7  -8  -2   21.59   17.49
  -7  -8  -2   21.59   12.62
   7   8   2   15.80   11.71
   7   8   2   18.53   14.37
   7   8   2   22.37   10.92
  -7  -8  -3   36.42   18.66
  -7  -8  -3   45.26   15.02
   7   8   3   57.23   15.28
   7   8   3   47.80   17.49
   7   8   3   50.40   14.11
  -7  -8  -4  248.22   32.25
  -7  -8  -4  182.41   21.52
   7   8   4  222.66   23.22
   7   8   4  212.78   28.35
   7   8   4  204.78   22.50
  -7  -8  -5   89.35   22.70
  -7  -8  -5  102.68   16.71
   7   8   5  105.02   19.31
   7   8   5   75.43   20.03
   7   8   5  126.87   19.70
  -7  -8  -6   -0.65   17.04
   7   8   6    6.50   11.84
   7   8   6    3.84   13.72
   7   8   6    0.00   10.92
  -7  -8  -7    5.14   16.91
   7   8   7    8.52   12.81
   7   8   7  -15.22   13.40
   7   8   7   -3.19   11.45
  -7  -8  -8   40.51   21.13
   7   8   8   43.44   16.84
   7   8   8   37.52   19.64
   7   8   8   41.94   15.80
  -7  -8  -9   91.56   26.27
   7   8   9   66.59   19.90
   7   8   9   38.37   19.51
   7   8   9   77.32   18.27
  -7  -8 -10    8.39   21.59
   7   8  10    1.82   15.61
   7   8  10  -13.72   15.09
   7   8  10   -1.76   12.88
  -7  -8 -11    0.13   19.90
   7   8  11   22.83   18.53
   7   8  11   -7.61   16.91
   7   8  11   -8.97   12.94
  -7  -8 -12   48.51   27.12
   7   8  12   38.37   20.48
   7   8  12   71.21   26.60
   7   8  12   31.41   18.14
  -7  -8 -13  128.76   33.29
   7   8  13   95.46   26.14
   7   8  13   95.98   26.86
   7   8  13   92.60   24.52
  -7  -9   6   79.60   26.73
   7   9  -6   73.42   17.62
   7   9  -6   43.18   21.33
  -7  -9   5   41.88   20.74
   7   9  -5   35.38   14.50
   7   9  -5   36.68   17.23
  -7  -9   4   -0.20   16.39
   7   9  -4   19.70   14.89
   7   9  -4    2.08   10.47
   7   9  -4    4.03   13.79
  -7  -9   3   26.08   17.82
   7   9  -3    6.76   12.94
   7   9  -3   28.16   12.62
   7   9  -3   50.40   18.73
  -7  -9   2   17.69   16.06
   7   9  -2    1.76   12.23
   7   9  -2    4.42    9.82
   7   9  -2    8.65   13.20
  -7  -9   1   38.76   16.71
   7   9  -1   18.92   13.33
   7   9  -1   13.85   10.86
   7   9  -1    8.00   13.98
  -7  -9   0   96.70   24.78
  -7  -9   0   73.42   19.25
   7   9   0   70.95   18.73
   7   9   0   94.68   15.41
  -7  -9  -1   16.32   19.90
  -7  -9  -1   11.58   13.40
   7   9   1   25.62   15.22
   7   9   1   20.48   11.71
  -7  -9  -2   42.07   21.52
  -7  -9  -2   34.34   15.41
   7   9   2   23.22   14.63
   7   9   2   27.64   11.25
  -7  -9  -3  102.16   24.65
  -7  -9  -3   89.87   18.53
   7   9   3   99.56   22.50
   7   9   3  127.33   18.34
  -7  -9  -4   59.96   22.96
  -7  -9  -4   62.49   16.06
   7   9   4   86.68   17.62
   7   9   4  105.35   23.80
   7   9   4   57.10   14.50
  -7  -9  -5   -9.30   16.13
   7   9   5    3.51   11.05
   7   9   5    8.84   13.66
   7   9   5   -2.08   11.19
  -7  -9  -6   52.22   21.85
   7   9   6   92.15   18.21
   7   9   6   93.38   22.76
   7   9   6  102.49   18.40
  -7  -9  -7   82.26   24.19
   7   9   7   94.10   19.83
   7   9   7   56.12   21.07
   7   9   7   67.31   17.23
  -7  -9  -8   22.57   19.38
   7   9   8    3.77   14.57
   7   9   8   -4.42   16.32
   7   9   8   15.22   13.27
  -7  -9  -9  229.49   34.73
   7   9   9  232.74   29.91
   7   9   9  162.38   29.07
   7   9   9  144.36   22.57
  -7  -9 -10   -1.89   21.46
   7   9  10   14.05   16.78
   7   9  10    2.47   16.65
   7   9  10   27.12   16.19
  -7  -9 -11    3.58   22.96
   7   9  11   13.79   18.73
   7   9  11    7.93   19.05
   7   9  11   27.31   16.78
  -7  -9 -12   44.28   24.71
   7   9  12   16.06   19.31
   7   9  12   15.15   21.13
   7   9  12   11.84   15.80
   7   9  13   33.29   21.46
  -7 -10   4   48.38   21.46
   7  10  -4   28.48   17.69
  -7 -10   3   -1.95   16.32
   7  10  -3    5.07   13.59
   7  10  -3  -17.95   12.88
  -7 -10   2  -10.27   14.50
   7  10  -2    6.83   13.33
   7  10  -2    6.63   14.70
  -7 -10   1   21.13   16.97
   7  10  -1   26.08   15.22
   7  10  -1   17.62   16.00
  -7 -10   0   -1.17   18.08
  -7 -10   0    7.67   15.35
   7  10   0   12.49   14.44
   7  10   0   18.60   15.87
  -7 -10  -1  -14.70   18.14
  -7 -10  -1    2.34   13.79
   7  10   1   -0.07   13.46
  -7 -10  -2   14.50   18.73
  -7 -10  -2    6.96   14.05
   7  10   2   22.70   15.22
  -7 -10  -3   27.05   19.90
  -7 -10  -3    2.47   12.55
   7  10   3    5.59   15.41
  -7 -10  -4   19.38   19.96
  -7 -10  -4   10.34   13.07
   7  10   4    5.20   15.41
   7  10   4    7.67    9.82
  -7 -10  -5   58.98   24.13
   7  10   5   79.47   22.50
   7  10   5   65.09   15.41
  -7 -10  -6  250.82   34.01
   7  10   6  216.87   31.54
   7  10   6  184.49   22.83
  -7 -10  -7   59.24   24.19
   7  10   7   39.47   20.16
   7  10   7   49.94   15.22
  -7 -10  -8   23.48   20.68
   7  10   8   13.59   18.01
   7  10   8   -1.30   12.23
  -7 -10  -9   77.06   26.08
   7  10   9   84.93   21.72
   7  10   9   63.27   23.80
   7  10   9   77.12   18.34
  -7 -10 -10   14.76   22.96
   7  10  10   -2.60   15.93
   7  10  10   10.47   20.16
   7  10  10   17.75   15.02
  -7 -10 -11   39.99   25.30
   7  10  11   18.14   18.53
   7  10  11   46.76   23.67
   7  10  11   48.19   17.75
  -7 -10 -12   -8.97   24.58
   7  10  12    2.02   18.53
   7  10  12  -24.71   18.47
   7  10  12   10.60   16.39
  -7 -11   3   13.46   18.27
   7  11  -3   35.51   20.68
  -7 -11   2    4.29   16.78
   7  11  -2   11.84   15.54
   7  11  -2   19.05   17.56
  -7 -11   1   76.60   21.98
   7  11  -1   53.45   18.40
   7  11  -1   70.36   22.96
  -7 -11   0   88.44   22.57
   7  11   0  110.61   23.67
   7  11   0  141.18   26.53
  -7 -11  -1   22.44   20.35
  -7 -11  -1   31.15   17.43
   7  11   1   30.89   17.56
   7  11   1   24.84   16.71
  -7 -11  -2  146.84   30.56
  -7 -11  -2  138.84   24.19
   7  11   2  164.20   28.35
  -7 -11  -3  656.60   46.95
  -7 -11  -3  519.84   35.05
   7  11   3  535.90   39.08
  -7 -11  -4  234.17   34.01
  -7 -11  -4  191.64   33.69
   7  11   4  199.44   29.65
  -7 -11  -5   78.10   24.97
   7  11   5   80.77   24.45
  -7 -11  -6  348.82   40.12
   7  11   6  250.82   34.47
   7  11   6  260.77   24.06
  -7 -11  -7  334.96   39.73
   7  11   7  276.24   37.33
   7  11   7  274.88   25.36
  -7 -11  -8  221.68   34.53
   7  11   8  158.80   31.08
   7  11   8  181.17   24.06
  -7 -11  -9    6.31   21.98
   7  11   9   -1.04   18.86
   7  11   9    2.60   12.29
  -7 -11 -10   16.06   22.70
   7  11  10    8.45   21.39
   7  11  10   32.45   15.67
  -7 -11 -11   63.14   26.60
   7  11  11   12.36   21.39
   7  11  11   14.76   15.41
  -7 -12   1    1.89   16.91
   7  12  -1   12.16   20.42
   7  12  -1    5.46   16.97
  -7 -12   0   54.04   21.59
   7  12   0   32.51   19.38
   7  12   0   46.63   20.29
  -7 -12  -1   62.62   21.65
   7  12   1   50.53   20.81
   7  12   1   59.70   20.81
  -7 -12  -2   -6.24   20.16
  -7 -12  -2   14.57   16.06
   7  12   2    6.70   16.58
   7  12   2   -0.33   16.26
  -7 -12  -3   20.81   22.44
  -7 -12  -3   64.18   20.09
   7  12   3   65.81   22.76
  -7 -12  -4  223.18   33.56
   7  12   4  256.67   34.73
  -7 -12  -5  213.30   35.12
   7  12   5  155.09   28.16
  -7 -12  -6    1.37   20.55
   7  12   6   -0.46   18.53
  -7 -12  -7  167.25   32.25
   7  12   7  119.46   28.35
  -7 -12  -8  108.73   28.74
   7  12   8   75.04   25.69
   7  12   8  105.87   18.92
  -7 -12  -9   60.15   26.21
   7  12   9   19.31   22.96
   7  12   9   66.33   18.21
  -7 -12 -10   54.17   26.01
   7  12  10   18.01   21.13
   7  12  10   28.74   16.06
   7  13   2   66.65   23.02
   7  13   2   79.14   24.00
  -7 -13  -3    4.36   20.68
   7  13   3   11.90   19.31
   7  13   3    7.54   17.10
  -7 -13  -4   71.40   27.25
   7  13   4   46.11   22.63
  -7 -13  -5  204.19   34.08
   7  13   5  237.75   35.18
  -7 -13  -6   61.58   25.88
   7  13   6   82.46   26.53
  -7 -13  -7   26.47   24.52
   7  13   7  -15.48   18.79
  -7 -13  -8   49.68   26.01
   7  13   8   13.53   21.33
  -8   6   7   19.64   19.38
  -8   6   7  -13.07   19.05
   8  -6  -7   13.01   20.42
   8  -6  -7   19.64   24.45
  -8   6   6   68.80   21.85
  -8   6   6   95.07   28.09
   8  -6  -6   85.90   22.04
   8  -6  -6   76.28   26.79
   8  -6  -6   96.70   29.33
  -8   6   5   20.55   18.99
  -8   6   5   36.74   22.70
   8  -6  -5   34.14   17.36
   8  -6  -5   79.21   28.87
   8  -6  -5   66.33   26.73
  -8   6   4    5.79   17.49
  -8   6   4   16.58   20.35
   8  -6  -4   -4.16   13.01
   8  -6  -4    5.66   20.48
   8  -6  -4   -0.39   20.29
  -8   6   3   49.55   21.00
  -8   6   3   52.09   22.37
   8  -6  -3   26.01   16.84
   8  -6  -3   53.26   25.88
   8  -6  -3   53.58   23.93
  -8   6   2   31.08   19.57
  -8   6   2   32.51   21.59
   8  -6  -2   40.19   17.88
   8  -6  -2   39.80   24.45
   8  -6  -2   51.70   21.20
  -8   6   1   32.71   21.59
  -8   6   1   22.44   20.35
   8  -6  -1   12.29   15.28
   8  -6  -1   22.37   20.55
   8  -6  -1   19.83   23.15
   8  -6  -1   11.71   17.56
  -8   5   9    5.40   17.62
  -8   5   9   25.10   25.30
  -8   5   9   11.58   16.58
   8  -5  -9   17.36   18.73
   8  -5  -9   18.21   21.78
   8  -5  -9   25.04   25.43
  -8   5   8   80.12   23.54
  -8   5   8   70.95   25.23
  -8   5   8   55.53   19.64
   8  -5  -8   71.86   25.04
   8  -5  -8  115.23   30.56
  -8   5   7   31.86   19.70
  -8   5   7   13.92   21.85
   8  -5  -7   33.88   22.37
   8  -5  -7   33.03   24.58
  -8   5   6    9.62   17.56
  -8   5   6  -21.20   16.91
   8  -5  -6    1.43   14.05
   8  -5  -6    4.49   20.16
   8  -5  -6  -37.13   18.60
  -8   5   5   22.50   17.88
  -8   5   5   61.91   22.70
   8  -5  -5   34.21   17.17
   8  -5  -5   -6.96   20.42
   8  -5  -5   33.95   24.06
  -8   5   4   18.73   17.62
  -8   5   4   43.24   20.87
   8  -5  -4   42.92   17.23
   8  -5  -4   22.30   24.19
   8  -5  -4   28.81   24.71
  -8   5   3  -13.98   16.26
  -8   5   3   -2.67   17.30
   8  -5  -3   -1.04   12.42
   8  -5  -3  -26.73   20.03
   8  -5  -3  -29.13   19.05
  -8   5   2   17.49   18.27
  -8   5   2   41.10   21.91
   8  -5  -2   27.57   16.00
   8  -5  -2   -7.67   23.02
   8  -5  -2    7.35   19.31
  -8   5   1   42.85   19.44
  -8   5   1   35.05   19.31
   8  -5  -1   34.21   17.43
   8  -5  -1   24.97   17.75
   8  -5  -1   20.09   23.02
   8  -5  -1   26.21   19.44
  -8   5   0   27.57   20.09
  -8   5   0   34.40   21.07
   8  -5   0   41.23   18.08
   8  -5   0   46.82   20.81
   8  -5   0   36.29   22.50
   8  -5   0   25.49   18.66
  -8   5  -1   -0.07   17.49
  -8   5  -1    1.37   17.69
   8  -5   1    2.47   14.31
   8  -5   1   18.60   18.73
   8  -5   1   -7.35   20.16
   8  -5   1    6.37   16.00
  -8   5  -2  -12.16   17.23
  -8   5  -2   -4.55   18.60
   8  -5   2   -2.02   14.24
   8  -5   2   17.88   19.83
   8  -5   2   -5.01   19.05
   8  -5   2   10.60   18.27
  -8   4  10    5.98   17.62
  -8   4  10   10.34   21.91
  -8   4  10    9.88   14.70
   8  -4 -10   12.75   17.69
   8  -4 -10   29.59   21.13
   8  -4 -10   22.76   23.02
  -8   4   9  -10.21   14.70
  -8   4   9    1.37   20.03
  -8   4   9   -8.97   13.20
   8  -4  -9  -24.32   14.05
   8  -4  -9  -15.67   17.82
   8  -4  -9   -8.19   19.64
  -8   4   8   51.44   19.96
  -8   4   8   26.99   21.20
  -8   4   8   35.96   17.62
   8  -4  -8   33.95   21.98
   8  -4  -8   51.63   24.78
  -8   4   7   32.58   18.27
  -8   4   7   34.01   21.07
  -8   4   7   43.11   17.49
   8  -4  -7   18.01   15.61
   8  -4  -7    6.31   22.76
   8  -4  -7   -5.98   21.07
  -8   4   6    3.84   14.70
  -8   4   6   -7.35   17.43
   8  -4  -6    2.80   13.79
   8  -4  -6    9.30   19.57
   8  -4  -6   -7.22   20.87
  -8   4   5   -0.13   16.00
  -8   4   5   -0.78   17.88
   8  -4  -5    3.25   12.03
   8  -4  -5    7.93   19.05
   8  -4  -5  -34.01   16.52
  -8   4   4   30.11   17.23
  -8   4   4   31.73   20.48
   8  -4  -4   13.92   13.14
   8  -4  -4   32.25   21.91
   8  -4  -4   26.08   21.59
  -8   4   3   22.04   17.43
  -8   4   3   16.45   18.47
   8  -4  -3   32.77   16.19
   8  -4  -3   35.25   21.46
   8  -4  -3   36.48   23.28
  -8   4   2   -6.50   16.19
  -8   4   2   11.84   16.78
   8  -4  -2    6.96   13.46
   8  -4  -2   -9.17   18.86
   8  -4  -2   -6.37   17.95
  -8   4   1    4.75   15.93
  -8   4   1   -9.49   16.39
   8  -4  -1   -0.33   13.01
   8  -4  -1   10.92   21.52
   8  -4  -1   15.41   21.78
   8  -4  -1  -10.27   15.61
  -8   4   0   41.75   18.86
  -8   4   0   63.14   21.65
   8  -4   0   49.75   17.49
   8  -4   0   30.50   17.17
   8  -4   0   17.10   22.57
   8  -4   0   35.18   21.26
  -8   4  -1   49.03   20.35
  -8   4  -1   59.31   20.55
   8  -4   1   19.12   15.93
   8  -4   1   41.29   19.12
   8  -4   1  -17.88   24.71
   8  -4   1  -18.40   18.53
  -8   4  -2   16.78   17.82
  -8   4  -2   15.22   18.34
   8  -4   2   -9.95   13.40
   8  -4   2   31.02   18.01
   8  -4   2    0.07   22.76
   8  -4   2   17.04   18.08
  -8   4  -3   25.36   19.25
  -8   4  -3   23.41   20.16
   8  -4   3   22.37   16.32
   8  -4   3   52.67   20.55
   8  -4   3   50.14   24.71
   8  -4   3   13.27   17.56
  -8   4  -4   45.65   22.37
   8  -4   4   53.13   19.05
   8  -4   4   86.16   25.04
   8  -4   4   49.23   22.04
  -8   3  10   -5.14   15.87
  -8   3  10   15.02   20.74
  -8   3  10    5.27   15.28
   8  -3 -10    1.37   17.95
   8  -3 -10   23.80   22.76
   8  -3 -10   37.52   35.70
  -8   3   9   20.35   17.10
  -8   3   9   -2.80   18.60
  -8   3   9    5.72   13.98
   8  -3  -9   10.01   17.17
   8  -3  -9    9.10   18.47
   8  -3  -9   21.65   21.07
  -8   3   8   14.76   17.36
  -8   3   8    3.97   18.53
  -8   3   8   25.95   15.09
   8  -3  -8    8.00   22.11
   8  -3  -8   25.88   22.70
  -8   3   7   30.82   17.69
  -8   3   7   69.84   22.83
  -8   3   7   34.66   15.61
   8  -3  -7   59.05   18.79
   8  -3  -7   59.24   22.57
   8  -3  -7   90.13   26.21
  -8   3   6   16.71   15.28
  -8   3   6   21.72   18.66
  -8   3   6    9.23   14.11
   8  -3  -6   14.50   13.46
   8  -3  -6    8.78   18.34
   8  -3  -6   19.57   19.90
  -8   3   5    3.25   14.11
  -8   3   5   16.13   18.40
   8  -3  -5   -0.07   12.88
   8  -3  -5   -4.36   17.43
   8  -3  -5    4.29   18.34
  -8   3   4    3.19   13.66
  -8   3   4   10.21   16.71
   8  -3  -4   -2.28   11.97
   8  -3  -4   -2.21   17.30
   8  -3  -4   10.14   19.77
  -8   3   3   28.42   16.78
  -8   3   3   63.34   21.13
   8  -3  -3   30.30   14.37
   8  -3  -3   39.02   21.20
   8  -3  -3   49.62   23.74
  -8   3   2   11.84   15.02
  -8   3   2   12.75   15.41
   8  -3  -2   29.65   14.76
   8  -3  -2   21.00   21.00
   8  -3  -2   -7.02   17.04
  -8   3   1  -10.86   14.89
  -8   3   1    0.98   15.74
   8  -3  -1    8.45   13.53
   8  -3  -1  -15.80   18.92
   8  -3  -1   -1.82   17.23
  -8   3   0    6.83   14.37
  -8   3   0   -5.72   15.09
   8  -3   0    1.69   13.46
   8  -3   0    8.26   13.79
   8  -3   0   -9.62   19.90
   8  -3   0  -19.05   15.54
  -8   3  -1   16.45   16.97
  -8   3  -1   21.65   16.84
   8  -3   1   10.21   14.44
   8  -3   1    3.19   13.46
   8  -3   1    6.96   22.30
   8  -3   1    7.48   16.65
  -8   3  -2   44.41   21.52
  -8   3  -2   31.02   17.69
   8  -3   2   65.35   20.03
   8  -3   2   44.94   18.27
   8  -3   2   15.28   22.24
   8  -3   2   23.74   19.05
  -8   3  -3   -0.65   16.52
  -8   3  -3   -9.43   15.67
   8  -3   3    5.85   15.54
   8  -3   3   -9.62   15.93
   8  -3   3  -61.06   24.39
   8  -3   3   -2.41   20.94
  -8   3  -4   43.50   20.09
   8  -3   4   22.83   17.04
   8  -3   4   30.43   18.73
   8  -3   4   -9.82   21.78
   8  -3   4   21.91   20.03
  -8   3  -5   29.26   19.90
   8  -3   5   12.68   16.78
   8  -3   5   25.10   18.66
   8  -3   5   15.93   19.51
  -8   2  10   35.96   19.44
  -8   2  10   48.12   23.22
  -8   2  10   18.34   17.30
   8  -2 -10   43.96   21.65
   8  -2 -10   64.90   23.28
  -8   2   9   49.94   19.12
  -8   2   9   56.06   23.80
  -8   2   9   19.12   15.48
   8  -2  -9   44.94   20.16
   8  -2  -9   42.72   22.37
   8  -2  -9   60.74   21.98
  -8   2   8    7.15   15.61
  -8   2   8   32.12   19.70
  -8   2   8   20.94   15.02
   8  -2  -8   32.71   20.42
   8  -2  -8   15.02   19.44
  -8   2   7   89.55   21.46
  -8   2   7  123.56   25.10
  -8   2   7   61.97   18.92
   8  -2  -7   94.03   22.70
   8  -2  -7  109.18   26.08
   8  -2  -7  152.30   28.35
  -8   2   6  306.48   31.34
  -8   2   6  317.80   34.86
  -8   2   6  225.98   27.44
   8  -2  -6  257.12   28.48
   8  -2  -6  323.26   35.77
   8  -2  -6  392.71   37.33
  -8   2   5  160.17   26.21
  -8   2   5  159.91   27.70
  -8   2   5  134.09   22.89
   8  -2  -5  151.06   23.35
   8  -2  -5  151.78   28.87
   8  -2  -5  213.36   31.34
  -8   2   4    8.97   13.85
  -8   2   4   20.94   16.78
  -8   2   4   12.10   13.27
   8  -2  -4   25.82   14.44
   8  -2  -4   13.72   18.21
   8  -2  -4   31.93   21.13
  -8   2   3   16.71   14.83
  -8   2   3    0.91   15.15
   8  -2  -3   12.75   12.94
   8  -2  -3  -24.39   18.40
   8  -2  -3    6.96   19.31
  -8   2   2  136.56   23.09
  -8   2   2  178.11   27.64
   8  -2  -2  195.28   27.90
   8  -2  -2  172.00   32.71
   8  -2  -2  208.22   33.56
  -8   2   1  110.42   23.22
  -8   2   1  119.07   22.63
   8  -2  -1  168.23   26.34
   8  -2  -1   99.69   26.99
   8  -2  -1  124.66   27.83
  -8   2   0    6.50   14.83
  -8   2   0   10.86   15.02
   8  -2   0   10.21   14.76
   8  -2   0   -0.46   16.84
   8  -2   0  -10.73   20.74
   8  -2   0   -3.51   16.78
  -8   2  -1   66.65   19.90
  -8   2  -1   63.86   19.77
   8  -2   1   45.59   17.36
   8  -2   1   64.90   17.17
   8  -2   1   40.71   23.15
   8  -2   1   54.23   21.46
  -8   2  -2  107.75   22.70
  -8   2  -2  135.85   23.80
   8  -2   2  107.04   21.98
   8  -2   2  118.35   20.87
   8  -2   2  126.16   30.69
   8  -2   2   81.22   21.00
  -8   2  -3   42.14   18.66
  -8   2  -3   40.58   17.82
   8  -2   3   58.27   19.25
   8  -2   3   59.31   18.47
   8  -2   3   40.97   24.71
   8  -2   3   52.15   19.57
  -8   2  -4   45.72   19.51
   8  -2   4   47.47   19.25
   8  -2   4   21.20   17.82
   8  -2   4   12.23   24.00
   8  -2   4   82.33   23.80
  -8   2  -5   56.32   21.00
   8  -2   5   42.33   18.34
   8  -2   5   47.60   21.39
   8  -2   5  -31.93   26.92
   8  -2   5   58.79   22.57
  -8   2  -6   29.46   19.51
   8  -2   6   28.87   19.38
   8  -2   6   26.99   19.25
   8  -2   6   16.19   19.96
   8  -1 -11    1.11   19.38
  -8   1  10    8.45   16.26
  -8   1  10   -9.23   17.95
  -8   1  10   10.53   16.78
   8  -1 -10  -15.02   14.83
   8  -1 -10    3.84   17.95
  -8   1   9   33.49   18.01
  -8   1   9   31.41   23.48
  -8   1   9   41.29   19.18
   8  -1  -9   59.83   23.87
  -8   1   8   36.29   17.23
  -8   1   8   46.17   20.55
  -8   1   8   46.69   18.27
   8  -1  -8   78.03   22.70
   8  -1  -8   61.26   20.55
  -8   1   7    4.94   14.57
  -8   1   7   -6.11   16.32
  -8   1   7   -0.85   12.68
   8  -1  -7    1.11   12.10
   8  -1  -7  -17.30   14.24
   8  -1  -7   26.92   18.27
  -8   1   6   75.95   19.05
  -8   1   6   78.16   21.39
  -8   1   6   46.37   17.30
   8  -1  -6   48.32   16.58
   8  -1  -6   80.70   23.87
   8  -1  -6  134.55   26.86
  -8   1   5   93.19   20.42
  -8   1   5   98.78   22.24
  -8   1   5   86.68   19.83
   8  -1  -5  126.87   22.50
   8  -1  -5  151.65   29.26
   8  -1  -5  139.23   27.12
  -8   1   4   60.15   17.75
  -8   1   4   77.71   20.87
  -8   1   4   53.65   15.67
   8  -1  -4   79.60   18.60
   8  -1  -4   45.91   24.58
   8  -1  -4   72.90   25.88
  -8   1   3    1.37   12.94
  -8   1   3    8.84   15.54
  -8   1   3    7.41   11.71
   8  -1  -3   -2.80   10.34
   8  -1  -3  -23.15   18.60
   8  -1  -3   -4.49   19.57
  -8   1   2   58.07   18.66
  -8   1   2   80.38   20.22
   8  -1  -2   71.47   18.34
   8  -1  -2   68.09   26.99
   8  -1  -2  115.10   27.44
  -8   1   1   15.80   14.37
  -8   1   1   21.59   15.87
   8  -1  -1   25.56   14.63
   8  -1  -1  -11.12   22.30
   8  -1  -1   56.64   22.44
  -8   1   0   48.32   17.49
  -8   1   0   67.37   19.05
   8  -1   0   73.29   20.03
   8  -1   0   72.31   26.47
   8  -1   0   97.87   25.10
  -8   1  -1  145.14   23.67
  -8   1  -1  148.59   23.28
   8  -1   1  185.92   26.40
   8  -1   1  149.24   20.55
   8  -1   1  133.83   32.97
   8  -1   1  190.99   29.33
  -8   1  -2    0.91   13.59
  -8   1  -2    5.27   13.66
   8  -1   2   22.11   16.45
   8  -1   2   37.33   14.37
   8  -1   2  -26.01   19.90
   8  -1   2   23.74   16.78
  -8   1  -3   -5.40   14.18
  -8   1  -3   12.49   23.15
   8  -1   3    9.10   14.83
   8  -1   3   22.70   13.79
   8  -1   3   17.82   21.33
  -8   1  -4   16.71   16.00
   8  -1   4    3.84   14.57
   8  -1   4   18.92   15.28
   8  -1   4   18.60   22.63
  -8   1  -5   25.75   17.23
   8  -1   5   35.83   17.43
   8  -1   5   37.39   17.82
   8  -1   5   10.53   22.57
  -8   1  -6    9.69   16.00
   8  -1   6   -0.33   15.41
   8  -1   6    5.85   19.96
   8  -1   6  -59.05   27.31
  -8   1  -7   18.27   17.10
   8  -1   7    3.38   16.13
   8  -1   7  -10.86   16.91
  -8   0  10   -1.89   15.41
  -8   0  10   15.28   20.61
  -8   0  10   -7.61   19.31
   8   0 -10   11.51   18.92
   8   0 -10   11.97   18.27
  -8   0   9   68.15   19.70
  -8   0   9   92.60   25.95
  -8   0   9   41.68   17.75
   8   0  -9   54.62   22.96
  -8   0   8   51.76   17.56
  -8   0   8   73.35   23.35
  -8   0   8   48.58   17.75
   8   0  -8   79.99   22.57
   8   0  -8  122.97   26.34
  -8   0   7   59.63   18.60
  -8   0   7   11.71   17.30
  -8   0   7   32.12   16.65
   8   0  -7   34.66   15.15
   8   0  -7   42.01   20.35
   8   0  -7   62.49   20.42
   8   0  -7   40.19   22.04
  -8   0   6   25.23   14.37
  -8   0   6   38.30   19.31
  -8   0   6   29.26   15.87
   8   0  -6   29.52   15.54
   8   0  -6   32.90   19.51
   8   0  -6   30.69   19.90
   8   0  -6   41.23   17.10
   8   0  -6   23.02   12.88
  -8   0   5  217.98   26.40
  -8   0   5  198.79   27.51
  -8   0   5  147.29   23.93
   8   0  -5  217.72   25.95
   8   0  -5  197.43   33.23
   8   0  -5  266.16   34.47
   8   0  -5  204.26   28.22
   8   0  -5  194.76   22.76
  -8   0   4   61.19   18.01
  -8   0   4   90.46   20.61
  -8   0   4   52.35   16.45
   8   0  -4   85.45   19.18
   8   0  -4   83.76   25.69
   8   0  -4  128.63   27.44
   8   0  -4   86.75   20.35
  -8   0   3   44.28   16.26
  -8   0   3   32.25   15.80
  -8   0   3   39.08   14.83
   8   0  -3   31.86   13.98
   8   0  -3   39.21   19.51
   8   0  -3   88.44   24.13
   8   0  -3   39.41   16.52
  -8   0   2   24.58   14.89
  -8   0   2   36.48   16.65
  -8   0   2   43.63   15.87
   8   0  -2   41.88   14.96
   8   0  -2   27.70   19.25
   8   0  -2   61.06   21.33
   8   0  -2   45.33   16.58
  -8   0   1   56.19   17.43
  -8   0   1   64.57   17.56
  -8   0   1   47.99   15.67
   8   0  -1   71.21   18.47
   8   0  -1   80.31   24.13
   8   0  -1   63.60   18.73
  -8   0   0   26.92   14.70
  -8   0   0   43.96   16.52
   8   0   0   28.35   15.22
   8   0   0   33.42   20.61
   8   0   0    1.82   13.20
  -8   0  -1   18.21   15.02
  -8   0  -1   19.64   15.09
   8   0   1   30.04   16.58
   8   0   1   61.91   23.15
  -8   0  -2   55.86   17.56
  -8   0  -2   61.58   16.84
   8   0   2   57.42   19.18
   8   0   2   70.82   16.06
   8   0   2   79.40   27.44
  -8   0  -3   96.83   21.46
   8   0   3  141.18   24.78
   8   0   3  118.29   20.81
   8   0   3   61.39   28.55
  -8   0  -4   27.44   16.84
   8   0   4   33.49   17.17
   8   0   4   57.62   16.78
   8   0   4   20.03   21.65
  -8   0  -5    9.10   15.67
   8   0   5   -4.94   14.18
   8   0   5   -2.60   13.46
   8   0   5   11.84   20.81
  -8   0  -6   38.69   18.79
   8   0   6   45.33   19.83
   8   0   6   44.35   18.40
   8   0   6   35.83   24.00
  -8   0  -7   32.06   19.44
   8   0   7   36.55   18.47
   8   0   7   26.40   21.59
   8   0   7   -0.91   29.46
  -8   0  -8    5.07   16.84
   8   0   8   -8.91   16.13
   8   0   8   -2.41   17.75
  -8  -1  10   59.24   19.57
  -8  -1  10   32.32   22.83
  -8  -1  10   48.25   23.87
   8   1 -10   73.94   24.19
   8   1 -10   93.71   23.93
  -8  -1   9   14.76   15.41
  -8  -1   9    3.84   18.66
  -8  -1   9   26.99   20.61
   8   1  -9    4.94   17.30
   8   1  -9   -2.15   18.66
   8   1  -9   18.99   17.23
   8   1  -9   10.40   14.18
  -8  -1   8   22.63   15.22
  -8  -1   8   14.05   17.69
  -8  -1   8   11.32   14.57
   8   1  -8   30.17   20.09
   8   1  -8   18.66   16.91
   8   1  -8   26.21   14.11
  -8  -1   7  133.50   22.70
  -8  -1   7  166.93   27.64
  -8  -1   7   78.10   19.83
   8   1  -7  134.48   23.22
   8   1  -7  130.97   26.53
   8   1  -7  169.53   25.82
   8   1  -7  143.39   25.69
   8   1  -7  133.44   21.39
  -8  -1   6   48.84   16.84
  -8  -1   6   32.90   19.12
  -8  -1   6   18.34   14.63
   8   1  -6   21.65   13.40
   8   1  -6   21.98   17.82
   8   1  -6   20.55   17.75
   8   1  -6   32.77   16.45
   8   1  -6   23.54   13.72
  -8  -1   5   13.20   13.40
  -8  -1   5    8.65   15.22
  -8  -1   5    3.64   12.16
   8   1  -5   -0.46   10.53
   8   1  -5   -0.33   19.05
   8   1  -5    2.93   18.60
   8   1  -5   -1.24   12.03
   8   1  -5    5.33   11.38
  -8  -1   4  100.01   19.70
  -8  -1   4  107.95   22.70
  -8  -1   4   90.13   19.57
   8   1  -4   77.25   18.40
   8   1  -4  100.14   23.61
   8   1  -4  139.03   27.90
   8   1  -4  122.51   22.76
  -8  -1   3   51.05   16.13
  -8  -1   3   75.69   19.12
  -8  -1   3   44.87   14.76
   8   1  -3   60.93   16.26
   8   1  -3   79.73   22.70
   8   1  -3   68.41   18.66
  -8  -1   2   69.19   17.82
  -8  -1   2   79.79   18.92
  -8  -1   2   51.37   15.67
   8   1  -2   99.69   20.81
   8   1  -2   78.30   23.87
   8   1  -2   97.15   19.90
  -8  -1   1   10.40   12.75
  -8  -1   1   -0.78   12.29
  -8  -1   1  -14.96    8.97
   8   1  -1    6.37   12.62
   8   1  -1   61.19   23.48
   8   1  -1   -3.84   11.90
  -8  -1   0   94.36   19.96
  -8  -1   0   80.70   18.01
  -8  -1   0   71.92   17.36
  -8  -1   0   67.24   16.84
   8   1   0  105.15   21.39
   8   1   0  116.73   28.03
   8   1   0  100.99   21.00
  -8  -1  -1   69.84   17.49
  -8  -1  -1  113.93   19.70
  -8  -1  -1  106.91   18.66
  -8  -1  -1   72.25   17.23
   8   1   1   98.84   20.55
   8   1   1   94.94   26.73
   8   1   1   89.22   20.16
  -8  -1  -2   35.96   15.80
  -8  -1  -2   72.05   20.87
  -8  -1  -2   41.88   15.22
   8   1   2   43.31   17.43
   8   1   2   58.01   15.80
   8   1   2   30.11   19.64
   8   1   2   58.27   18.92
  -8  -1  -3    7.28   14.24
   8   1   3   11.32   14.18
   8   1   3    1.69   11.38
   8   1   3   44.09   22.63
   8   1   3   17.36   13.98
  -8  -1  -4   82.20   20.16
   8   1   4   57.29   19.83
   8   1   4   57.16   18.08
   8   1   4   63.66   27.38
  -8  -1  -5   56.45   18.73
   8   1   5   50.92   18.60
   8   1   5   56.97   17.30
   8   1   5   54.75   24.26
  -8  -1  -6   -6.76   13.33
   8   1   6   -0.07   13.85
   8   1   6   -5.53   14.05
   8   1   6   12.68   21.46
  -8  -1  -7   27.05   17.23
   8   1   7   23.28   17.04
   8   1   7   16.39   18.92
   8   1   7   32.32   22.70
  -8  -1  -8    4.81   16.26
   8   1   8   32.51   18.40
   8   1   8   -4.16   19.96
   8   1   8   18.47   26.53
  -8  -1  -9    3.84   16.65
   8   1   9    6.96   17.43
   8   1   9  -20.42   18.21
  -8  -2  10    8.91   14.76
  -8  -2  10   43.89   22.89
  -8  -2  10   37.98   22.44
   8   2 -10   24.13   20.22
   8   2 -10   28.81   20.09
   8   2 -10   29.91   19.12
   8   2 -10   24.06   15.54
  -8  -2   9   15.09   14.05
  -8  -2   9   23.41   22.04
  -8  -2   9   -0.46   16.91
   8   2  -9   32.32   19.51
   8   2  -9   11.97   18.01
   8   2  -9   -0.91   14.83
   8   2  -9   14.24   13.79
  -8  -2   8    3.77   12.81
  -8  -2   8   -1.82   18.40
  -8  -2   8    9.36   17.88
   8   2  -8   28.42   19.18
   8   2  -8   -7.87   13.46
   8   2  -8    3.06   12.75
  -8  -2   7  109.90   20.68
  -8  -2   7   89.81   23.48
  -8  -2   7   70.10   22.24
   8   2  -7   80.05   19.18
   8   2  -7  110.81   24.32
   8   2  -7  115.75   22.96
   8   2  -7   84.21   18.73
  -8  -2   6   98.52   19.25
  -8  -2   6   85.90   22.63
  -8  -2   6   74.07   20.09
   8   2  -6   85.97   20.22
   8   2  -6   74.72   21.98
   8   2  -6   87.40   21.72
   8   2  -6  102.88   22.24
   8   2  -6   86.88   18.66
  -8  -2   5    0.85   12.23
  -8  -2   5   -0.46   14.44
  -8  -2   5    2.08   12.29
   8   2  -5    2.41   10.27
   8   2  -5    8.78   17.88
   8   2  -5   28.81   19.96
   8   2  -5    0.52   12.94
   8   2  -5   -5.59    9.69
  -8  -2   4  100.14   18.79
  -8  -2   4  133.76   23.02
  -8  -2   4   75.04   19.05
   8   2  -4  125.12   21.26
   8   2  -4  119.26   24.13
   8   2  -4   98.52   21.00
  -8  -2   3  193.72   23.74
  -8  -2   3  191.06   25.30
  -8  -2   3  139.55   22.11
   8   2  -3  187.74   23.41
   8   2  -3  151.00   25.88
   8   2  -3  190.08   26.47
  -8  -2   2   88.31   18.34
  -8  -2   2  111.65   20.09
  -8  -2   2   68.80   16.97
   8   2  -2  110.55   21.20
   8   2  -2  141.37   28.16
   8   2  -2  133.31   22.50
  -8  -2   1   35.25   14.37
  -8  -2   1   40.84   16.26
  -8  -2   1   35.38   14.44
  -8  -2   1   12.03   12.94
   8   2  -1   36.68   15.22
   8   2  -1  110.68   24.78
   8   2  -1   29.52   14.89
  -8  -2   0   -2.28   11.45
  -8  -2   0    6.89   14.05
  -8  -2   0    9.04   11.97
  -8  -2   0    1.11   11.32
   8   2   0    4.55   12.55
   8   2   0   53.26   20.87
   8   2   0    4.23   12.62
  -8  -2  -1   65.22   16.84
  -8  -2  -1  106.32   20.16
  -8  -2  -1  100.67   18.21
  -8  -2  -1   58.40   15.87
   8   2   1  114.71   22.44
   8   2   1  146.32   27.18
   8   2   1   67.57   17.95
  -8  -2  -2    7.28   13.20
  -8  -2  -2   14.24   14.63
  -8  -2  -2   13.07   12.81
   8   2   2   10.01   13.14
   8   2   2   84.02   24.84
   8   2   2   16.78   14.31
  -8  -2  -3    8.97   13.01
  -8  -2  -3   18.40   15.74
  -8  -2  -3   14.83   12.81
   8   2   3   13.01   14.11
   8   2   3   11.64   11.19
   8   2   3   33.62   18.47
   8   2   3    7.87   14.18
  -8  -2  -4   11.51   13.59
  -8  -2  -4   48.51   18.66
   8   2   4   26.66   16.71
   8   2   4    7.80   13.14
   8   2   4  104.44   23.80
   8   2   4   23.09   16.45
  -8  -2  -5   67.11   19.38
  -8  -2  -5   71.99   21.07
   8   2   5   84.80   20.68
   8   2   5   62.23   18.99
   8   2   5   51.63   24.39
   8   2   5   77.84   21.07
  -8  -2  -6   18.21   15.02
  -8  -2  -6   -9.75   17.10
   8   2   6   16.26   16.45
   8   2   6    6.37   13.85
   8   2   6   15.22   16.52
  -8  -2  -7   21.13   16.71
  -8  -2  -7   16.52   20.42
   8   2   7   12.62   16.06
   8   2   7   11.25   15.87
   8   2   7   11.25   16.65
  -8  -2  -8   49.03   20.42
  -8  -2  -8   41.68   24.00
   8   2   8   33.69   19.96
   8   2   8   18.47   21.00
   8   2   8   55.99   22.70
  -8  -2  -9    5.40   17.04
  -8  -2  -9   29.13   38.95
   8   2   9    9.69   18.53
   8   2   9   -5.66   18.99
   8   2   9   19.18   19.77
  -8  -2 -10    3.90   16.91
   8   2  10   18.86   18.08
   8   2  10   -0.20   21.26
  -8  -3   9   20.16   24.19
  -8  -3   9   23.67   20.48
   8   3  -9   24.71   19.12
   8   3  -9   38.30   20.48
   8   3  -9   44.15   20.03
   8   3  -9   33.82   16.97
  -8  -3   8   18.14   13.79
  -8  -3   8   26.86   20.22
  -8  -3   8   31.93   19.77
   8   3  -8   12.55   19.25
   8   3  -8   25.10   16.97
   8   3  -8   45.26   17.43
  -8  -3   7   15.02   12.94
  -8  -3   7    1.89   16.84
  -8  -3   7   -0.72   14.96
   8   3  -7    1.63   11.84
   8   3  -7    1.69   15.67
   8   3  -7   -6.24   13.59
   8   3  -7   -1.11   12.03
  -8  -3   6   80.96   17.69
  -8  -3   6   47.67   19.83
  -8  -3   6   59.57   20.16
   8   3  -6   47.86   16.32
   8   3  -6   65.94   20.48
   8   3  -6   58.40   25.04
   8   3  -6   54.17   18.47
   8   3  -6   52.74   16.45
  -8  -3   5   60.93   16.52
  -8  -3   5   87.01   21.52
  -8  -3   5   76.41   19.96
   8   3  -5   48.12   15.61
   8   3  -5   84.28   21.78
   8   3  -5   97.48   21.26
   8   3  -5   71.08   18.40
  -8  -3   4   37.46   13.59
  -8  -3   4   34.66   17.17
  -8  -3   4   35.31   15.87
   8   3  -4   54.75   16.78
   8   3  -4   64.90   21.65
   8   3  -4   22.11   14.24
   8   3  -4   40.32   15.67
  -8  -3   3   42.66   14.37
  -8  -3   3   32.32   16.45
  -8  -3   3   48.45   16.91
   8   3  -3   38.04   14.44
   8   3  -3   20.94   16.39
   8   3  -3   67.70   18.86
  -8  -3   2   17.49   12.42
  -8  -3   2   38.56   14.83
  -8  -3   2   30.04   15.02
   8   3  -2   41.03   15.67
   8   3  -2   50.33   17.10
  -8  -3   1  154.96   21.07
  -8  -3   1  175.71   24.52
  -8  -3   1  187.09   23.74
  -8  -3   1  116.27   20.74
   8   3  -1  182.93   24.52
   8   3  -1  150.80   26.66
   8   3  -1  190.08   26.14
  -8  -3   0   68.48   15.93
  -8  -3   0   73.22   18.53
  -8  -3   0   74.20   16.06
  -8  -3   0   56.32   16.19
   8   3   0   72.96   17.43
   8   3   0   98.91   23.02
   8   3   0   91.69   19.90
  -8  -3  -1   10.79   12.23
  -8  -3  -1   -2.67   13.92
  -8  -3  -1    2.99   10.92
  -8  -3  -1   -3.25   10.79
   8   3   1    4.75   11.51
   8   3   1   50.14   19.05
   8   3   1    3.97   12.88
  -8  -3  -2   18.73   12.94
  -8  -3  -2   35.51   16.78
  -8  -3  -2    8.84   12.23
   8   3   2   24.00   14.70
   8   3   2   14.44   14.05
  -8  -3  -3    3.71   11.90
  -8  -3  -3    4.03   15.22
  -8  -3  -3  -14.18   10.14
   8   3   3   -5.01   11.45
   8   3   3   49.88   20.29
   8   3   3   10.01   13.40
  -8  -3  -4   22.57   14.63
  -8  -3  -4   19.44   17.04
  -8  -3  -4    5.53   11.77
   8   3   4   25.36   16.19
   8   3   4   22.96   12.75
   8   3   4   44.22   17.23
   8   3   4   22.24   15.02
  -8  -3  -5   44.28   16.26
  -8  -3  -5   61.13   20.42
  -8  -3  -5   42.98   14.83
   8   3   5   82.00   21.13
   8   3   5   34.79   15.93
   8   3   5   41.81   20.55
   8   3   5   51.89   18.73
  -8  -3  -6   18.08   15.41
  -8  -3  -6   15.61   19.38
   8   3   6    7.22   15.15
   8   3   6   10.92   13.98
   8   3   6   26.34   17.23
   8   3   6    1.50   13.85
  -8  -3  -7  -18.34   12.75
  -8  -3  -7   10.86   19.25
   8   3   7   -0.26   14.76
   8   3   7   -5.01   12.75
   8   3   7   17.43   16.78
   8   3   7    4.49   14.57
  -8  -3  -8  -12.10   13.40
  -8  -3  -8   -6.24   19.44
   8   3   8   15.54   16.19
   8   3   8   -3.25   15.80
   8   3   8   15.41   16.58
  -8  -3  -9  -13.85   14.18
  -8  -3  -9   27.83   22.50
   8   3   9    6.37   17.10
   8   3   9   20.81   22.04
   8   3   9   58.59   25.04
  -8  -3 -10   -1.50   17.10
  -8  -3 -10   17.69   24.52
   8   3  10    6.63   18.86
   8   3  10   -6.96   18.47
   8   3  10    8.32   18.53
  -8  -4   9   24.00   21.33
   8   4  -9   47.73   22.44
   8   4  -9   27.57   19.77
   8   4  -9   27.05   18.08
   8   4  -9   41.75   17.95
  -8  -4   8   30.50   19.25
   8   4  -8   52.15   21.98
   8   4  -8   46.69   17.95
   8   4  -8   41.81   16.78
  -8  -4   7    1.63   15.74
   8   4  -7   15.35   13.79
   8   4  -7   10.01   17.56
   8   4  -7   22.11   15.22
   8   4  -7   -0.46   12.23
  -8  -4   6    5.27   12.75
  -8  -4   6   -1.11   14.50
   8   4  -6   21.26   14.18
   8   4  -6    9.30   16.65
   8   4  -6    9.88   14.63
   8   4  -6    8.06   13.59
  -8  -4   5   33.95   13.72
  -8  -4   5   34.79   18.79
  -8  -4   5   34.86   17.17
   8   4  -5   45.85   16.00
   8   4  -5   46.82   19.38
   8   4  -5   54.23   17.36
   8   4  -5   52.93   16.97
  -8  -4   4   86.10   16.91
  -8  -4   4   93.45   21.39
  -8  -4   4   58.85   17.75
   8   4  -4  100.53   19.96
   8   4  -4  100.60   24.00
   8   4  -4   96.05   20.22
   8   4  -4  103.53   20.22
  -8  -4   3   19.83   12.68
  -8  -4   3    9.04   13.66
  -8  -4   3    7.15   12.88
   8   4  -3   13.20   11.84
   8   4  -3   22.24   17.30
   8   4  -3   11.38   12.23
  -8  -4   2   10.86   11.32
  -8  -4   2   -5.14   12.62
  -8  -4   2  -12.36   10.34
   8   4  -2    7.28   11.32
   8   4  -2   26.99   17.56
   8   4  -2   -9.82   10.73
  -8  -4   1   28.81   12.81
  -8  -4   1   51.37   19.25
  -8  -4   1   51.05   15.22
  -8  -4   1   28.68   14.05
   8   4  -1   41.75   15.35
   8   4  -1   81.48   22.50
   8   4  -1   46.82   14.96
  -8  -4   0    9.30   11.64
  -8  -4   0   40.32   17.43
  -8  -4   0   11.19   11.90
  -8  -4   0   22.63   14.18
   8   4   0   27.31   13.79
   8   4   0   34.27   14.44
  -8  -4  -1    8.71   11.58
  -8  -4  -1   19.18   15.67
  -8  -4  -1   19.64   13.27
   8   4   1   17.88   13.01
   8   4   1   -0.52   10.99
  -8  -4  -2   15.74   12.75
  -8  -4  -2   19.90   16.45
  -8  -4  -2    8.71   11.90
   8   4   2   22.24   13.66
   8   4   2   73.87   21.07
   8   4   2    7.15   12.42
  -8  -4  -3    5.72   11.97
  -8  -4  -3   12.36   16.71
  -8  -4  -3   14.57   12.36
   8   4   3    4.42   12.55
   8   4   3    6.89   13.53
  -8  -4  -4    2.54   12.29
  -8  -4  -4   18.27   16.97
  -8  -4  -4   14.70   12.42
   8   4   4    5.46   13.07
   8   4   4   -3.25   11.84
   8   4   4   16.45   15.28
   8   4   4    9.17   13.59
  -8  -4  -5   46.43   15.93
  -8  -4  -5   75.95   22.63
  -8  -4  -5   40.38   14.31
   8   4   5   45.52   18.34
   8   4   5   13.53   12.75
   8   4   5   28.35   17.36
   8   4   5   69.32   19.96
  -8  -4  -6  113.80   20.29
  -8  -4  -6  145.93   26.34
   8   4   6  135.13   24.19
   8   4   6   17.49   14.44
   8   4   6   82.98   23.41
   8   4   6  190.93   27.90
  -8  -4  -7    7.41   14.44
  -8  -4  -7   16.71   20.74
   8   4   7   43.05   18.14
   8   4   7   -3.77   11.64
   8   4   7   25.62   15.87
   8   4   7   33.42   17.62
  -8  -4  -8   40.58   17.10
  -8  -4  -8   63.14   25.36
   8   4   8   40.58   18.53
   8   4   8   -6.31   13.98
   8   4   8   30.56   17.95
   8   4   8   37.65   19.57
  -8  -4  -9   44.61   18.27
  -8  -4  -9   78.95   26.34
   8   4   9   44.02   21.00
   8   4   9   22.63   18.66
   8   4   9   52.02   21.46
   8   4   9   36.61   23.93
  -8  -4 -10   14.24   17.04
  -8  -4 -10    2.28   23.48
   8   4  10   -9.49   16.00
   8   4  10    5.92   16.91
   8   4  10   28.29   18.60
   8   4  11   -3.38   18.66
  -8  -5   8   54.49   22.57
   8   5  -8   77.12   23.48
   8   5  -8   64.25   22.89
   8   5  -8   42.53   18.73
   8   5  -8   41.81   17.43
  -8  -5   7   33.49   18.60
   8   5  -7    3.51   12.68
   8   5  -7   40.84   20.87
   8   5  -7   31.08   16.65
   8   5  -7    8.32   13.07
  -8  -5   6   -1.11   13.59
   8   5  -6    1.89   12.42
   8   5  -6    7.35   17.56
   8   5  -6   -7.09   12.88
   8   5  -6   12.55   13.79
  -8  -5   5   39.21   17.23
   8   5  -5   35.70   15.02
   8   5  -5   28.74   18.60
   8   5  -5   54.17   17.56
   8   5  -5   28.68   15.22
  -8  -5   4   50.46   17.49
   8   5  -4   54.82   16.78
   8   5  -4   22.24   17.10
   8   5  -4   44.87   16.45
   8   5  -4   45.39   17.04
  -8  -5   3   10.27   12.49
   8   5  -3    8.00   10.99
   8   5  -3   11.25   15.22
   8   5  -3   13.72   12.88
  -8  -5   2    6.70   10.01
  -8  -5   2   -1.04   10.66
   8   5  -2    6.18   11.12
   8   5  -2    8.26   15.02
   8   5  -2    9.69   13.14
  -8  -5   1    4.42    9.69
  -8  -5   1   26.53   18.60
  -8  -5   1    4.03   11.71
  -8  -5   1   -9.04   10.27
   8   5  -1    4.42   10.21
   8   5  -1    1.24   12.55
   8   5  -1   23.74   13.66
  -8  -5   0   58.14   14.24
  -8  -5   0   66.13   21.20
  -8  -5   0   42.40   15.54
  -8  -5   0   35.51   13.85
   8   5   0   45.13   14.63
   8   5   0   66.26   19.44
   8   5   0   62.17   16.78
  -8  -5  -1   15.22   10.66
  -8  -5  -1   26.86   17.69
  -8  -5  -1   26.86   13.92
   8   5   1   34.21   14.18
   8   5   1   79.21   19.64
   8   5   1   31.80   14.44
  -8  -5  -2   27.70   12.49
  -8  -5  -2   32.64   18.53
  -8  -5  -2   10.53   12.36
   8   5   2   14.63   12.42
   8   5   2   53.84   17.56
   8   5   2   35.70   14.76
  -8  -5  -3   49.88   14.24
  -8  -5  -3   36.68   19.18
  -8  -5  -3   32.71   14.57
   8   5   3   26.08   13.85
   8   5   3   52.93   17.62
   8   5   3   38.04   15.61
  -8  -5  -4   40.51   14.37
  -8  -5  -4   41.94   20.09
  -8  -5  -4   32.84   13.79
   8   5   4   41.36   17.10
   8   5   4    9.69   14.24
   8   5   4   39.67   16.78
  -8  -5  -5    2.60   12.36
  -8  -5  -5    5.14   17.88
  -8  -5  -5    6.70   11.25
   8   5   5    8.19   14.37
   8   5   5    3.90   10.08
   8   5   5   17.36   16.32
   8   5   5  -20.81   11.32
  -8  -5  -6   48.38   15.74
  -8  -5  -6   51.37   21.85
   8   5   6   57.42   19.51
   8   5   6   15.22   13.01
   8   5   6   43.50   18.34
   8   5   6   35.83   16.78
  -8  -5  -7   25.62   14.83
  -8  -5  -7   23.93   21.46
   8   5   7   17.75   17.10
   8   5   7   -0.59   11.25
   8   5   7   19.44   16.52
   8   5   7   17.95   16.32
  -8  -5  -8   -0.85   13.33
  -8  -5  -8   11.38   21.33
   8   5   8    5.66   16.13
   8   5   8   -0.07   11.71
   8   5   8   28.42   17.49
   8   5   8  -12.88   14.18
  -8  -5  -9    8.19   15.48
  -8  -5  -9   12.49   22.17
   8   5   9    0.20   15.54
   8   5   9  -10.86   14.31
   8   5   9   15.35   17.17
   8   5   9  -12.03   15.02
  -8  -5 -10   30.56   17.82
  -8  -5 -10   49.23   25.75
   8   5  10   35.18   20.68
   8   5  10   38.24   19.12
   8   5  10   42.98   20.48
   8   5  10   28.16   18.27
  -8  -5 -11    7.35   17.30
  -8  -5 -11   33.36   27.31
   8   5  11   32.71   20.03
   8   5  11   15.22   17.30
   8   5  11   40.32   20.16
  -8  -6   7  103.59   25.36
   8   6  -7  122.12   26.08
   8   6  -7  111.33   22.70
   8   6  -7   96.18   23.02
  -8  -6   6   54.69   22.24
   8   6  -6   36.22   15.74
   8   6  -6   46.69   22.17
   8   6  -6   51.11   17.69
   8   6  -6   46.63   18.01
  -8  -6   5    6.24   15.87
   8   6  -5   13.98   12.88
   8   6  -5   -7.80   14.83
   8   6  -5    4.55   13.14
   8   6  -5   -0.20   13.46
  -8  -6   4   60.09   18.79
   8   6  -4   68.61   17.10
   8   6  -4   37.65   18.01
   8   6  -4   85.84   18.73
   8   6  -4   71.34   19.18
  -8  -6   3  127.13   23.28
   8   6  -3  115.43   20.48
   8   6  -3   55.27   18.92
   8   6  -3  160.10   23.80
   8   6  -3  129.86   23.15
  -8  -6   2   14.57   14.24
   8   6  -2   27.96   13.53
   8   6  -2   23.93   16.58
   8   6  -2   28.29   14.37
  -8  -6   1   28.29   19.83
  -8  -6   1   10.08   12.75
   8   6  -1   10.27   11.51
   8   6  -1    5.07   13.66
   8   6  -1    0.59   11.58
  -8  -6   0   95.98   23.93
  -8  -6   0   77.45   18.27
   8   6   0   79.34   17.30
   8   6   0   22.11   15.15
   8   6   0   75.76   17.23
  -8  -6  -1  133.18   26.40
  -8  -6  -1   98.00   19.38
   8   6   1   95.53   18.60
   8   6   1   40.71   16.78
   8   6   1  127.00   21.59
  -8  -6  -2    3.84   16.84
  -8  -6  -2    3.77   10.99
   8   6   2   -0.78   10.60
   8   6   2   13.79   13.98
   8   6   2   10.01   12.49
  -8  -6  -3    5.01   10.60
  -8  -6  -3    2.34   17.75
  -8  -6  -3   -2.80    9.95
   8   6   3    8.78   12.55
   8   6   3    1.69   12.36
   8   6   3    7.67   11.97
  -8  -6  -4    6.83   11.05
  -8  -6  -4    1.11   17.43
  -8  -6  -4   15.74   12.23
   8   6   4   -4.49   12.42
   8   6   4   10.27   13.33
   8   6   4    6.11   13.07
  -8  -6  -5   -2.28   11.45
  -8  -6  -5    7.09   18.66
  -8  -6  -5   -2.28   17.43
   8   6   5   14.05   15.15
   8   6   5   12.10   14.37
   8   6   5   -1.37   12.94
  -8  -6  -6  -11.25   11.32
  -8  -6  -6    4.29   19.31
   8   6   6    3.51   14.11
   8   6   6   18.08   16.26
   8   6   6   19.38   15.22
  -8  -6  -7   43.44   15.28
  -8  -6  -7   66.78   25.10
   8   6   7   65.09   19.83
   8   6   7   39.60   17.88
   8   6   7   53.00   18.99
  -8  -6  -8   11.51   14.37
  -8  -6  -8   13.98   21.33
   8   6   8   42.66   20.22
   8   6   8   34.60   19.25
   8   6   8   24.65   17.17
  -8  -6  -9   25.49   16.06
  -8  -6  -9  -12.75   20.35
   8   6   9   -4.55   15.67
   8   6   9   -2.67   15.61
   8   6   9    2.73   15.74
  -8  -6 -10   -1.76   14.96
  -8  -6 -10   23.48   25.04
   8   6  10  -13.92   15.54
   8   6  10    3.25   17.88
   8   6  10   -7.41   16.26
  -8  -6 -11   35.90   18.14
  -8  -6 -11   37.52   26.53
   8   6  11   36.74   21.20
   8   6  11    8.32   19.12
   8   6  11   18.27   18.92
  -8  -7   6  115.04   27.77
   8   7  -6   82.85   20.94
   8   7  -6   75.24   23.15
   8   7  -6  102.42   21.00
   8   7  -6  126.74   26.21
  -8  -7   5   33.36   19.38
   8   7  -5   38.37   15.93
   8   7  -5   26.73   19.57
   8   7  -5   34.01   16.26
   8   7  -5   34.34   17.56
  -8  -7   4   15.41   17.49
   8   7  -4    5.53   11.71
   8   7  -4  -10.08   14.63
   8   7  -4    3.64   12.42
   8   7  -4   -7.54   11.71
  -8  -7   3  177.72   29.07
   8   7  -3  246.59   25.36
   8   7  -3   41.23   17.75
   8   7  -3  210.24   25.82
   8   7  -3  243.73   29.07
  -8  -7   2   13.59   15.41
   8   7  -2   10.40   12.16
   8   7  -2    2.54   12.68
   8   7  -2   22.44   13.85
  -8  -7   1   10.53   12.55
   8   7  -1    1.37   10.60
   8   7  -1    3.38   13.72
   8   7  -1    4.16   11.58
  -8  -7   0   32.97   20.68
  -8  -7   0   32.06   14.96
   8   7   0   32.77   13.79
   8   7   0    7.02   13.72
   8   7   0   22.44   13.20
  -8  -7  -1  245.16   32.64
  -8  -7  -1  149.63   22.83
   8   7   1  188.13   22.83
   8   7   1   54.17   17.82
   8   7   1  217.20   24.91
  -8  -7  -2  122.84   25.43
  -8  -7  -2   74.33   17.43
   8   7   2   88.63   18.47
   8   7   2   41.42   17.23
   8   7   2   85.45   18.92
  -8  -7  -3    8.39   17.69
  -8  -7  -3    9.30   12.16
   8   7   3    2.21   12.36
   8   7   3   -1.24   13.27
   8   7   3   -1.56   10.92
  -8  -7  -4   27.83   20.16
  -8  -7  -4   16.71   12.88
   8   7   4   -0.65   13.46
   8   7   4   16.45   16.06
   8   7   4    4.23   12.36
  -8  -7  -5   21.72   19.96
   8   7   5   24.00   15.74
   8   7   5    1.17   14.89
   8   7   5   14.70   14.44
  -8  -7  -6   26.92   20.48
   8   7   6    7.54   14.76
   8   7   6    2.41   15.22
   8   7   6   10.21   13.79
  -8  -7  -7   44.35   22.96
   8   7   7   37.00   17.49
   8   7   7    9.10   15.93
   8   7   7   21.78   16.00
  -8  -7  -8   80.77   26.08
   8   7   8   51.24   20.09
   8   7   8   63.86   21.98
   8   7   8   68.09   20.68
  -8  -7  -9   32.45   24.26
   8   7   9   26.66   18.66
   8   7   9   40.77   21.78
   8   7   9   19.70   17.56
  -8  -7 -10  -14.63   21.65
   8   7  10   11.51   17.95
   8   7  10   16.00   19.18
   8   7  10   -9.04   15.09
  -8  -7 -11   -5.79   24.45
   8   7  11  -18.60   17.17
   8   7  11    5.20   18.01
   8   7  11  -12.03   15.22
  -8  -8   5   22.30   18.60
   8   8  -5   -0.46   17.10
   8   8  -5   52.87   17.17
   8   8  -5   29.78   17.95
  -8  -8   4  -16.91   15.93
   8   8  -4   18.66   18.53
   8   8  -4   10.60   13.27
   8   8  -4    6.37   15.09
  -8  -8   3  149.70   27.05
   8   8  -3   30.63   17.23
   8   8  -3  124.86   20.68
   8   8  -3  108.92   23.02
  -8  -8   2  141.37   26.27
   8   8  -2   24.71   16.39
   8   8  -2  123.36   20.22
   8   8  -2  107.04   23.41
  -8  -8   1    6.11   15.35
   8   8  -1    2.21   11.19
   8   8  -1    4.42   13.53
   8   8  -1   17.49   13.14
  -8  -8   0    0.78   19.44
  -8  -8   0   20.22   16.06
   8   8   0   19.44   12.81
   8   8   0  -10.73   11.90
   8   8   0    7.41   11.84
  -8  -8  -1   71.40   24.00
  -8  -8  -1   64.12   18.53
   8   8   1   46.63   14.83
   8   8   1   19.31   14.70
   8   8   1   62.30   15.74
  -8  -8  -2   76.93   23.93
  -8  -8  -2   64.12   18.73
   8   8   2   60.28   16.39
   8   8   2   39.34   17.36
   8   8   2   69.32   16.84
  -8  -8  -3   18.47   18.27
  -8  -8  -3   -1.76   12.42
   8   8   3   -1.56   11.32
   8   8   3   -7.61   13.40
   8   8   3    8.78   12.23
  -8  -8  -4   45.59   21.85
  -8  -8  -4   32.64   14.89
   8   8   4   58.92   17.23
   8   8   4   15.80   15.87
   8   8   4   27.70   13.79
  -8  -8  -5   23.80   21.59
   8   8   5   18.34   15.67
   8   8   5    9.82   15.15
   8   8   5   10.92   13.14
  -8  -8  -6   -6.05   20.16
   8   8   6   13.72   15.54
   8   8   6  -11.84   14.63
   8   8   6    8.00   13.72
  -8  -8  -7   -3.97   21.00
   8   8   7   12.81   15.80
   8   8   7   37.46   19.05
   8   8   7    7.09   14.50
  -8  -8  -8  116.47   29.07
   8   8   8  137.47   26.53
   8   8   8   68.48   22.30
   8   8   8   97.22   21.52
  -8  -8  -9   30.30   24.91
   8   8   9   61.19   22.30
   8   8   9   61.91   25.69
   8   8   9   30.89   18.14
  -8  -8 -10   -7.28   23.02
   8   8  10   18.21   19.18
   8   8  10   24.13   21.26
   8   8  10   -9.56   15.41
  -8  -8 -11   -2.08   25.69
   8   8  11    8.71   19.83
   8   8  11   14.63   20.42
   8   8  11   26.86   17.88
  -8  -9   4   23.87   20.74
   8   9  -4   -6.89   16.26
   8   9  -4   11.25   12.49
   8   9  -4   21.85   17.95
  -8  -9   3   22.50   19.31
   8   9  -3   -7.67   14.05
   8   9  -3   35.38   15.02
   8   9  -3   -0.52   14.57
  -8  -9   2   -1.11   17.62
   8   9  -2   24.26   17.17
   8   9  -2   15.15   12.88
   8   9  -2    2.08   14.31
  -8  -9   1    8.65   15.61
   8   9  -1   23.67   15.93
   8   9  -1   15.22   12.03
   8   9  -1    4.55   14.63
  -8  -9   0   -3.97   19.96
  -8  -9   0   -5.40   14.57
   8   9   0    0.20   13.46
   8   9   0    4.55   10.92
  -8  -9  -1  121.15   28.29
  -8  -9  -1   87.85   20.68
   8   9   1   36.48   17.10
   8   9   1   79.92   17.43
  -8  -9  -2   22.57   21.20
  -8  -9  -2    5.98   14.50
   8   9   2   14.89   15.15
   8   9   2    8.06   12.16
  -8  -9  -3   33.42   21.78
  -8  -9  -3   15.41   14.31
   8   9   3   -0.78   15.09
   8   9   3   11.97   12.29
  -8  -9  -4    6.18   19.70
   8   9   4   26.14   17.23
   8   9   4   24.78   18.40
   8   9   4   40.84   15.48
  -8  -9  -5   14.05   22.50
   8   9   5    5.79   14.50
   8   9   5   16.26   16.45
   8   9   5   10.21   12.29
  -8  -9  -6   32.06   22.24
   8   9   6   35.12   16.91
   8   9   6    8.19   17.69
   8   9   6   30.04   14.57
  -8  -9  -7    6.18   21.13
   8   9   7   -8.13   14.70
   8   9   7   -4.55   15.67
   8   9   7   18.60   14.18
  -8  -9  -8   61.97   26.47
   8   9   8   45.39   19.44
   8   9   8   56.06   23.67
   8   9   8   34.92   16.52
  -8  -9  -9  103.20   31.08
   8   9   9  108.47   24.58
   8   9   9   95.53   25.88
   8   9   9   82.98   21.33
  -8  -9 -10   45.39   26.47
   8   9  10   17.62   20.48
   8   9  10   20.81   19.83
   8   9  10   15.80   16.91
  -8 -10   2   -0.52   16.84
   8  10  -2   -2.67   13.79
   8  10  -2   11.25   12.10
   8  10  -2  -10.92   14.37
  -8 -10   1    4.68   16.45
   8  10  -1    3.77   14.83
   8  10  -1   -1.24   10.66
   8  10  -1   -2.02   14.05
  -8 -10   0   25.43   17.69
   8  10   0   21.59   17.30
   8  10   0   19.38   11.90
   8  10   0    4.42   15.35
  -8 -10  -1    0.39   22.57
  -8 -10  -1    6.37   15.09
   8  10   1   10.14   15.67
   8  10   1    8.19   11.25
  -8 -10  -2   52.48   24.65
  -8 -10  -2   38.17   17.75
   8  10   2   36.87   19.31
   8  10   2   42.27   14.50
  -8 -10  -3  103.85   27.05
  -8 -10  -3   84.02   20.16
   8  10   3   62.69   21.59
   8  10   3   82.20   17.30
  -8 -10  -4   49.62   24.06
   8  10   4   30.24   18.99
   8  10   4   29.72   13.59
  -8 -10  -5   23.48   22.24
   8  10   5    0.59   17.23
   8  10   5    3.97   12.81
  -8 -10  -6   70.17   25.82
   8  10   6    6.11   18.21
   8  10   6   30.30   15.02
  -8 -10  -7   50.07   25.49
   8  10   7   43.57   22.44
   8  10   7   35.12   16.32
  -8 -10  -8   -0.59   21.72
   8  10   8    2.28   19.12
   8  10   8   -7.54   12.94
  -8 -10  -9   15.74   23.87
   8  10   9   17.88   21.46
   8  10   9   30.43   21.00
   8  10   9   29.26   17.17
  -8 -10 -10  133.50   33.42
   8  10  10  146.58   29.13
   8  10  10  102.94   28.16
   8  10  10   80.83   22.17
  -8 -11   0   13.46   18.60
   8  11   0   -0.98   15.61
   8  11   0   22.76   18.34
  -8 -11  -1    5.53   24.52
  -8 -11  -1   16.13   18.08
   8  11   1   12.36   16.65
  -8 -11  -2    8.06   22.83
  -8 -11  -2    0.26   15.93
   8  11   2    6.50   16.39
  -8 -11  -3   17.56   23.87
   8  11   3   41.49   20.42
   8  11   3   22.44   12.68
  -8 -11  -4  108.60   29.72
   8  11   4  112.63   27.38
   8  11   4  110.68   18.73
  -8 -11  -5  133.70   31.15
   8  11   5   67.83   24.52
   8  11   5   79.27   17.69
  -8 -11  -6  -15.67   21.13
   8  11   6  -11.25   17.69
   8  11   6   -6.44   11.58
  -8 -11  -7   53.78   26.21
   8  11   7    2.15   19.25
   8  11   7   10.21   14.76
  -8 -11  -8   14.70   24.00
   8  11   8    7.35   20.35
   8  11   8   16.26   14.89
  -8 -11  -9   36.22   25.75
   8  11   9   26.79   21.39
   8  11   9   27.05   16.78
  -8 -12  -3   12.29   23.93
   8  12   3    0.46   18.21
  -8 -12  -4   61.13   28.42
   8  12   4   61.45   23.87
  -8 -12  -5   31.99   25.56
   8  12   5   13.79   21.52
  -8 -12  -6  -12.16   21.07
   8  12   6    8.97   20.35
   8  12   6   -2.54   12.29
  -9   4   4   39.67   19.83
  -9   4   4   21.07   20.87
   9  -4  -4    7.48   16.45
   9  -4  -4   16.65   22.30
  -9   4   3   35.90   20.16
  -9   4   3   26.60   21.20
   9  -4  -3    2.67   15.93
   9  -4  -3   49.49   26.01
   9  -4  -3   30.04   24.65
  -9   3   6   21.59   18.53
  -9   3   6   13.72   20.68
  -9   3   6   22.04   16.00
   9  -3  -6   40.38   18.86
   9  -3  -6   22.17   22.30
   9  -3  -6   11.64   24.71
  -9   3   5   -4.81   16.00
  -9   3   5   11.58   19.77
  -9   3   5  -10.79   12.49
   9  -3  -5    9.95   15.61
   9  -3  -5   -4.68   20.48
   9  -3  -5   16.19   24.00
  -9   3   4    9.36   17.23
  -9   3   4   19.64   19.44
   9  -3  -4   -5.14   14.18
   9  -3  -4    9.23   22.24
   9  -3  -4    2.67   23.28
  -9   3   3    3.71   16.52
  -9   3   3    7.93   19.90
   9  -3  -3    0.33   14.70
   9  -3  -3    8.13   22.70
   9  -3  -3   14.57   24.32
  -9   3   2   -4.94   16.91
  -9   3   2  -14.83   16.97
   9  -3  -2    3.25   14.76
   9  -3  -2   13.07   22.37
   9  -3  -2   12.03   24.39
  -9   3   1    9.10   16.52
  -9   3   1    1.04   18.53
   9  -3  -1   -5.33   14.37
   9  -3  -1   -3.38   24.00
   9  -3  -1    9.88   24.39
  -9   3   0   10.40   17.75
  -9   3   0   38.63   21.07
   9  -3   0   19.90   17.17
   9  -3   0  -13.33   23.74
   9  -3   0   18.27   24.06
  -9   3  -1   14.83   18.60
  -9   3  -1  -10.21   17.88
   9  -3   1   23.93   18.34
   9  -3   1   17.23   27.51
   9  -3   1    3.51   20.35
  -9   2   7   12.16   18.14
  -9   2   7    5.07   20.16
  -9   2   7   -4.94   12.49
   9  -2  -7   -3.84   13.46
   9  -2  -7   -0.52   20.16
   9  -2  -7    9.49   22.89
  -9   2   6    1.43   16.71
  -9   2   6   -0.65   18.73
  -9   2   6   11.90   15.54
   9  -2  -6    1.50   14.89
   9  -2  -6   21.91   21.98
   9  -2  -6   32.71   24.39
  -9   2   5   29.52   18.27
  -9   2   5   64.64   22.04
  -9   2   5   35.70   17.30
   9  -2  -5   66.46   21.52
   9  -2  -5   66.72   27.31
   9  -2  -5   86.03   30.11
  -9   2   4   28.29   19.05
  -9   2   4   18.79   20.48
  -9   2   4   22.24   16.58
   9  -2  -4   18.92   15.48
   9  -2  -4  -20.48   21.20
   9  -2  -4   28.48   26.47
  -9   2   3   -4.49   15.22
  -9   2   3    7.35   17.17
  -9   2   3    8.13   14.44
   9  -2  -3   14.70   15.09
   9  -2  -3  -27.70   22.70
   9  -2  -3   -1.76   26.60
  -9   2   2   84.86   22.04
  -9   2   2  122.58   25.56
   9  -2  -2   38.37   18.01
   9  -2  -2   80.57   31.60
   9  -2  -2   82.46   31.28
  -9   2   1   14.76   17.17
  -9   2   1   20.22   18.92
   9  -2  -1   20.74   15.87
   9  -2  -1  -34.47   26.21
   9  -2  -1   31.08   26.21
  -9   2   0    6.11   16.58
  -9   2   0   -4.10   17.49
   9  -2   0    0.59   16.00
   9  -2   0  -41.29   24.19
   9  -2   0   15.93   23.93
  -9   2  -1    2.93   16.65
   9  -2   1   16.97   17.17
   9  -2   1  -24.58   23.80
   9  -2   1   -4.29   20.87
  -9   2  -2   35.64   19.64
   9  -2   2   39.93   18.99
   9  -2   2    5.20   26.86
   9  -2   2   16.58   21.26
  -9   2  -3    7.28   18.40
   9  -2   3   18.01   18.40
   9  -2   3  -31.34   26.08
   9  -2   3   21.20   21.13
  -9   1   8   67.50   21.20
  -9   1   8   98.45   26.34
  -9   1   8   52.02   20.09
   9  -1  -8  102.62   24.97
   9  -1  -8   96.44   26.73
   9  -1  -8  116.14   29.65
  -9   1   7   35.70   19.25
  -9   1   7   44.09   22.63
  -9   1   7   45.52   17.69
   9  -1  -7   28.74   16.52
   9  -1  -7   56.64   26.27
   9  -1  -7   42.53   23.09
  -9   1   6   39.21   18.40
  -9   1   6   72.77   22.96
  -9   1   6   44.35   18.66
   9  -1  -6   64.51   20.35
   9  -1  -6   55.08   25.04
   9  -1  -6   67.83   26.92
  -9   1   5  178.76   28.22
  -9   1   5  223.37   33.10
  -9   1   5   97.87   21.98
   9  -1  -5  166.80   27.96
   9  -1  -5  153.40   33.10
   9  -1  -5  220.12   38.04
  -9   1   4   34.99   18.21
  -9   1   4   38.11   19.57
  -9   1   4   25.04   14.89
   9  -1  -4   39.34   17.36
   9  -1  -4   25.30   26.14
   9  -1  -4   68.80   29.85
  -9   1   3   22.24   16.26
  -9   1   3    7.09   17.56
  -9   1   3   -8.58   11.19
   9  -1  -3   17.75   15.09
   9  -1  -3   -0.98   24.71
   9  -1  -3   28.94   26.66
  -9   1   2  125.25   23.74
  -9   1   2  129.67   25.49
  -9   1   2   97.61   21.98
   9  -1  -2  110.42   23.09
   9  -1  -2  148.33   33.16
   9  -1  -2  185.79   35.70
  -9   1   1   71.40   20.35
  -9   1   1   69.84   22.37
   9  -1  -1  118.22   24.84
   9  -1  -1  100.99   29.78
   9  -1  -1  121.86   31.99
  -9   1   0    1.37   14.96
  -9   1   0   -4.36   15.54
   9  -1   0   21.52   16.52
   9  -1   0  -14.37   26.01
   9  -1   0   47.15   27.12
  -9   1  -1   20.16   17.49
   9  -1   1   13.53   16.32
   9  -1   1    2.86   29.33
   9  -1   1   95.72   31.02
  -9   1  -2   63.34   21.98
   9  -1   2   66.13   22.63
   9  -1   2   96.37   35.18
   9  -1   2   78.23   25.88
  -9   1  -3   13.27   17.56
   9  -1   3   21.33   17.75
   9  -1   3  -23.67   24.58
   9  -1   3   16.84   19.77
  -9   1  -4   -7.41   16.06
   9  -1   4    0.13   17.30
   9  -1   4  -14.96   26.86
   9  -1   4   -0.98   19.64
  -9   0   8   20.74   17.17
  -9   0   8  -15.22   18.27
  -9   0   8    0.46   14.89
   9   0  -8    2.08   15.80
   9   0  -8   10.79   21.72
  -9   0   7    5.40   15.48
  -9   0   7   13.92   21.07
  -9   0   7   -0.26   15.41
   9   0  -7   11.45   15.09
   9   0  -7    5.20   20.03
   9   0  -7    0.65   20.81
  -9   0   6   -3.84   14.50
  -9   0   6  -11.58   17.49
  -9   0   6   -1.43   13.59
   9   0  -6    5.27   14.05
   9   0  -6    3.77   21.39
   9   0  -6   11.12   22.83
  -9   0   5   30.76   16.78
  -9   0   5    3.64   18.27
  -9   0   5   23.02   15.87
   9   0  -5   28.29   16.39
   9   0  -5   16.06   25.17
   9   0  -5   61.78   30.11
  -9   0   4   55.93   19.64
  -9   0   4   84.08   23.41
  -9   0   4   45.00   17.82
   9   0  -4   40.45   17.10
   9   0  -4   74.78   26.21
   9   0  -4   90.91   29.33
  -9   0   3   32.71   18.14
  -9   0   3   33.56   19.70
  -9   0   3   28.16   15.35
   9   0  -3   39.34   15.74
   9   0  -3   24.45   19.96
   9   0  -3   38.11   26.08
  -9   0   2   27.12   16.78
  -9   0   2    9.56   16.13
  -9   0   2    0.39   13.66
   9   0  -2   -5.85   12.49
   9   0  -2    4.88   20.81
   9   0  -2    5.85   24.58
  -9   0   1   75.30   19.90
  -9   0   1   89.09   22.24
  -9   0   1   39.47   15.93
   9   0  -1   89.35   23.09
   9   0  -1  103.14   29.59
   9   0  -1  134.02   32.45
  -9   0   0   47.02   19.05
  -9   0   0   32.64   17.56
  -9   0   0   45.20   16.91
   9   0   0   19.38   16.32
   9   0   0   51.37   24.65
   9   0   0   35.70   23.15
  -9   0  -1   -0.20   15.15
   9   0   1    9.43   16.71
   9   0   1   26.60   24.26
  -9   0  -2    9.43   16.26
   9   0   2    5.33   15.80
   9   0   2   44.81   26.14
  -9   0  -3   52.61   20.48
   9   0   3   47.47   20.29
   9   0   3   72.18   34.86
  -9   0  -4   86.10   22.63
   9   0   4  113.61   25.88
   9   0   4  117.57   34.14
  -9   0  -5    4.88   16.71
   9   0   5   -5.40   16.26
   9   0   5    0.91   27.25
  -9  -1   8   10.66   15.61
  -9  -1   8    9.04   20.61
  -9  -1   8   -7.15   14.05
   9   1  -8  -14.44   12.55
   9   1  -8    4.75   18.53
  -9  -1   7    1.69   14.63
  -9  -1   7   14.24   19.90
  -9  -1   7   14.63   15.87
   9   1  -7   12.03   13.79
   9   1  -7   26.08   22.11
  -9  -1   6   31.34   16.91
  -9  -1   6   25.43   19.83
  -9  -1   6    9.17   14.83
   9   1  -6   14.31   14.18
   9   1  -6   51.96   25.49
   9   1  -6   35.18   23.74
  -9  -1   5   13.92   14.76
  -9  -1   5  -10.21   16.19
  -9  -1   5   -5.98   13.33
   9   1  -5   -1.89   13.33
   9   1  -5   -0.52   21.98
   9   1  -5   51.18   27.57
  -9  -1   4   46.43   17.17
  -9  -1   4   50.33   20.29
  -9  -1   4   31.15   15.54
   9   1  -4   61.65   19.38
   9   1  -4   82.26   25.95
   9   1  -4   82.72   27.64
   9   1  -4   77.90   26.08
  -9  -1   3   18.99   15.67
  -9  -1   3   27.96   17.23
  -9  -1   3   32.64   16.06
   9   1  -3   15.74   14.70
   9   1  -3   31.34   21.85
   9   1  -3   22.37   25.30
   9   1  -3   29.65   20.81
  -9  -1   2   53.26   18.14
  -9  -1   2   67.37   20.22
  -9  -1   2   35.77   16.26
   9   1  -2   59.18   18.21
   9   1  -2   48.12   21.78
   9   1  -2   39.02   23.02
  -9  -1   1   21.98   15.67
  -9  -1   1   16.71   15.28
  -9  -1   1    7.80   13.20
   9   1  -1    7.02   16.39
   9   1  -1   11.45   19.77
  -9  -1   0   -5.33   13.27
  -9  -1   0   16.32   14.44
   9   1   0   18.73   17.04
   9   1   0   -5.72   19.77
  -9  -1  -1   -0.98   15.35
  -9  -1  -1    3.38   14.37
   9   1   1    5.79   15.61
   9   1   1   53.00   24.78
  -9  -1  -2    8.00   15.87
  -9  -1  -2    8.97   14.70
   9   1   2   -0.85   15.15
   9   1   2    9.43   22.30
  -9  -1  -3    7.74   15.02
   9   1   3    6.18   17.10
   9   1   3   38.63   25.10
  -9  -1  -4   23.28   17.36
   9   1   4   22.70   17.95
   9   1   4   21.00   30.89
  -9  -1  -5   14.83   16.58
   9   1   5   40.06   20.29
   9   1   5   -2.08   26.01
  -9  -1  -6  -19.12   15.41
   9   1   6   -0.13   18.21
   9   1   6   14.31   19.31
   9   1   6   -4.10   25.17
   9   2  -8   18.34   20.55
  -9  -2   7   34.01   17.49
  -9  -2   7   40.12   22.17
  -9  -2   7   31.08   21.13
   9   2  -7   34.79   17.04
   9   2  -7   25.43   20.74
   9   2  -7   50.85   21.72
   9   2  -7   37.59   16.52
  -9  -2   6   72.96   20.03
  -9  -2   6   59.37   22.04
  -9  -2   6   44.02   18.21
   9   2  -6   56.32   19.44
   9   2  -6   55.14   25.30
   9   2  -6   83.30   27.64
   9   2  -6   53.91   19.96
   9   2  -6   63.99   18.08
  -9  -2   5   13.33   14.70
  -9  -2   5  -12.68   15.54
  -9  -2   5    3.90   13.79
   9   2  -5    2.47   12.49
   9   2  -5   37.33   22.17
   9   2  -5    5.66   23.48
   9   2  -5   -4.62   14.96
   9   2  -5    5.27   12.68
  -9  -2   4   45.59   17.82
  -9  -2   4   34.01   19.51
  -9  -2   4   23.61   16.39
   9   2  -4   36.29   16.26
   9   2  -4   39.60   22.17
   9   2  -4   30.50   23.35
   9   2  -4   67.44   19.77
  -9  -2   3   34.60   15.93
  -9  -2   3   13.07   17.36
  -9  -2   3   13.20   14.70
   9   2  -3   17.36   13.66
   9   2  -3   41.03   20.48
   9   2  -3   17.10   16.06
  -9  -2   2   22.17   15.54
  -9  -2   2    8.13   15.09
  -9  -2   2    8.65   13.53
   9   2  -2   23.54   14.11
   9   2  -2   21.07   18.73
   9   2  -2   18.34   15.61
  -9  -2   1    2.21   13.79
  -9  -2   1   20.81   15.02
  -9  -2   1   11.51   13.79
   9   2  -1    4.94   14.83
   9   2  -1    6.37   18.92
   9   2  -1    1.82   13.92
  -9  -2   0   -7.41   13.01
  -9  -2   0    2.41   13.66
   9   2   0    2.08   15.28
   9   2   0    8.97   18.66
   9   2   0    2.08   14.76
  -9  -2  -1    8.26   14.31
  -9  -2  -1   -9.10   12.81
   9   2   1   -0.91   13.98
   9   2   1    0.91   18.79
   9   2   1    0.65   13.20
  -9  -2  -2    4.68   14.24
  -9  -2  -2   15.09   14.18
   9   2   2    4.03   15.54
   9   2   2   10.99   21.72
   9   2   2   -1.82   13.59
  -9  -2  -3   10.73   13.85
  -9  -2  -3   -4.49   12.81
   9   2   3   -7.09   15.80
   9   2   3    6.76   21.98
  -9  -2  -4   -7.22   13.53
  -9  -2  -4   -3.38   13.14
   9   2   4   14.57   17.43
   9   2   4   34.73   23.61
  -9  -2  -5    4.55   15.48
  -9  -2  -5    4.36   14.31
   9   2   5    6.96   17.95
   9   2   5   75.69   31.80
  -9  -2  -6    2.28   16.45
   9   2   6   12.88   18.66
   9   2   6   24.78   24.91
  -9  -2  -7    4.16   16.65
   9   2   7   22.96   20.48
   9   2   7   13.92   19.12
   9   2   7   -4.55   24.91
  -9  -3   7    3.25   14.76
  -9  -3   7    8.65   19.18
  -9  -3   7   20.94   19.64
   9   3  -7    6.31   13.59
   9   3  -7   13.33   20.29
   9   3  -7    4.49   16.32
   9   3  -7    2.54   14.18
  -9  -3   6    5.46   14.05
  -9  -3   6   -8.39   18.08
  -9  -3   6   -3.06   14.83
   9   3  -6    6.44   13.66
   9   3  -6    1.30   20.03
   9   3  -6   11.05   16.26
   9   3  -6   -5.79   12.16
  -9  -3   5   53.52   16.91
  -9  -3   5   46.89   20.29
  -9  -3   5   41.10   19.57
   9   3  -5   57.16   18.53
   9   3  -5   64.31   25.56
   9   3  -5   37.26   23.54
   9   3  -5   51.50   19.51
   9   3  -5   22.11   15.02
  -9  -3   4   -5.72   12.88
  -9  -3   4    5.27   15.61
  -9  -3   4   -4.55   13.20
   9   3  -4    5.40   12.10
   9   3  -4   30.37   20.61
   9   3  -4   -7.09   13.14
   9   3  -4   -6.44   11.97
  -9  -3   3   15.15   14.24
  -9  -3   3   25.75   16.65
  -9  -3   3   27.51   16.39
   9   3  -3    4.68   12.55
   9   3  -3   23.02   20.48
   9   3  -3   15.48   15.61
  -9  -3   2   43.83   16.45
  -9  -3   2   61.13   17.82
  -9  -3   2   54.43   18.66
   9   3  -2   41.55   15.80
   9   3  -2   55.86   22.11
   9   3  -2   67.04   20.03
  -9  -3   1   16.26   15.02
  -9  -3   1   11.64   14.05
   9   3  -1   42.85   17.62
   9   3  -1   33.29   20.74
   9   3  -1   32.64   15.48
  -9  -3   0    9.62   14.18
  -9  -3   0   26.73   17.62
  -9  -3   0   -3.45   12.42
   9   3   0   -3.25   14.11
   9   3   0   15.28   19.05
   9   3   0    6.89   14.31
  -9  -3  -1   25.10   14.96
  -9  -3  -1   23.54   17.95
  -9  -3  -1   14.96   13.46
   9   3   1   19.96   15.61
   9   3   1   34.99   22.24
   9   3   1   16.39   15.35
  -9  -3  -2   24.97   16.00
  -9  -3  -2   50.27   19.83
  -9  -3  -2   21.26   14.76
   9   3   2   27.90   18.08
   9   3   2   31.02   21.98
   9   3   2   21.98   15.93
  -9  -3  -3    9.82   14.63
  -9  -3  -3    5.79   18.99
  -9  -3  -3   -7.28   11.77
   9   3   3    3.25   15.87
   9   3   3   -3.38   16.45
   9   3   3   -1.63   14.37
  -9  -3  -4    4.55   14.50
  -9  -3  -4    0.65   23.35
  -9  -3  -4   -8.71   12.23
   9   3   4   -2.28   16.39
   9   3   4   34.40   20.03
   9   3   4    5.27   15.67
  -9  -3  -5   37.39   16.32
   9   3   5   41.75   20.81
   9   3   5   38.89   22.70
   9   3   5   34.60   23.22
  -9  -3  -6   42.01   17.95
   9   3   6   60.15   22.24
   9   3   6   43.96   24.71
  -9  -3  -7   -8.97   14.76
   9   3   7   11.05   18.73
   9   3   7  -10.08   27.90
   9   3   7    5.66   19.25
   9   3   8    2.60   20.16
   9   4  -7    1.04   14.76
   9   4  -7  -12.29   18.40
   9   4  -7    8.97   14.76
  -9  -4   6   14.31   19.05
   9   4  -6    9.62   14.11
   9   4  -6   10.21   18.99
   9   4  -6    2.21   15.28
   9   4  -6    1.76   13.46
  -9  -4   5   27.25   19.77
  -9  -4   5   17.04   15.80
   9   4  -5    7.80   13.40
   9   4  -5    3.38   19.05
   9   4  -5    8.39   14.57
   9   4  -5   33.88   16.58
  -9  -4   4   26.21   20.09
  -9  -4   4   16.65   17.75
  -9  -4   4   35.38   17.75
   9   4  -4   11.90   13.66
   9   4  -4   29.33   21.26
   9   4  -4   -7.54   13.20
   9   4  -4    4.49   12.81
  -9  -4   3    3.71   12.81
  -9  -4   3   -1.76   15.28
  -9  -4   3   -4.55   13.14
   9   4  -3    6.05   12.23
   9   4  -3    4.94   17.95
   9   4  -3   13.92   14.44
  -9  -4   2   22.11   14.18
  -9  -4   2   39.34   17.95
  -9  -4   2   28.29   16.65
   9   4  -2   17.69   12.88
   9   4  -2   32.38   20.09
   9   4  -2   32.90   16.45
  -9  -4   1   56.25   16.19
  -9  -4   1   49.62   17.75
   9   4  -1   72.57   20.22
   9   4  -1    4.94   17.56
   9   4  -1   51.76   18.47
  -9  -4   0   87.27   18.86
  -9  -4   0  115.69   25.30
  -9  -4   0   64.51   18.86
   9   4   0   78.49   21.07
   9   4   0   38.43   19.96
   9   4   0   88.05   22.11
  -9  -4  -1   25.75   14.63
  -9  -4  -1   46.43   20.61
  -9  -4  -1   16.84   15.09
   9   4   1   46.04   19.64
   9   4   1   21.98   17.95
   9   4   1   42.92   18.08
  -9  -4  -2   30.30   15.02
  -9  -4  -2   53.65   20.68
  -9  -4  -2   38.04   16.65
   9   4   2   57.75   19.77
   9   4   2    5.66   16.45
   9   4   2   75.63   20.35
  -9  -4  -3   62.04   18.01
  -9  -4  -3   69.26   22.63
  -9  -4  -3   46.37   17.04
   9   4   3   73.42   21.07
   9   4   3   40.71   20.74
   9   4   3   69.00   20.68
  -9  -4  -4   21.46   15.35
  -9  -4  -4   20.03   20.61
  -9  -4  -4   15.35   14.11
   9   4   4   22.50   18.21
   9   4   4   39.28   19.31
   9   4   4   39.28   18.08
  -9  -4  -5   -1.43   13.46
  -9  -4  -5   20.03   20.48
   9   4   5   -3.97   15.80
   9   4   5   15.87   18.21
   9   4   5  -12.16   14.24
  -9  -4  -6   34.99   17.62
  -9  -4  -6   46.89   23.15
   9   4   6   63.53   21.52
   9   4   6   67.70   25.56
   9   4   6   44.28   20.35
  -9  -4  -7   25.56   17.43
  -9  -4  -7   57.03   26.21
   9   4   7   55.53   21.13
   9   4   7   34.08   20.29
   9   4   7   48.38   28.74
  -9  -4  -8    5.92   16.26
  -9  -4  -8   25.62   25.04
   9   4   8    2.67   18.40
   9   4   8    4.55   19.44
   9   4   8   34.66   21.26
  -9  -5   6   43.18   22.70
   9   5  -6   45.72   18.99
   9   5  -6   39.41   23.09
   9   5  -6   50.53   19.83
   9   5  -6   32.25   18.01
  -9  -5   5    7.67   16.78
   9   5  -5   20.61   15.35
   9   5  -5    8.45   19.05
   9   5  -5    0.78   15.93
   9   5  -5   10.27   14.76
  -9  -5   4   93.25   23.87
   9   5  -4  124.79   23.80
   9   5  -4  112.18   27.70
   9   5  -4  128.76   24.84
   9   5  -4  119.13   23.15
  -9  -5   3   62.62   20.22
   9   5  -3   71.86   18.79
   9   5  -3   60.80   22.37
   9   5  -3   94.62   20.87
  -9  -5   2    6.76   13.79
   9   5  -2   22.89   14.96
   9   5  -2   -7.87   16.45
   9   5  -2    4.03   13.59
  -9  -5   1   84.47   20.22
   9   5  -1  100.47   21.20
   9   5  -1   53.71   21.33
   9   5  -1  100.99   21.85
  -9  -5   0  105.48   29.85
  -9  -5   0  146.58   27.90
  -9  -5   0   79.01   19.70
   9   5   0   91.30   20.81
   9   5   0   35.83   19.64
   9   5   0  117.38   22.70
  -9  -5  -1   16.97   12.94
  -9  -5  -1   20.03   21.13
  -9  -5  -1   19.18   15.15
   9   5   1    8.71   13.72
   9   5   1   28.61   17.23
   9   5   1   28.81   16.84
  -9  -5  -2    6.24   13.66
  -9  -5  -2   24.13   20.68
  -9  -5  -2   11.12   13.79
   9   5   2   22.11   16.71
   9   5   2   16.52   17.30
   9   5   2   37.46   17.43
  -9  -5  -3   34.08   14.83
  -9  -5  -3   83.04   24.58
  -9  -5  -3   47.67   17.36
   9   5   3   69.97   20.35
   9   5   3   33.82   19.51
   9   5   3   51.18   18.53
  -9  -5  -4   -8.78   13.59
  -9  -5  -4   12.10   21.13
  -9  -5  -4   -3.06   12.36
   9   5   4  -11.19   14.57
   9   5   4   19.18   17.56
   9   5   4    1.95   14.50
  -9  -5  -5    8.19   14.83
  -9  -5  -5   -0.26   19.51
   9   5   5    4.29   15.93
   9   5   5   20.81   18.14
   9   5   5   -6.05   14.05
  -9  -5  -6   48.90   17.88
  -9  -5  -6  106.78   28.68
   9   5   6   95.20   24.84
   9   5   6   55.27   23.67
   9   5   6   82.72   23.02
  -9  -5  -7   50.14   17.82
  -9  -5  -7   38.63   24.19
   9   5   7   47.08   21.26
   9   5   7   36.35   21.59
   9   5   7   66.39   22.44
  -9  -5  -8  -19.25   13.20
  -9  -5  -8    1.17   23.61
   9   5   8   15.74   19.90
   9   5   8    3.38   17.10
   9   5   8   -3.12   15.74
  -9  -6   5    4.55   17.17
   9   6  -5    3.71   14.76
   9   6  -5  -12.49   17.56
   9   6  -5   -1.43   13.98
   9   6  -5   -7.93   13.33
  -9  -6   4   34.99   17.82
   9   6  -4   52.22   18.21
   9   6  -4   30.30   20.03
   9   6  -4   51.31   19.18
   9   6  -4   39.34   17.82
  -9  -6   3   39.93   19.25
   9   6  -3   65.87   19.77
   9   6  -3   66.98   23.09
   9   6  -3   84.86   21.07
   9   6  -3   62.30   19.38
  -9  -6   2   17.49   15.54
   9   6  -2   29.91   14.76
   9   6  -2   19.44   18.60
   9   6  -2   22.44   15.15
  -9  -6   1   33.82   17.36
   9   6  -1   39.34   16.32
   9   6  -1   15.28   17.10
   9   6  -1   23.93   15.93
  -9  -6   0   84.21   25.56
  -9  -6   0   80.96   20.94
   9   6   0   67.11   18.53
   9   6   0   15.67   16.84
   9   6   0   80.83   19.96
  -9  -6  -1   58.40   23.61
  -9  -6  -1   31.93   16.45
   9   6   1   27.51   15.80
   9   6   1   20.48   16.91
   9   6   1   39.41   17.23
  -9  -6  -2   13.07   19.96
  -9  -6  -2   -1.24   12.81
   9   6   2    3.77   13.85
   9   6   2   13.01   16.45
   9   6   2   10.47   14.96
  -9  -6  -3   40.90   22.24
  -9  -6  -3   36.81   16.19
   9   6   3   50.40   18.73
   9   6   3   20.29   15.35
   9   6   3   53.06   18.34
  -9  -6  -4   32.71   23.48
   9   6   4   14.96   16.32
   9   6   4   27.96   16.97
   9   6   4   23.22   16.71
  -9  -6  -5   34.08   23.67
   9   6   5   45.91   18.99
   9   6   5    5.20   15.61
   9   6   5   25.04   17.23
  -9  -6  -6   -3.38   21.26
   9   6   6   15.67   17.82
   9   6   6   26.21   21.00
   9   6   6   12.16   15.80
  -9  -6  -7   45.39   25.95
   9   6   7   53.84   22.76
   9   6   7   27.38   20.35
   9   6   7   24.13   18.21
  -9  -6  -8   85.64   29.59
   9   6   8  133.76   28.68
   9   6   8   53.71   20.81
   9   6   8  102.42   24.65
  -9  -7   4   -5.07   17.75
   9   7  -4   -7.48   13.66
   9   7  -4  -19.64   17.49
   9   7  -4   13.53   15.02
   9   7  -4    9.17   15.41
  -9  -7   3   33.23   20.87
   9   7  -3   46.04   16.71
   9   7  -3   19.12   18.60
   9   7  -3   34.47   16.58
   9   7  -3   52.80   20.16
  -9  -7   2   47.08   19.70
   9   7  -2   57.88   18.21
   9   7  -2   64.96   23.35
   9   7  -2   73.09   19.38
  -9  -7   1   -2.60   13.72
   9   7  -1    3.19   12.68
   9   7  -1    6.44   18.01
   9   7  -1  -10.47   13.14
  -9  -7   0   22.44   22.11
  -9  -7   0    4.03   13.98
   9   7   0   -8.52   11.19
   9   7   0    1.69   16.13
   9   7   0   16.00   14.18
  -9  -7  -1   78.75   26.47
  -9  -7  -1   24.06   15.87
   9   7   1   26.21   14.57
   9   7   1  -12.36   15.09
   9   7   1   25.75   14.76
  -9  -7  -2  122.25   29.46
  -9  -7  -2   65.81   19.12
   9   7   2   80.90   19.05
   9   7   2   26.99   17.88
   9   7   2   96.18   21.98
  -9  -7  -3   34.79   23.74
  -9  -7  -3    5.66   14.24
   9   7   3   10.79   14.11
   9   7   3   12.29   16.58
   9   7   3   24.26   16.13
  -9  -7  -4   18.27   22.24
   9   7   4    9.56   14.18
   9   7   4   21.33   18.08
   9   7   4    0.98   13.72
  -9  -7  -5   18.53   22.96
   9   7   5   33.69   18.40
   9   7   5   27.18   19.96
   9   7   5   25.10   17.36
  -9  -7  -6   81.68   26.86
   9   7   6   78.23   23.15
   9   7   6   49.36   23.28
   9   7   6   56.06   20.55
  -9  -7  -7   -1.95   23.74
   9   7   7    0.46   16.58
   9   7   7    6.50   17.17
   9   7   7   -7.87   15.28
  -9  -7  -8   20.35   25.82
   9   7   8   20.68   19.83
   9   7   8    5.92   18.21
   9   7   8    7.87   17.43
   9   8  -3    6.76   18.21
   9   8  -3   17.04   16.84
  -9  -8   2   77.25   24.39
   9   8  -2   52.41   21.20
   9   8  -2   72.18   18.34
   9   8  -2   71.73   20.48
  -9  -8   1    2.28   16.91
   9   8  -1   -6.05   15.48
   9   8  -1   11.25   13.66
  -9  -8   0   46.30   24.39
  -9  -8   0   42.59   19.70
   9   8   0   39.15   16.52
   9   8   0    6.24   16.13
   9   8   0    2.99   13.85
  -9  -8  -1   30.89   22.89
  -9  -8  -1    2.93   15.41
   9   8   1   20.61   13.92
   9   8   1   22.30   17.88
   9   8   1   17.62   14.83
  -9  -8  -2   66.52   26.47
  -9  -8  -2   40.32   18.66
   9   8   2   59.05   18.66
   9   8   2   31.41   20.35
   9   8   2   31.28   16.65
  -9  -8  -3   54.69   25.88
  -9  -8  -3  -14.57   12.75
   9   8   3   32.64   16.39
   9   8   3   30.56   19.96
   9   8   3   13.72   14.70
  -9  -8  -4   19.83   22.70
   9   8   4   -7.09   13.92
   9   8   4    7.28   16.91
   9   8   4   12.36   14.89
  -9  -8  -5  -17.75   21.65
   9   8   5    2.02   16.65
   9   8   5   24.26   19.90
   9   8   5   -2.34   13.46
  -9  -8  -6   29.52   25.75
   9   8   6   32.19   19.18
   9   8   6   15.28   19.05
   9   8   6   21.39   16.71
  -9  -8  -7   14.50   25.56
   9   8   7    8.71   17.36
   9   8   7   16.97   18.14
   9   8   7   11.19   16.84
  -9  -8  -8  -11.71   23.93
   9   8   8   30.76   19.90
   9   8   8   -2.80   18.99
   9   8   8   -7.93   15.28
  -9  -9   1   24.97   19.64
   9   9  -1   -0.07   16.39
   9   9  -1   32.58   14.89
   9   9  -1   22.17   17.69
  -9  -9   0   48.45   21.91
   9   9   0   12.03   15.87
   9   9   0   67.44   18.14
  -9  -9  -1   65.74   27.64
  -9  -9  -1   44.81   20.09
   9   9   1   19.05   18.14
   9   9   1   52.15   17.69
  -9  -9  -2   -7.15   21.52
  -9  -9  -2    0.78   15.67
   9   9   2   20.42   17.36
   9   9   2   -4.16   12.94
  -9  -9  -3  109.77   29.46
   9   9   3   47.28   21.98
   9   9   3   85.45   20.87
  -9  -9  -4   50.07   26.73
   9   9   4   25.82   18.60
   9   9   4   37.98   17.30
  -9  -9  -5    7.87   23.15
   9   9   5   22.44   18.92
   9   9   5    1.56   17.69
   9   9   5    8.45   13.92
  -9  -9  -6   42.01   28.61
   9   9   6   24.13   18.60
   9   9   6   42.33   21.26
   9   9   6   20.09   16.45
  -9  -9  -7   43.57   27.96
   9   9   7   45.07   22.11
   9   9   7   29.65   22.37
   9   9   7   32.32   18.60
  -9 -10  -2    5.40   25.69
  -9 -10  -2    0.85   15.93
   9  10   2    8.45   17.30
   9  10   2    4.55   14.37
  -9 -10  -3   33.75   26.73
   9  10   3    9.95   18.79
   9  10   3   16.71   14.89
  -9 -10  -4   31.60   25.04
   9  10   4   -1.63   17.36
   9  10   4    2.47   13.79
  -9 -10  -5  -24.65   21.13
   9  10   5   -9.17   16.84
   9  10   5    0.33   13.33
 -10  -1   2   16.26   17.62
 -10  -1   2   14.31   16.65
  10   1  -2   24.45   17.30
  10   1  -2   29.46   26.14
  10   1  -2   54.10   33.56
 -10  -1   1    4.81   16.39
 -10  -1   1    1.50   14.89
  10   1  -1   10.79   16.26
  10   1  -1    8.58   25.36
  10   1  -1   13.14   27.31
 -10  -1   0   36.48   18.34
 -10  -1   0   24.97   17.17
  10   1   0   21.65   21.52
  10   1   0   57.36   29.07
  10   1   0   54.62   29.26
 -10  -1  -1   27.25   18.60
  10   1   1   46.69   22.89
  10   1   1   22.44   28.42
 -10  -2   3   30.56   17.95
 -10  -2   3    5.20   16.06
  10   2  -3   16.97   16.39
  10   2  -3   35.51   25.69
  10   2  -3    9.30   30.11
 -10  -2   2   33.88   17.43
 -10  -2   2    9.36   17.17
  10   2  -2   40.06   18.14
  10   2  -2   54.49   27.70
 -10  -2   1   15.22   16.39
 -10  -2   1   20.61   17.04
  10   2  -1   24.78   21.20
  10   2  -1   42.07   27.18
 -10  -2   0  -15.87   14.24
 -10  -2   0    4.16   15.15
  10   2   0   -1.50   17.49
  10   2   0   13.07   25.43
 -10  -2  -1   21.33   16.84
 -10  -2  -1   22.70   18.14
  10   2   1   23.28   19.77
  10   2   1   28.61   25.62
 -10  -2  -2    7.15   17.43
 -10  -2  -2   -2.99   15.87
  10   2   2   30.37   21.00
  10   2   2   30.17   28.03
 -10  -3   3   -0.46   15.09
 -10  -3   3   -2.08   15.48
  10   3  -3   -2.93   13.59
  10   3  -3    3.58   22.83
  10   3  -3   13.72   18.79
 -10  -3   2   12.03   16.06
 -10  -3   2    5.85   15.48
  10   3  -2   22.57   16.19
  10   3  -2   12.68   24.32
  10   3  -2    6.83   16.39
 -10  -3   1   64.12   18.86
 -10  -3   1    6.83   15.41
  10   3  -1   44.81   22.63
  10   3  -1   45.98   26.08
  10   3  -1   34.60   18.86
 -10  -3   0    0.46   14.50
 -10  -3   0    9.43   16.58
  10   3   0   18.99   20.42
  10   3   0   33.69   26.27
  10   3   0    2.02   16.19
 -10  -3  -1   10.34   15.61
 -10  -3  -1   17.36   17.23
  10   3   1   40.19   22.17
  10   3   1   31.02   25.62
  10   3   1    1.69   21.33
 -10  -3  -2   22.11   16.84
 -10  -3  -2   26.34   16.97
  10   3   2   26.14   20.94
  10   3   2   15.61   25.23
 -10  -3  -3   10.92   16.52
 -10  -3  -3   36.09   18.40
  10   3   3   10.66   20.03
  10   3   3    0.39   24.71
 -10  -4   2    2.54   15.09
  10   4  -2    6.96   15.22
  10   4  -2   25.56   24.91
  10   4  -2    2.21   16.71
 -10  -4   1    4.03   19.83
 -10  -4   1   33.56   18.21
  10   4  -1   32.64   20.68
  10   4  -1    0.26   21.85
  10   4  -1   21.65   18.40
 -10  -4   0   22.83   16.13
 -10  -4   0   16.65   17.23
  10   4   0   44.02   22.63
  10   4   0    8.45   22.24
  10   4   0   33.88   18.27
 -10  -4  -1   16.84   16.19
 -10  -4  -1    4.42   16.65
  10   4   1   10.47   18.47
  10   4   1   21.91   22.96
  10   4   1   27.77   17.88
 -10  -4  -2   20.16   16.19
 -10  -4  -2   33.62   17.88
  10   4   2   64.57   24.00
  10   4   2   41.55   25.69
  10   4   2   13.66   17.62
 -10  -4  -3   42.59   18.40
 -10  -4  -3   42.66   19.18
  10   4   3   52.74   22.70
  10   4   3   53.71   26.21
  10   4   3   53.39   21.33
 -10  -5   1   22.57   16.91
  10   5  -1    2.41   17.56
  10   5  -1   38.30   23.80
  10   5  -1   16.13   17.30
 -10  -5   0   57.55   20.94
  10   5   0   69.39   23.80
  10   5   0   38.76   24.58
  10   5   0   55.08   20.61
 -10  -5  -1   32.19   23.67
 -10  -5  -1   25.95   17.88
  10   5   1   34.92   20.16
  10   5   1   20.09   22.11
  10   5   1   -3.12   14.05
 -10  -5  -2   38.17   24.19
 -10  -5  -2    7.35   16.39
  10   5   2   15.93   19.51
  10   5   2   26.21   21.52
  10   5   2   30.37   19.44
 -10  -5  -3   76.86   26.86
 -10  -5  -3   30.17   20.22
  10   5   3   73.09   24.65
  10   5   3   21.52   22.83
  10   5   3   65.42   21.52
 -10  -6   0    8.32   17.10
  10   6   0   14.89   17.82
  10   6   0    5.20   20.22
 -10  -6  -1   29.52   25.49
 -10  -6  -1   38.82   18.79
  10   6   1   60.61   21.39
  10   6   1   15.15   21.59
  10   6   1   28.74   17.88
 -10  -6  -2    3.51   23.54
 -10  -6  -2    0.85   15.74
  10   6   2    5.98   18.27
  10   6   2   19.77   20.81
  10   6   2   -2.41   15.87
  10   6   3   -2.99   18.73
  10   6   3   24.00   21.46
   0   0   0    0.00    0.00




_computing_structure_solution     'SHELXT 2014/5 (Sheldrick, 2014)'
_computing_structure_solution     'SHELXT 2014/5 (Sheldrick, 2014)'
_computing_structure_solution     'SHELXT 2014/5 (Sheldrick, 2014)'
_computing_structure_solution     'SHELXT 2014/5 (Sheldrick, 2014)'
;
_shelx_hkl_checksum              19817
_shelx_fab_file
;
-10 -5 1 -0.6939 -0.3348
-10 -4 1 -0.2133 -0.2820
-10 -4 2 0.2403 0.1224
-10 -3 1 1.4189 -0.1421
-10 -3 2 0.8019 -0.0315
-10 -3 3 -0.6792 0.0358
-10 -2 1 -0.8005 -0.0723
-10 -2 2 1.6605 0.0182
-10 -2 3 -0.7431 -0.1332
-10 -1 1 2.4073 0.3597
-10 -1 2 -0.6476 -0.3226
-9 -9 1 0.1021 -0.4886
-9 -8 1 -1.2894 0.1546
-9 -8 2 0.1238 -0.1470
-9 -8 3 -2.1324 0.1243
-9 -7 1 0.3818 0.2714
-9 -7 2 -2.4050 -0.0377
-9 -7 3 0.7223 -0.1992
-9 -7 4 0.4341 0.1796
-9 -6 1 -1.2736 0.3121
-9 -6 2 0.3574 -0.0985
-9 -6 3 -0.3274 -0.0688
-9 -6 4 1.0177 -0.0482
-9 -6 5 0.9995 0.1617
-9 -5 1 -1.9171 0.3966
-9 -5 2 -0.5407 -0.3048
-9 -5 3 2.9656 0.0721
-9 -5 4 -1.1248 0.0400
-9 -5 5 0.7151 -0.1661
-9 -5 6 -0.5230 0.2259
-9 -4 1 -0.0687 0.3363
-9 -4 2 0.7484 -0.2913
-9 -4 3 0.1241 0.0233
-9 -4 4 2.0493 0.0707
-9 -4 5 -2.2092 -0.0643
-9 -4 6 -0.0241 -0.0155
-9 -4 7 0.2932 0.2130
-9 -3 1 1.0998 0.1548
-9 -3 2 1.0343 -0.1921
-9 -3 3 0.5811 -0.0068
-9 -3 4 -0.6339 0.0584
-9 -3 5 0.0781 -0.0330
-9 -3 6 -1.6660 0.0800
-9 -3 7 1.2808 0.0243
-9 -2 1 1.3128 -0.1047
-9 -2 2 0.6153 -0.0681
-9 -2 3 0.9755 0.0205
-9 -2 4 -1.9761 0.0057
-9 -2 5 -0.4967 0.0256
-9 -2 6 0.9239 0.1023
-9 -2 7 -0.7872 -0.0801
-9 -2 8 1.5510 0.0065
-9 -1 1 0.6194 -0.3239
-9 -1 2 -0.1843 0.1755
-9 -1 3 0.3195 -0.0787
-9 -1 4 -1.5718 -0.0037
-9 -1 5 -0.5544 0.1221
-9 -1 6 0.9025 -0.0170
-9 -1 7 0.7370 -0.0285
-9 -1 8 -0.1032 -0.0974
-9 0 1 0.5178 -0.3172
-9 0 2 0.2841 0.2299
-9 0 3 -2.0512 -0.0945
-9 0 4 -0.1418 -0.0049
-9 0 5 -0.1658 0.0866
-9 0 6 1.0550 -0.0015
-9 0 7 0.9320 -0.0789
-9 0 8 -0.9129 -0.0768
-9 1 1 0.9185 -0.2255
-9 1 2 -0.8017 0.0949
-9 1 3 -1.4078 -0.0105
-9 1 4 -0.8493 -0.0361
-9 1 5 2.1857 0.0636
-9 1 6 -0.3113 -0.0624
-9 1 7 0.7933 0.0337
-9 1 8 -0.5552 -0.1228
-9 2 1 -1.9339 -0.0536
-9 2 2 -0.3610 -0.0347
-9 2 3 -1.0177 -0.0469
-9 2 4 0.7271 -0.0410
-9 2 5 0.5716 0.1460
-9 2 6 1.4611 -0.1009
-9 2 7 -1.0868 -0.0137
-9 3 1 0.7843 0.1936
-9 3 2 -2.8592 -0.1965
-9 3 3 1.2435 -0.0826
-9 3 4 0.5487 0.0862
-9 3 5 1.1069 0.0032
-9 3 6 -0.2950 0.1360
-9 4 3 -0.5565 -0.0571
-9 4 4 1.8660 0.0201
-8 -10 1 0.8341 0.5055
-8 -10 2 -0.2765 -0.2344
-8 -9 1 -1.2200 0.2252
-8 -9 2 -0.8497 -0.0558
-8 -9 3 -0.8782 0.1176
-8 -9 4 -0.4256 -0.2114
-8 -8 1 0.4918 0.1475
-8 -8 2 -2.7807 -0.2206
-8 -8 3 -0.7813 0.1303
-8 -8 4 1.3414 0.1313
-8 -8 5 -0.0952 -0.4227
-8 -7 1 -1.4261 -0.0816
-8 -7 2 -0.8149 0.0497
-8 -7 3 -0.7303 -0.0853
-8 -7 4 0.6077 -0.0293
-8 -7 5 2.4619 0.2076
-8 -7 6 -1.4469 -0.3756
-8 -6 1 -3.5229 -0.4616
-8 -6 2 -0.9309 0.2944
-8 -6 3 2.4211 -0.0570
-8 -6 4 -0.2377 -0.1862
-8 -6 5 0.8197 0.1264
-8 -6 6 0.7642 0.1808
-8 -6 7 -2.2117 -0.4103
-8 -5 1 -1.5007 -0.4903
-8 -5 2 0.7076 0.2407
-8 -5 3 -0.0935 -0.0385
-8 -5 4 3.2993 -0.0811
-8 -5 5 -1.6012 0.0204
-8 -5 6 -0.5007 0.0423
-8 -5 7 -0.1943 0.0787
-8 -5 8 -0.6300 -0.2242
-8 -4 1 1.2452 -0.3023
-8 -4 2 -0.6057 0.1513
-8 -4 3 3.2373 -0.0965
-8 -4 4 -0.5816 -0.0251
-8 -4 5 -0.0607 0.0979
-8 -4 6 -1.6358 -0.0686
-8 -4 7 0.1953 0.0287
-8 -4 8 0.3702 0.0806
-8 -4 9 0.6007 -0.1513
-8 -3 1 -0.2862 -0.0549
-8 -3 2 3.8132 0.1001
-8 -3 3 -0.3977 -0.1888
-8 -3 4 -0.0029 0.0485
-8 -3 5 -0.8172 0.1155
-8 -3 6 -1.1194 -0.0697
-8 -3 7 -0.3190 -0.0110
-8 -3 8 2.4028 0.1439
-8 -3 9 -0.9059 -0.2646
-8 -2 1 0.5844 0.1661
-8 -2 2 2.3641 -0.0511
-8 -2 3 0.5889 -0.0737
-8 -2 4 -2.4255 0.0267
-8 -2 5 -0.4134 0.0449
-8 -2 6 -0.2581 0.0708
-8 -2 7 0.7793 -0.0535
-8 -2 8 0.4294 -0.0588
-8 -2 9 1.2551 0.0309
-8 -2 10 -2.2194 -0.1328
-8 -1 1 2.8462 0.3390
-8 -1 2 0.1631 -0.2727
-8 -1 3 -0.8768 0.0863
-8 -1 4 -0.8713 0.0536
-8 -1 5 -2.3384 -0.0155
-8 -1 6 1.9533 0.0317
-8 -1 7 1.2473 0.0225
-8 -1 8 -0.4325 -0.1248
-8 -1 9 0.0567 -0.0411
-8 -1 10 -0.7273 0.0652
-8 0 1 3.2093 0.4043
-8 0 2 -0.2798 -0.3609
-8 0 3 -3.7317 0.1305
-8 0 4 0.0585 0.0829
-8 0 5 0.7633 -0.0475
-8 0 6 -0.5689 0.0154
-8 0 7 2.5161 -0.0202
-8 0 8 -0.0643 -0.0954
-8 0 9 -1.9548 0.0029
-8 0 10 -0.1807 0.0621
-8 1 1 -1.6344 0.2667
-8 1 2 -0.3609 -0.2152
-8 1 3 -1.6029 0.0566
-8 1 4 -1.8353 0.0378
-8 1 5 1.9292 -0.0117
-8 1 6 2.6726 0.0162
-8 1 7 -1.9802 -0.0756
-8 1 8 1.3588 -0.0187
-8 1 9 -1.9196 -0.0347
-8 1 10 -0.6858 0.2236
-8 1 11 1.3531 -0.0556
-8 2 1 -1.9534 0.0323
-8 2 2 -3.7172 -0.0953
-8 2 3 1.2189 0.0062
-8 2 4 -0.5232 -0.0014
-8 2 5 1.6762 0.0214
-8 2 6 1.3197 0.0119
-8 2 7 0.3372 -0.0586
-8 2 8 -2.7618 -0.0032
-8 2 9 0.5538 0.0307
-8 2 10 -0.2861 0.1158
-8 3 1 0.0339 -0.2157
-8 3 2 -1.4908 0.0544
-8 3 3 -2.5205 -0.0888
-8 3 4 4.6222 0.0149
-8 3 5 0.0455 0.0804
-8 3 6 0.3374 -0.0132
-8 3 7 -1.1347 -0.0076
-8 3 8 -0.2431 -0.0513
-8 3 9 -1.9899 0.0628
-8 3 10 2.1660 0.1274
-8 4 1 -3.8525 -0.3460
-8 4 2 1.0186 0.0762
-8 4 3 1.1883 -0.0591
-8 4 4 -0.1718 0.0467
-8 4 5 3.1006 0.0967
-8 4 6 -1.7331 -0.0144
-8 4 7 -1.5048 -0.0123
-8 4 8 -0.4238 -0.0647
-8 4 9 0.3920 0.0254
-8 4 10 0.3981 0.1295
-8 5 1 -0.8643 -0.4364
-8 5 2 -0.1244 0.0707
-8 5 3 1.4856 0.0352
-8 5 4 2.2210 0.0587
-8 5 5 -1.6501 0.1475
-8 5 6 0.2206 -0.1220
-8 5 7 -1.8213 -0.0327
-8 5 8 0.0088 -0.0189
-8 5 9 0.7003 0.0228
-8 6 1 0.1046 -0.1017
-8 6 2 0.5922 -0.0072
-8 6 3 1.4503 0.0451
-8 6 4 0.4004 0.1110
-8 6 5 -0.6546 0.0849
-8 6 6 -1.3829 -0.0893
-8 6 7 -0.1864 -0.1957
-7 -12 1 -0.2311 -0.4216
-7 -11 1 1.7811 -0.5588
-7 -11 2 0.9734 0.1546
-7 -11 3 -2.2908 0.3082
-7 -10 1 -0.7216 -0.3714
-7 -10 2 0.2593 0.3186
-7 -10 3 -0.9359 -0.1933
-7 -10 4 -1.7553 0.1860
-7 -9 1 0.7677 -0.2240
-7 -9 2 -3.3927 0.2674
-7 -9 3 -0.5456 -0.0839
-7 -9 4 0.2949 -0.1137
-7 -9 5 0.2418 0.1594
-7 -9 6 0.8044 -0.0597
-7 -8 1 0.3050 0.0238
-7 -8 2 -2.1541 0.1077
-7 -8 3 -2.1514 -0.0834
-7 -8 4 1.4801 0.0022
-7 -8 5 1.7516 -0.0211
-7 -8 6 -0.1214 0.0271
-7 -8 7 -0.1227 0.0036
-7 -7 1 -4.0876 0.3436
-7 -7 2 0.0920 -0.1357
-7 -7 3 -0.6275 -0.0751
-7 -7 4 0.8002 0.1128
-7 -7 5 2.1989 -0.0734
-7 -7 6 0.1452 0.0055
-7 -7 7 -1.8420 0.0438
-7 -7 8 -0.0293 0.0062
-7 -6 1 -3.3544 0.4828
-7 -6 2 -1.7590 -0.2949
-7 -6 3 2.1910 0.0330
-7 -6 4 1.8958 0.0629
-7 -6 5 0.1946 -0.0426
-7 -6 6 -0.1871 0.0334
-7 -6 7 -1.5437 -0.0116
-7 -6 8 -0.4663 0.0243
-7 -6 9 1.0348 -0.0379
-7 -5 1 -1.4569 0.4558
-7 -5 2 -0.3948 -0.3448
-7 -5 3 1.7848 0.1129
-7 -5 4 3.4491 0.0590
-7 -5 5 -1.8467 -0.1120
-7 -5 6 -1.0023 0.0964
-7 -5 7 -0.5543 0.0277
-7 -5 8 -0.4777 -0.1367
-7 -5 9 1.5955 0.1215
-7 -5 10 0.3713 -0.0680
-7 -4 1 1.4085 0.2855
-7 -4 2 2.7835 -0.2916
-7 -4 3 0.8495 0.1240
-7 -4 4 0.9293 0.0701
-7 -4 5 0.3639 -0.1421
-7 -4 6 -3.7725 0.0803
-7 -4 7 0.2515 0.0656
-7 -4 8 2.3157 -0.1096
-7 -4 9 -0.9557 -0.0170
-7 -4 10 1.5785 0.0907
-7 -3 1 -2.4905 -0.0276
-7 -3 2 4.9686 -0.0503
-7 -3 3 1.9177 0.0423
-7 -3 4 -1.4713 -0.0323
-7 -3 5 -2.5748 0.0121
-7 -3 6 0.8023 0.0313
-7 -3 7 -1.7724 -0.0063
-7 -3 8 2.7281 -0.0384
-7 -3 9 1.2143 0.0107
-7 -3 10 -2.1481 -0.0483
-7 -3 11 0.4767 0.0055
-7 -2 1 4.8960 -0.3650
-7 -2 2 -0.5533 0.1724
-7 -2 3 2.0256 -0.0192
-7 -2 4 -1.3858 -0.0964
-7 -2 5 -3.7979 0.0985
-7 -2 6 0.3949 0.0245
-7 -2 7 2.8591 -0.0413
-7 -2 8 -0.8531 -0.0503
-7 -2 9 1.4116 0.0460
-7 -2 10 -0.7168 -0.1015
-7 -2 11 -2.5756 0.0824
-7 -1 1 5.6654 -0.5261
-7 -1 2 0.3869 0.2748
-7 -1 3 -2.2487 -0.0730
-7 -1 4 -2.0007 -0.0604
-7 -1 5 -0.6483 0.1108
-7 -1 6 -0.1657 -0.0038
-7 -1 7 2.4228 -0.0370
-7 -1 8 1.8649 -0.0454
-7 -1 9 -2.9261 -0.0426
-7 -1 10 0.6112 0.0707
-7 -1 11 -1.5075 -0.0188
-7 -1 12 0.5821 0.1438
-7 0 1 -0.5527 -0.4542
-7 0 2 1.9767 0.2819
-7 0 3 -3.6592 -0.1430
-7 0 4 -2.8179 0.0140
-7 0 5 1.0949 0.1197
-7 0 6 1.9799 -0.0633
-7 0 7 0.9416 -0.0528
-7 0 8 0.9225 0.0057
-7 0 9 -2.0756 -0.0850
-7 0 10 -1.4329 0.1415
-7 0 11 0.7410 -0.0104
-7 0 12 0.8317 0.1219
-7 1 1 -0.3327 -0.1759
-7 1 2 -3.5829 0.1927
-7 1 3 -1.0289 -0.1730
-7 1 4 -1.7874 0.0547
-7 1 5 1.5058 0.0999
-7 1 6 3.0457 -0.0649
-7 1 7 0.9416 -0.0857
-7 1 8 -2.7203 0.0229
-7 1 9 0.4796 0.0005
-7 1 10 -1.8311 0.0725
-7 1 11 0.1609 0.0706
-7 1 12 2.7208 0.0251
-7 2 1 2.3233 0.0677
-7 2 2 -5.6300 0.0048
-7 2 3 -1.7173 -0.0554
-7 2 4 2.5799 0.0221
-7 2 5 1.1740 0.0284
-7 2 6 1.9158 0.0065
-7 2 7 0.4337 -0.0764
-7 2 8 -2.6772 -0.0150
-7 2 9 -1.7638 0.0810
-7 2 10 1.7369 0.0406
-7 2 11 -0.3621 0.0677
-7 2 12 1.2961 -0.0652
-7 3 1 -3.1823 0.2667
-7 3 2 -0.8472 -0.2221
-7 3 3 -1.8470 0.0423
-7 3 4 3.0256 0.0692
-7 3 5 3.2439 -0.0381
-7 3 6 -0.6798 0.0240
-7 3 7 -1.3685 -0.0346
-7 3 8 -1.3317 -0.0142
-7 3 9 -1.0042 0.0735
-7 3 10 0.3815 0.0328
-7 3 11 2.5386 0.0142
-7 3 12 -0.7737 -0.0887
-7 4 1 -3.8574 0.3592
-7 4 2 -0.8122 -0.3949
-7 4 3 2.5373 0.1250
-7 4 4 1.5697 0.1178
-7 4 5 1.5528 -0.0604
-7 4 6 -0.0109 0.0448
-7 4 7 -3.2156 -0.0628
-7 4 8 -1.4176 -0.0007
-7 4 9 1.7707 0.0599
-7 4 10 -0.1437 0.0250
-7 4 11 1.5220 -0.0281
-7 4 12 -0.0481 -0.1183
-7 5 1 -1.3212 0.3243
-7 5 2 -0.7191 -0.3036
-7 5 3 4.0325 0.0796
-7 5 4 1.0176 0.1385
-7 5 5 0.0843 0.0047
-7 5 6 -2.0375 -0.0266
-7 5 7 -1.3284 -0.0808
-7 5 8 -0.6872 0.0102
-7 5 9 0.7483 0.0602
-7 5 10 2.5755 -0.0307
-7 5 11 -1.1935 0.0499
-7 5 12 0.3200 -0.1824
-7 6 1 -0.0616 0.0777
-7 6 2 1.3714 -0.1229
-7 6 3 1.2542 0.1262
-7 6 4 2.0825 0.1112
-7 6 5 -1.9966 -0.0704
-7 6 6 -1.9828 -0.0114
-7 6 7 -0.8006 -0.0592
-7 6 8 0.8231 -0.0990
-7 6 9 1.4271 0.1890
-7 6 10 -0.0290 -0.0186
-7 6 11 1.0588 -0.1565
-7 7 1 -1.0969 -0.2199
-7 7 2 3.5377 0.0809
-7 7 3 0.3875 0.1364
-7 7 4 -1.1079 0.0492
-7 7 5 -0.1950 -0.1055
-7 7 6 -2.2985 -0.0679
-7 7 7 0.2701 -0.0174
-7 7 8 1.4008 -0.0089
-7 7 9 0.8013 0.0577
-7 7 10 0.0251 0.1232
-7 8 1 0.7826 -0.2124
-7 8 2 1.2996 0.1446
-7 8 3 -0.1782 0.0778
-7 8 4 -0.2768 -0.0316
-7 8 5 -1.8683 -0.0576
-7 8 6 -0.0157 -0.1122
-7 8 7 0.4955 0.0035
-7 8 8 0.9663 0.0439
-6 -12 1 2.0194 0.6493
-6 -12 2 0.7897 -0.4625
-6 -11 1 3.0979 0.4416
-6 -11 2 -1.3593 -0.1965
-6 -11 3 -0.1390 0.0520
-6 -11 4 -1.9344 0.0032
-6 -10 1 -0.0734 0.3880
-6 -10 2 -1.6876 -0.2625
-6 -10 3 -0.6467 0.1343
-6 -10 4 -1.7472 0.1064
-6 -10 5 0.7995 -0.2461
-6 -10 6 1.7432 0.1666
-6 -9 1 1.4062 0.2457
-6 -9 2 -3.6028 -0.2063
-6 -9 3 -2.0815 0.1148
-6 -9 4 1.1090 0.0329
-6 -9 5 0.8651 -0.0730
-6 -9 6 1.0156 -0.0830
-6 -9 7 0.2102 0.1923
-6 -8 1 -3.0680 -0.1607
-6 -8 2 -0.9427 0.0987
-6 -8 3 -2.5709 0.0171
-6 -8 4 1.2326 -0.1374
-6 -8 5 3.0252 0.1159
-6 -8 6 0.2657 -0.0340
-6 -8 7 -1.8699 -0.0658
-6 -8 8 0.7297 0.1088
-6 -7 1 -4.8297 -0.4974
-6 -7 2 -2.9406 0.2664
-6 -7 3 1.9844 -0.0295
-6 -7 4 0.7386 -0.1216
-6 -7 5 2.9373 0.0535
-6 -7 6 -0.8507 0.0626
-6 -7 7 -1.2576 -0.0210
-6 -7 8 -1.3088 -0.0932
-6 -7 9 0.5417 0.1853
-6 -6 1 -3.2447 -0.5540
-6 -6 2 -3.0020 0.3097
-6 -6 3 3.0740 -0.1068
-6 -6 4 3.9730 -0.0475
-6 -6 5 -1.3301 0.1130
-6 -6 6 0.1696 -0.0559
-6 -6 7 -2.0606 0.0108
-6 -6 8 -1.3772 0.0922
-6 -6 9 2.1265 -0.2077
-6 -6 10 0.5458 0.2370
-6 -5 1 -0.9637 -0.4488
-6 -5 2 0.6160 0.3482
-6 -5 3 2.8078 -0.1702
-6 -5 4 2.6473 -0.0307
-6 -5 5 0.4472 0.1986
-6 -5 6 -4.4814 -0.1309
-6 -5 7 0.0380 -0.0162
-6 -5 8 0.9322 0.0991
-6 -5 9 -0.5652 -0.0588
-6 -5 10 3.7084 -0.1338
-6 -5 11 -2.6010 0.2480
-6 -4 1 -2.7265 -0.1862
-6 -4 2 5.6938 0.2377
-6 -4 3 2.9999 -0.1197
-6 -4 4 -0.5852 -0.0096
-6 -4 5 -0.2503 0.1111
-6 -4 6 -3.6291 -0.0584
-6 -4 7 -0.6508 -0.0318
-6 -4 8 2.1065 0.0299
-6 -4 9 2.5059 -0.0347
-6 -4 10 -2.1921 0.0078
-6 -4 11 1.8769 -0.0641
-6 -4 12 -3.2082 0.1449
-6 -3 1 0.4276 0.1921
-6 -3 2 3.0677 -0.0490
-6 -3 3 5.4370 -0.0120
-6 -3 4 -3.2109 0.0553
-6 -3 5 -3.9119 -0.0194
-6 -3 6 0.3206 -0.0339
-6 -3 7 -0.1029 0.0116
-6 -3 8 1.2060 0.0356
-6 -3 9 3.2719 -0.1266
-6 -3 10 -1.4209 0.0819
-6 -3 11 -3.5339 -0.0042
-6 -3 12 2.6685 0.0036
-6 -2 1 7.2788 0.5244
-6 -2 2 1.7713 -0.3074
-6 -2 3 -0.2577 0.0573
-6 -2 4 -1.1114 0.0894
-6 -2 5 -4.3542 -0.0798
-6 -2 6 -1.4278 -0.0069
-6 -2 7 5.1011 0.0288
-6 -2 8 0.1271 -0.0140
-6 -2 9 0.2167 -0.0624
-6 -2 10 -0.7144 0.0229
-6 -2 11 -1.7718 0.0684
-6 -2 12 -1.1945 -0.0580
-6 -2 13 2.4525 0.0889
-6 -1 1 3.8318 0.5843
-6 -1 2 5.2992 -0.4027
-6 -1 3 -6.1867 0.1234
-6 -1 4 -2.4337 0.0469
-6 -1 5 -0.5377 -0.1013
-6 -1 6 -0.2825 0.0966
-6 -1 7 3.0732 -0.0433
-6 -1 8 3.2867 -0.0709
-6 -1 9 -3.3751 0.0600
-6 -1 10 -1.4509 -0.0315
-6 -1 11 -0.1237 0.0420
-6 -1 12 -0.1327 0.0589
-6 -1 13 1.2929 -0.0438
-6 0 1 0.6045 0.3936
-6 0 2 -0.6051 -0.3395
-6 0 3 -1.4078 0.1603
-6 0 4 -6.6251 0.0081
-6 0 5 1.1826 -0.1098
-6 0 6 5.6946 0.1423
-6 0 7 -0.8447 -0.0617
-6 0 8 0.7277 -0.1044
-6 0 9 0.2075 0.0744
-6 0 10 -5.3484 0.0200
-6 0 11 2.1932 0.0462
-6 0 12 1.0587 -0.0003
-6 0 13 0.6688 0.0005
-6 1 1 1.5256 0.1114
-6 1 2 -6.1296 -0.1865
-6 1 3 -2.8231 0.1069
-6 1 4 0.4403 0.0282
-6 1 5 -0.2678 -0.0744
-6 1 6 4.4198 0.0588
-6 1 7 3.0431 -0.0178
-6 1 8 -4.2977 -0.0885
-6 1 9 -1.7455 0.0639
-6 1 10 0.7120 0.0232
-6 1 11 -1.6322 0.1059
-6 1 12 3.2380 -0.1006
-6 1 13 0.7121 0.0571
-6 1 14 -1.6633 -0.1475
-6 2 1 0.2337 -0.2472
-6 2 2 -3.7460 0.0724
-6 2 3 -5.2150 0.0040
-6 2 4 2.7960 -0.0123
-6 2 5 5.2042 0.0414
-6 2 6 0.0098 -0.0215
-6 2 7 0.0146 -0.0419
-6 2 8 -0.6926 -0.0248
-6 2 9 -4.7774 0.0837
-6 2 10 1.0526 0.0069
-6 2 11 3.4774 0.0637
-6 2 12 -1.6298 -0.0755
-6 2 13 2.1225 0.0006
-6 2 14 -1.6287 -0.1072
-6 3 1 -9.6283 -0.4875
-6 3 2 1.0572 0.2638
-6 3 3 -0.9136 -0.0821
-6 3 4 1.5054 -0.0242
-6 3 5 4.7883 0.0981
-6 3 6 1.7993 -0.0528
-6 3 7 -4.7630 -0.0450
-6 3 8 -1.3990 0.0115
-6 3 9 -0.4092 0.0544
-6 3 10 0.0617 0.0603
-6 3 11 2.5160 -0.0372
-6 3 12 1.0537 -0.0470
-6 3 13 -1.6367 -0.0285
-6 3 14 -0.2350 -0.0545
-6 4 1 -1.5755 -0.5038
-6 4 2 -5.1300 0.3035
-6 4 3 5.3337 -0.1420
-6 4 4 2.8186 0.0351
-6 4 5 1.5008 0.1195
-6 4 6 -1.0568 -0.1168
-6 4 7 -2.3683 -0.0165
-6 4 8 -3.5244 0.0562
-6 4 9 1.9707 -0.0130
-6 4 10 1.8318 0.0699
-6 4 11 0.3177 -0.0353
-6 4 12 1.2665 -0.0975
-6 4 13 -1.9010 0.0233
-6 4 14 -0.6882 -0.0354
-6 5 1 -1.7511 -0.3706
-6 5 2 1.3704 0.2980
-6 5 3 1.4918 -0.1469
-6 5 4 5.0124 0.0444
-6 5 5 -1.0958 0.1319
-6 5 6 -3.3206 -0.1220
-6 5 7 -1.7869 -0.0598
-6 5 8 -0.4038 0.0743
-6 5 9 0.4588 0.0180
-6 5 10 3.7885 0.0017
-6 5 11 -0.5859 -0.0267
-6 5 12 -1.2799 -0.0399
-6 5 13 0.3475 -0.0567
-6 5 14 -1.1937 0.1164
-6 6 1 -1.0447 -0.1852
-6 6 2 2.8815 0.1708
-6 6 3 2.6850 0.0063
-6 6 4 1.0746 0.0150
-6 6 5 -1.5231 0.0307
-6 6 6 -3.3660 -0.0881
-6 6 7 -1.3198 -0.0407
-6 6 8 1.2458 0.0626
-6 6 9 2.7084 -0.0265
-6 6 10 -0.7175 0.0763
-6 6 11 2.1695 -0.0589
-6 6 12 -3.0951 -0.0738
-6 6 13 -0.0323 0.0615
-6 7 1 2.4197 0.1843
-6 7 2 1.4440 -0.0958
-6 7 3 2.5299 0.1025
-6 7 4 -1.3135 0.0526
-6 7 5 -2.2277 -0.0556
-6 7 6 -1.7277 -0.1273
-6 7 7 -0.2671 -0.0144
-6 7 8 1.7869 0.1418
-6 7 9 2.3128 -0.0629
-6 7 10 0.0988 0.0450
-6 7 11 -2.6434 -0.0149
-6 7 12 1.8368 -0.0953
-6 7 13 -2.3829 0.1123
-6 8 1 0.7667 0.4206
-6 8 2 1.6007 -0.2444
-6 8 3 0.9549 0.1228
-6 8 4 -1.7313 0.0115
-6 8 5 -2.7071 -0.0989
-6 8 6 0.1335 -0.0589
-6 8 7 1.0943 -0.0254
-6 8 8 1.3751 0.1409
-6 8 9 0.9433 0.0287
-6 8 10 -0.5742 -0.0809
-6 8 11 -1.0560 0.0666
-6 8 12 -0.9648 -0.1538
-6 9 1 2.4275 0.3874
-6 9 2 -0.6037 -0.1357
-6 9 3 0.3382 0.0274
-6 9 4 -2.1316 0.0161
-6 9 5 -0.2854 -0.1967
-6 9 6 -0.4113 0.0609
-6 9 7 1.8296 0.1106
-6 9 8 1.0940 -0.0649
-6 9 9 -0.3061 0.0989
-6 9 10 -1.2450 0.0381
-6 10 4 0.0202 -0.1506
-6 10 5 -0.4790 -0.0791
-6 10 6 0.6769 0.1309
-6 10 7 1.0514 -0.0657
-6 10 8 0.2544 0.2552
-5 -13 1 2.0204 -0.5156
-5 -12 1 0.9202 -0.6472
-5 -12 2 2.7757 0.2172
-5 -12 3 -2.4773 0.2475
-5 -11 1 0.3389 -0.4499
-5 -11 2 -0.2765 0.3494
-5 -11 3 0.2506 -0.1981
-5 -11 4 -3.7255 0.0702
-5 -11 5 1.1221 0.1300
-5 -10 1 1.6965 -0.4157
-5 -10 2 -1.6493 0.4128
-5 -10 3 -5.2410 -0.1060
-5 -10 4 3.9983 -0.1513
-5 -10 5 -3.0563 0.1631
-5 -10 6 2.6352 0.0470
-5 -10 7 1.5716 -0.2672
-5 -9 1 0.9660 -0.0359
-5 -9 2 -2.4357 0.0940
-5 -9 3 -3.4723 -0.0138
-5 -9 4 -0.2773 0.0085
-5 -9 5 4.3351 -0.0590
-5 -9 6 -0.6223 -0.0283
-5 -9 7 0.5646 0.1752
-5 -9 8 -0.9708 -0.2739
-5 -8 1 -4.5945 0.4346
-5 -8 2 -2.5931 -0.1985
-5 -8 3 -1.2712 -0.0210
-5 -8 4 1.7960 0.0828
-5 -8 5 2.1767 -0.0396
-5 -8 6 1.5144 -0.0621
-5 -8 7 -1.2526 0.0132
-5 -8 8 -2.3741 0.1747
-5 -8 9 0.5250 -0.3071
-5 -7 1 -4.4631 0.6297
-5 -7 2 -5.7691 -0.3636
-5 -7 3 3.2608 0.0660
-5 -7 4 3.1832 0.0471
-5 -7 5 0.4495 -0.0915
-5 -7 6 1.6856 0.0928
-5 -7 7 -3.2850 -0.0300
-5 -7 8 -2.0231 -0.0468
-5 -7 9 2.1048 0.1752
-5 -7 10 -0.4509 -0.2553
-5 -6 1 -2.9032 0.6000
-5 -6 2 -1.3624 -0.4777
-5 -6 3 1.0143 0.2027
-5 -6 4 6.4267 0.0317
-5 -6 5 0.2523 -0.1466
-5 -6 6 -3.5514 0.1368
-5 -6 7 -0.7422 0.0469
-5 -6 8 -1.2413 -0.1380
-5 -6 9 0.5186 0.0529
-5 -6 10 3.2378 0.1385
-5 -6 11 -1.1524 -0.2765
-5 -5 1 -3.6636 0.3902
-5 -5 2 4.4736 -0.3936
-5 -5 3 3.2555 0.2031
-5 -5 4 2.1204 0.0463
-5 -5 5 1.0975 -0.1099
-5 -5 6 -4.8099 0.0875
-5 -5 7 -2.6209 0.0257
-5 -5 8 2.6740 -0.0801
-5 -5 9 1.0140 0.0408
-5 -5 10 1.0072 -0.0534
-5 -5 11 0.6173 0.0807
-5 -5 12 -1.9740 -0.1302
-5 -4 1 -4.2797 0.0090
-5 -4 2 5.5507 -0.0956
-5 -4 3 7.2586 0.0947
-5 -4 4 -1.1831 0.0308
-5 -4 5 -4.1498 -0.0450
-5 -4 6 -0.5773 0.0579
-5 -4 7 -3.2175 -0.0515
-5 -4 8 2.8536 -0.0325
-5 -4 9 4.2122 0.0648
-5 -4 10 -2.2983 -0.1016
-5 -4 11 0.4161 0.0705
-5 -4 12 -1.9282 -0.0614
-5 -3 1 7.6274 -0.3867
-5 -3 2 1.3989 0.2200
-5 -3 3 4.8110 0.0027
-5 -3 4 -0.2722 -0.0379
-5 -3 5 -7.0222 0.0151
-5 -3 6 -2.1964 0.0253
-5 -3 7 3.2373 -0.0660
-5 -3 8 1.7907 -0.0242
-5 -3 9 1.3422 0.0470
-5 -3 10 0.8949 -0.0246
-5 -3 11 -4.1040 -0.0420
-5 -3 12 -0.2843 0.1046
-5 -3 13 1.1839 -0.0813
-5 -2 1 7.3188 -0.6053
-5 -2 2 8.0657 0.4162
-5 -2 3 -4.3624 -0.1154
-5 -2 4 -2.1617 -0.0445
-5 -2 5 -4.0002 0.0731
-5 -2 6 -1.4840 -0.0741
-5 -2 7 3.1756 -0.0002
-5 -2 8 5.3558 0.0010
-5 -2 9 -2.7372 -0.0191
-5 -2 10 -0.4265 0.0203
-5 -2 11 -2.1237 0.0327
-5 -2 12 -1.4436 -0.0811
-5 -2 13 2.4759 0.1960
-5 -2 14 0.5296 -0.2381
-5 -1 1 2.4155 -0.5511
-5 -1 2 4.9118 0.4792
-5 -1 3 -1.9752 -0.2376
-5 -1 4 -9.9638 -0.0167
-5 -1 5 1.3706 0.1256
-5 -1 6 1.6096 -0.1310
-5 -1 7 2.4605 0.0103
-5 -1 8 3.8062 0.0574
-5 -1 9 -1.7581 -0.0525
-5 -1 10 -4.7822 -0.0105
-5 -1 11 1.1114 0.1045
-5 -1 12 -0.6524 -0.0571
-5 -1 13 2.0911 -0.0019
-5 -1 14 0.6312 0.0515
-5 0 1 3.7474 -0.3307
-5 0 2 -3.9390 0.3341
-5 0 3 -2.9564 -0.1962
-5 0 4 -5.0064 -0.0026
-5 0 5 -0.9952 0.1025
-5 0 6 6.0395 -0.1129
-5 0 7 3.8054 0.0298
-5 0 8 -2.4057 0.0405
-5 0 9 -0.4379 -0.0761
-5 0 10 -3.6481 0.0753
-5 0 11 -1.4136 0.0025
-5 0 12 4.5504 0.0193
-5 0 13 -0.4588 -0.0269
-5 0 14 0.5083 -0.0057
-5 1 1 5.4090 0.0355
-5 1 2 -6.4225 0.0227
-5 1 3 -7.8930 -0.0413
-5 1 4 1.9441 0.0075
-5 1 5 2.0800 0.0450
-5 1 6 3.1366 -0.0838
-5 1 7 4.4358 0.0524
-5 1 8 -3.1099 0.0038
-5 1 9 -5.8021 -0.0665
-5 1 10 1.7817 0.1089
-5 1 11 0.1382 -0.0208
-5 1 12 0.6359 0.0017
-5 1 13 3.5747 -0.0150
-5 1 14 -2.0384 -0.0163
-5 1 15 -1.5951 -0.0098
-5 2 1 -5.5693 0.4097
-5 2 2 -1.8062 -0.2355
-5 2 3 -5.7941 0.0406
-5 2 4 1.1153 0.0392
-5 2 5 7.5367 0.0128
-5 2 6 1.8486 -0.0616
-5 2 7 -1.1710 0.0201
-5 2 8 -2.5182 0.0123
-5 2 9 -3.3755 -0.0124
-5 2 10 -0.7573 0.0386
-5 2 11 3.9462 0.0320
-5 2 12 1.3964 -0.0435
-5 2 13 -0.8819 -0.0201
-5 2 14 -0.2937 0.0116
-5 2 15 -1.1019 -0.0482
-5 3 1 -5.2895 0.5543
-5 3 2 -6.8528 -0.3748
-5 3 3 3.4151 0.1354
-5 3 4 1.6547 0.0245
-5 3 5 5.2831 -0.0526
-5 3 6 2.3835 0.0462
-5 3 7 -4.7975 -0.0464
-5 3 8 -4.0700 -0.0126
-5 3 9 0.7113 0.0642
-5 3 10 0.0150 0.0115
-5 3 11 2.8699 -0.0129
-5 3 12 2.3137 -0.0108
-5 3 13 -2.7536 -0.0669
-5 3 14 -0.3233 0.0759
-5 3 15 -0.8227 -0.0878
-5 4 1 -2.1183 0.4636
-5 4 2 -4.6787 -0.3652
-5 4 3 3.5332 0.1952
-5 4 4 7.0880 -0.0038
-5 4 5 0.1476 -0.0783
-5 4 6 -1.2826 0.0781
-5 4 7 -2.5964 -0.0457
-5 4 8 -4.8009 -0.0270
-5 4 9 1.2329 0.0638
-5 4 10 4.6702 0.0254
-5 4 11 -0.1889 -0.0473
-5 4 12 0.1718 0.0027
-5 4 13 -0.2140 -0.0769
-5 4 14 -2.7485 0.0818
-5 4 15 1.0722 -0.0349
-5 5 1 -3.7849 0.2314
-5 5 2 2.9379 -0.2840
-5 5 3 2.2085 0.2279
-5 5 4 5.2053 -0.0035
-5 5 5 0.0294 -0.1088
-5 5 6 -4.8255 0.0780
-5 5 7 -3.5082 -0.0333
-5 5 8 0.5455 -0.0514
-5 5 9 1.4300 0.1143
-5 5 10 2.4732 -0.0376
-5 5 11 2.2286 -0.0339
-5 5 12 -2.7399 -0.0039
-5 5 13 -1.5196 -0.0020
-5 5 14 0.9717 -0.0262
-5 5 15 -0.8008 0.0642
-5 6 1 -0.9391 -0.0759
-5 6 2 3.6866 -0.0396
-5 6 3 4.9502 0.1060
-5 6 4 -1.0053 0.0080
-5 6 5 -0.1767 -0.0456
-5 6 6 -4.9853 -0.0121
-5 6 7 -2.6461 -0.0349
-5 6 8 3.0021 0.0097
-5 6 9 2.3287 0.0974
-5 6 10 1.5925 -0.0770
-5 6 11 -0.8077 0.0105
-5 6 12 -0.7926 -0.0325
-5 6 13 -2.3703 0.0049
-5 6 14 1.3533 0.0558
-5 6 15 0.5882 -0.0678
-5 7 1 0.9993 -0.3193
-5 7 2 2.5708 0.2228
-5 7 3 3.5338 -0.0494
-5 7 4 -1.0218 0.0144
-5 7 5 -4.9024 -0.0221
-5 7 6 -1.1214 -0.0641
-5 7 7 -0.6053 -0.0038
-5 7 8 2.9168 0.0373
-5 7 9 2.4829 0.0694
-5 7 10 0.5259 -0.0434
-5 7 11 -2.6766 -0.0571
-5 7 12 -0.3552 0.0603
-5 7 13 -0.5450 -0.0487
-5 7 14 0.5727 0.0236
-5 8 1 3.0154 -0.4462
-5 8 2 2.5477 0.3810
-5 8 3 -0.4022 -0.1240
-5 8 4 -1.6921 -0.0546
-5 8 5 -3.1055 0.0045
-5 8 6 -1.1995 -0.0459
-5 8 7 2.5881 0.0039
-5 8 8 2.1644 0.0590
-5 8 9 0.6899 0.0574
-5 8 10 -0.1634 -0.0430
-5 8 11 -2.3623 -0.0846
-5 8 12 -1.1486 0.0838
-5 8 13 1.6722 -0.0474
-5 8 14 0.2430 0.0507
-5 9 1 1.0297 -0.4191
-5 9 2 1.9390 0.3877
-5 9 3 -1.7369 -0.1735
-5 9 4 -1.9655 -0.0688
-5 9 5 -1.3184 0.0315
-5 9 6 -0.0082 -0.0653
-5 9 7 3.0240 0.0749
-5 9 8 1.6774 0.0956
-5 9 9 -1.3174 -0.0684
-5 9 10 -0.9792 -0.0256
-5 9 11 -0.6894 0.0386
-5 9 12 -0.8151 -0.1012
-5 9 13 1.4339 0.0834
-5 10 1 0.9328 -0.2003
-5 10 2 -0.5177 0.1410
-5 10 3 -0.2214 -0.1466
-5 10 4 -2.7641 0.0136
-5 10 5 0.5053 0.0042
-5 10 6 1.9855 -0.0552
-5 10 7 0.2352 0.1405
-5 10 8 1.2930 0.0411
-5 10 9 -0.9935 -0.1083
-5 10 10 -1.9607 0.0373
-5 10 11 -0.2511 -0.1294
-5 10 12 1.6787 0.2000
-5 11 2 -0.7078 -0.0354
-5 11 3 -0.9187 -0.0788
-5 11 4 -0.0796 -0.0014
-5 11 5 -0.1429 0.0353
-5 11 6 1.6914 0.0533
-5 11 7 0.6213 0.0038
-5 11 8 -1.0213 -0.0025
-5 11 9 -0.4571 0.0850
-5 11 10 -0.8150 -0.3055
-4 -13 1 2.3050 0.6631
-4 -13 2 1.1982 -0.4766
-4 -12 1 1.0094 0.5107
-4 -12 2 1.4915 -0.2068
-4 -12 3 -0.3113 0.0431
-4 -12 4 -2.5396 -0.0430
-4 -11 1 2.9842 0.4959
-4 -11 2 -2.2271 -0.4015
-4 -11 3 -0.4146 0.1784
-4 -11 4 -2.0998 0.1717
-4 -11 5 -0.2836 -0.3524
-4 -11 6 1.4436 0.2122
-4 -10 1 3.1751 0.2314
-4 -10 2 -3.1154 -0.2079
-4 -10 3 -2.5081 0.1253
-4 -10 4 -1.5096 -0.0030
-4 -10 5 1.9752 -0.0333
-4 -10 6 1.4443 -0.0243
-4 -10 7 0.1650 0.0554
-4 -9 1 -2.8729 -0.1600
-4 -9 2 -1.3758 0.0491
-4 -9 3 -3.9724 0.0808
-4 -9 4 -0.1683 -0.1145
-4 -9 5 4.1158 0.0283
-4 -9 6 0.6078 0.0507
-4 -9 7 0.2475 -0.0847
-4 -9 8 -1.8465 0.0339
-4 -8 1 -5.9090 -0.5019
-4 -8 2 -5.6616 0.2864
-4 -8 3 2.4437 -0.0514
-4 -8 4 -1.3764 -0.0692
-4 -8 5 4.8687 0.0440
-4 -8 6 1.9421 -0.0449
-4 -8 7 -4.1074 0.0438
-4 -8 8 0.5686 0.0105
-4 -8 9 -2.0122 -0.1190
-4 -8 10 1.3632 0.2155
-4 -7 1 -4.0763 -0.6733
-4 -7 2 -5.9377 0.5019
-4 -7 3 0.8746 -0.2250
-4 -7 4 6.7522 -0.0412
-4 -7 5 0.6102 0.1186
-4 -7 6 -0.6727 -0.0506
-4 -7 7 -1.2838 -0.0552
-4 -7 8 -3.4860 0.1080
-4 -7 9 1.5606 0.0133
-4 -7 10 1.2682 -0.1769
-4 -7 11 0.4747 0.2992
-4 -6 1 -6.1888 -0.5715
-4 -6 2 1.7239 0.4795
-4 -6 3 0.8706 -0.2562
-4 -6 4 5.6881 0.0038
-4 -6 5 3.0412 0.1196
-4 -6 6 -5.6371 -0.0669
-4 -6 7 -2.0361 0.0033
-4 -6 8 0.2637 0.0619
-4 -6 9 0.0888 -0.0490
-4 -6 10 2.9330 0.0475
-4 -6 11 0.1830 -0.0770
-4 -5 1 -7.7403 -0.2535
-4 -5 2 4.0198 0.2629
-4 -5 3 8.8897 -0.1598
-4 -5 4 -0.2719 0.0296
-4 -5 5 0.2115 0.0946
-4 -5 6 -3.2983 -0.0733
-4 -5 7 -5.0745 0.0329
-4 -5 8 3.1454 0.0256
-4 -5 9 2.6752 -0.0598
-4 -5 10 0.1599 0.0454
-4 -5 11 0.9329 -0.0686
-4 -5 12 -2.0747 0.0661
-4 -4 1 -0.6512 0.1752
-4 -4 2 3.1897 -0.0467
-4 -4 3 9.2040 -0.0304
-4 -4 4 1.2444 0.0822
-4 -4 5 -7.4063 0.0132
-4 -4 6 -2.3273 -0.0654
-4 -4 7 0.1085 0.0388
-4 -4 8 -0.0872 0.0169
-4 -4 9 6.5250 -0.0842
-4 -4 10 -1.3524 0.0166
-4 -4 11 -2.3543 0.0701
-4 -4 12 0.0845 -0.1610
-4 -4 13 -1.3243 0.1659
-4 -3 1 9.7190 0.5216
-4 -3 2 7.4265 -0.3190
-4 -3 3 -0.0730 0.1359
-4 -3 4 1.8664 0.0336
-4 -3 5 -7.9903 -0.0443
-4 -3 6 -4.6784 0.0052
-4 -3 7 4.6598 -0.0220
-4 -3 8 3.8260 -0.0230
-4 -3 9 -0.5196 0.0188
-4 -3 10 2.6366 -0.0159
-4 -3 11 -5.4937 -0.0452
-4 -3 12 -0.1588 0.1371
-4 -3 13 0.4339 -0.1857
-4 -3 14 1.4196 0.2069
-4 -2 1 6.8420 0.6349
-4 -2 2 11.1971 -0.4754
-4 -2 3 -2.5388 0.2851
-4 -2 4 -8.6622 -0.0376
-4 -2 5 -0.5486 -0.1075
-4 -2 6 -3.7624 0.0654
-4 -2 7 4.8257 -0.0162
-4 -2 8 5.3265 -0.0733
-4 -2 9 0.2996 0.0639
-4 -2 10 -5.5571 0.0076
-4 -2 11 0.9479 -0.0551
-4 -2 12 -2.3150 0.0937
-4 -2 13 1.5448 -0.0652
-4 -2 14 1.8616 0.0552
-4 -1 1 5.1400 0.4996
-4 -1 2 1.6658 -0.4576
-4 -1 3 -0.1399 0.3025
-4 -1 4 -10.6961 -0.0369
-4 -1 5 -4.2689 -0.1554
-4 -1 6 7.9902 0.0907
-4 -1 7 1.8410 -0.0000
-4 -1 8 2.1730 -0.0655
-4 -1 9 0.8179 0.0606
-4 -1 10 -6.0295 0.0068
-4 -1 11 -2.2856 -0.0101
-4 -1 12 4.1312 0.0012
-4 -1 13 -1.2867 0.0459
-4 -1 14 3.2391 -0.0584
-4 -1 15 -1.8808 0.0533
-4 0 1 12.6516 0.1535
-4 0 2 -8.9645 -0.2073
-4 0 3 -5.9945 0.1769
-4 0 4 -1.6328 -0.0399
-4 0 5 -4.0078 -0.1007
-4 0 6 6.6574 0.0773
-4 0 7 8.5381 -0.0298
-4 0 8 -4.7910 -0.0100
-4 0 9 -2.9634 0.0636
-4 0 10 -1.0475 -0.0419
-4 0 11 -2.5937 0.0077
-4 0 12 2.4991 0.0518
-4 0 13 4.4013 -0.0734
-4 0 14 -3.0946 0.0618
-4 0 15 1.0331 -0.0369
-4 1 1 0.9086 -0.2353
-4 1 2 -1.8321 0.1330
-4 1 3 -12.4873 -0.0047
-4 1 4 -0.2961 -0.0463
-4 1 5 7.0124 -0.0100
-4 1 6 3.9252 0.0430
-4 1 7 0.8971 -0.0438
-4 1 8 1.4079 -0.0001
-4 1 9 -9.1414 0.0821
-4 1 10 -0.1375 -0.0535
-4 1 11 2.2444 -0.0278
-4 1 12 2.8062 0.0815
-4 1 13 -0.2337 -0.0529
-4 1 14 1.2638 -0.0099
-4 1 15 -3.3562 0.0161
-4 2 1 -7.5254 -0.5325
-4 2 2 -6.1751 0.4034
-4 2 3 -1.7470 -0.1537
-4 2 4 -2.2629 -0.0237
-4 2 5 9.8868 0.0245
-4 2 6 4.5622 0.0037
-4 2 7 -2.7005 -0.0013
-4 2 8 -5.4677 -0.0140
-4 2 9 -0.4690 0.0280
-4 2 10 -3.9809 0.0169
-4 2 11 6.4448 -0.0385
-4 2 12 1.2725 0.0095
-4 2 13 -0.2863 0.0357
-4 2 14 -1.4782 -0.0795
-4 2 15 -0.8739 0.0893
-4 2 16 -0.8457 -0.1016
-4 3 1 -5.0048 -0.5720
-4 3 2 -10.2343 0.4508
-4 3 3 2.7834 -0.2086
-4 3 4 6.9398 0.0029
-4 3 5 2.0584 0.0449
-4 3 6 4.6962 -0.0448
-4 3 7 -5.4672 0.0209
-4 3 8 -5.5338 0.0269
-4 3 9 -1.9065 -0.0444
-4 3 10 5.2108 0.0438
-4 3 11 -0.4173 -0.0093
-4 3 12 4.3170 -0.0207
-4 3 13 -2.4709 0.0108
-4 3 14 -2.6856 -0.0021
-4 3 15 0.5672 -0.0278
-4 3 16 0.3644 0.0462
-4 4 1 -4.9805 -0.3958
-4 4 2 -0.7480 0.3646
-4 4 3 -0.2595 -0.2207
-4 4 4 10.0574 0.0193
-4 4 5 2.7014 0.0827
-4 4 6 -4.5352 -0.0893
-4 4 7 -3.4695 0.0236
-4 4 8 -3.7642 0.0439
-4 4 9 0.1684 -0.0368
-4 4 10 4.3952 0.0171
-4 4 11 4.0905 -0.0061
-4 4 12 -3.6919 0.0035
-4 4 13 0.7143 -0.0180
-4 4 14 -2.3692 0.0174
-4 4 15 -0.7200 -0.0439
-4 4 16 2.6013 0.0699
-4 5 1 -5.6174 -0.0494
-4 5 2 3.7468 0.1190
-4 5 3 5.0651 -0.1314
-4 5 4 3.0492 0.0501
-4 5 5 2.6131 0.0389
-4 5 6 -7.2114 -0.0781
-4 5 7 -4.6019 0.0406
-4 5 8 0.8803 0.0141
-4 5 9 2.1321 -0.0177
-4 5 10 3.5442 0.0232
-4 5 11 1.5707 -0.0153
-4 5 12 -1.7997 -0.0236
-4 5 13 -3.4468 0.0422
-4 5 14 0.8091 -0.0440
-4 5 15 1.0737 0.0223
-4 5 16 -0.2472 -0.0080
-4 6 1 -0.9835 0.3005
-4 6 2 2.4677 -0.1517
-4 6 3 7.4793 -0.0092
-4 6 4 0.7912 0.0731
-4 6 5 -5.2746 -0.0140
-4 6 6 -1.5941 -0.0679
-4 6 7 -5.4291 0.0444
-4 6 8 3.0796 0.0177
-4 6 9 5.0968 -0.0204
-4 6 10 1.1710 0.0353
-4 6 11 -1.5140 -0.0405
-4 6 12 -1.3595 -0.0111
-4 6 13 -1.2280 0.0620
-4 6 14 -1.3030 -0.0850
-4 6 15 3.4361 0.0684
-4 6 16 -0.0936 -0.0307
-4 7 1 2.1296 0.5318
-4 7 2 4.4614 -0.3249
-4 7 3 1.9101 0.1112
-4 7 4 0.4086 0.0295
-4 7 5 -6.0584 -0.0661
-4 7 6 -4.0618 0.0028
-4 7 7 3.3779 0.0121
-4 7 8 0.1589 0.0124
-4 7 9 5.4815 0.0093
-4 7 10 -0.4529 0.0133
-4 7 11 -2.1355 -0.0259
-4 7 12 -3.2945 -0.0345
-4 7 13 1.8070 0.0435
-4 7 14 0.0624 0.0415
-4 7 15 0.9307 -0.1422
-4 7 16 0.5500 0.1613
-4 8 1 2.8864 0.4835
-4 8 2 4.2320 -0.3372
-4 8 3 -1.0888 0.2003
-4 8 4 -2.5502 -0.0476
-4 8 5 -3.3004 -0.1038
-4 8 6 -1.9181 0.0584
-4 8 7 2.4989 0.0315
-4 8 8 5.3507 -0.0164
-4 8 9 -0.9893 0.0305
-4 8 10 -0.5708 -0.0186
-4 8 11 -1.8994 -0.0158
-4 8 12 -2.0652 -0.0212
-4 8 13 1.4438 0.0424
-4 8 14 1.2890 -0.0183
-4 8 15 0.8646 -0.0084
-4 9 1 1.7750 0.3510
-4 9 2 1.8430 -0.3676
-4 9 3 -1.0930 0.2218
-4 9 4 -4.3175 -0.0429
-4 9 5 -1.3701 -0.1282
-4 9 6 1.5578 0.0881
-4 9 7 2.8587 0.0331
-4 9 8 1.1126 -0.0051
-4 9 9 1.9323 0.0422
-4 9 10 -5.2871 -0.1063
-4 9 11 0.0525 0.0415
-4 9 12 0.5107 0.0009
-4 9 13 -0.0027 0.0103
-4 9 14 2.2245 -0.0217
-4 9 15 -0.7377 0.0069
-4 10 1 1.8603 0.1594
-4 10 2 -0.8425 -0.1532
-4 10 3 -2.1905 0.0497
-4 10 4 -0.9589 -0.0500
-4 10 5 -1.3112 0.0017
-4 10 6 2.8857 0.0437
-4 10 7 1.8150 0.0089
-4 10 8 1.5573 0.0335
-4 10 9 -3.9380 -0.0240
-4 10 10 0.6092 -0.0649
-4 10 11 -2.2923 0.0157
-4 10 12 1.6289 0.0068
-4 10 13 2.0005 0.0805
-4 10 14 -0.9506 -0.1291
-4 11 1 0.4768 -0.3557
-4 11 2 -0.8133 0.2209
-4 11 3 -2.0833 -0.0720
-4 11 4 0.0313 -0.0734
-4 11 5 0.6036 0.0686
-4 11 6 1.8302 0.0386
-4 11 7 1.6110 0.0321
-4 11 8 -2.4780 -0.0626
-4 11 9 0.5883 -0.0024
-4 11 10 -3.0785 -0.0232
-4 11 11 1.7046 0.0130
-4 11 12 1.2789 -0.0197
-4 12 2 -0.1340 -0.0215
-4 12 3 -0.9466 -0.0169
-4 12 4 -0.3001 0.0198
-4 12 5 1.9349 0.0479
-4 12 6 0.3024 -0.0230
-4 12 7 -0.0591 0.0495
-4 12 8 -0.4826 -0.0218
-4 12 9 -2.5260 -0.1710
-4 12 10 1.8800 0.2701
-3 -13 1 0.8791 -0.6944
-3 -13 2 1.8357 0.2940
-3 -13 3 0.2143 0.2752
-3 -12 1 1.3827 -0.4620
-3 -12 2 1.1062 0.3788
-3 -12 3 -0.2604 -0.3239
-3 -12 4 -2.5555 0.3328
-3 -11 1 4.2353 -0.4014
-3 -11 2 -1.5662 0.3796
-3 -11 3 -2.4071 -0.0758
-3 -11 4 -0.3437 -0.2265
-3 -11 5 -1.6711 0.2158
-3 -11 6 2.5447 0.0161
-3 -10 1 1.9493 -0.0328
-3 -10 2 0.4645 0.0757
-3 -10 3 -7.0861 -0.0641
-3 -10 4 1.4030 0.0378
-3 -10 5 1.1070 -0.0340
-3 -10 6 1.1776 -0.0508
-3 -10 7 1.2716 0.1801
-3 -9 1 -3.7115 0.4093
-3 -9 2 -3.4935 -0.2055
-3 -9 3 -1.1437 -0.0513
-3 -9 4 -2.2172 0.1550
-3 -9 5 4.5386 -0.1188
-3 -9 6 1.8558 0.0258
-3 -9 7 -0.9435 -0.0022
-3 -9 8 -1.0645 0.1022
-3 -9 9 -1.2963 -0.2223
-3 -8 1 -1.3994 0.6133
-3 -8 2 -8.4889 -0.3742
-3 -8 3 -0.6559 0.1076
-3 -8 4 5.3787 0.0240
-3 -8 5 -0.1979 -0.0794
-3 -8 6 3.3781 0.1041
-3 -8 7 -1.8089 -0.0759
-3 -8 8 -3.7277 -0.0299
-3 -8 9 0.8936 0.1794
-3 -8 10 0.5946 -0.2813
-3 -7 1 -4.2561 0.5975
-3 -7 2 -3.4053 -0.5130
-3 -7 3 -2.2259 0.2803
-3 -7 4 8.3452 -0.0104
-3 -7 5 2.3312 -0.1402
-3 -7 6 -2.7835 0.1004
-3 -7 7 -1.2314 0.0629
-3 -7 8 -2.2195 -0.1481
-3 -7 9 -0.7221 0.0772
-3 -7 10 3.4012 0.1501
-3 -7 11 0.0359 -0.3105
-3 -6 1 -10.3117 0.4049
-3 -6 2 2.2130 -0.3916
-3 -6 3 4.6291 0.2259
-3 -6 4 2.5841 -0.0071
-3 -6 5 4.3614 -0.0694
-3 -6 6 -4.5652 0.0375
-3 -6 7 -4.7125 0.0217
-3 -6 8 0.7607 0.0022
-3 -6 9 2.0709 0.0057
-3 -6 10 0.6618 -0.0478
-3 -6 11 2.1336 0.1423
-3 -6 12 -2.0705 -0.2409
-3 -5 1 -7.6909 -0.0027
-3 -5 2 1.5490 -0.0891
-3 -5 3 11.3799 0.1294
-3 -5 4 2.3638 -0.0498
-3 -5 5 -4.5448 -0.0118
-3 -5 6 -0.7506 0.0453
-3 -5 7 -5.7414 0.0025
-3 -5 8 1.7496 -0.0428
-3 -5 9 4.2876 0.0539
-3 -5 10 1.3912 0.0034
-3 -5 11 -2.0133 -0.1219
-3 -5 12 0.2674 0.1128
-3 -5 13 -1.6975 -0.0842
-3 -4 1 5.3129 -0.4377
-3 -4 2 2.9812 0.2891
-3 -4 3 6.5064 -0.0416
-3 -4 4 5.3751 -0.0665
-3 -4 5 -8.3144 0.0645
-3 -4 6 -7.3819 -0.0014
-3 -4 7 4.6501 -0.0219
-3 -4 8 -0.3020 0.0071
-3 -4 9 4.1040 -0.0129
-3 -4 10 1.8158 -0.0062
-3 -4 11 -3.3498 -0.0259
-3 -4 12 -1.8610 -0.0085
-3 -4 13 0.7823 -0.0004
-3 -3 1 6.9868 -0.6643
-3 -3 2 15.4976 0.4805
-3 -3 3 -1.6142 -0.1765
-3 -3 4 -3.4589 0.0003
-3 -3 5 -2.9115 0.0511
-3 -3 6 -6.9222 -0.0459
-3 -3 7 1.4262 -0.0046
-3 -3 8 9.8387 0.0265
-3 -3 9 -2.4548 -0.0645
-3 -3 10 0.6657 0.0268
-3 -3 11 -2.7721 0.0035
-3 -3 12 -2.3233 -0.0753
-3 -3 13 1.1535 0.1768
-3 -3 14 1.6378 -0.1928
-3 -2 1 3.3900 -0.6064
-3 -2 2 9.5616 0.5257
-3 -2 3 5.3302 -0.2999
-3 -2 4 -16.0020 0.0612
-3 -2 5 -2.6956 0.0886
-3 -2 6 1.9654 -0.1274
-3 -2 7 2.0035 0.0082
-3 -2 8 5.6169 0.0660
-3 -2 9 2.5487 -0.0674
-3 -2 10 -7.3286 -0.0015
-3 -2 11 0.2502 0.0341
-3 -2 12 -1.7779 0.0233
-3 -2 13 2.3107 -0.0792
-3 -2 14 0.8667 0.1729
-3 -2 15 0.8154 -0.1644
-3 -1 1 10.6539 -0.3422
-3 -1 2 -0.2206 0.3938
-3 -1 3 -5.4211 -0.2607
-3 -1 4 -3.9534 0.0548
-3 -1 5 -10.9341 0.0793
-3 -1 6 9.3410 -0.1160
-3 -1 7 6.4349 0.0087
-3 -1 8 0.3809 0.0639
-3 -1 9 -1.4998 -0.0500
-3 -1 10 -2.5452 0.0243
-3 -1 11 -5.9099 0.0122
-3 -1 12 5.2299 -0.0230
-3 -1 13 0.8299 0.0633
-3 -1 14 0.4096 -0.0358
-3 -1 15 0.2161 -0.0180
-3 0 1 13.3098 0.0536
-3 0 2 -3.5400 0.0867
-3 0 3 -13.7542 -0.0761
-3 0 4 -3.3657 0.0219
-3 0 5 3.6180 0.0193
-3 0 6 1.3161 -0.0469
-3 0 7 10.2464 -0.0080
-3 0 8 -0.4961 0.0638
-3 0 9 -8.5250 -0.0343
-3 0 10 -0.9918 0.0167
-3 0 11 0.4991 0.0113
-3 0 12 -0.3773 -0.0324
-3 0 13 5.8081 0.0560
-3 0 14 -1.8025 -0.0519
-3 0 15 -1.4999 0.0546
-3 0 16 -0.3149 -0.0900
-3 1 1 -5.5761 0.4731
-3 1 2 -0.1142 -0.2498
-3 1 3 -12.3781 0.1170
-3 1 4 -3.7648 -0.0053
-3 1 5 9.1964 -0.0373
-3 1 6 7.6050 -0.0140
-3 1 7 -1.0106 0.0176
-3 1 8 -0.1494 0.0461
-3 1 9 -6.8823 -0.0411
-3 1 10 -4.4210 0.0055
-3 1 11 5.9310 0.0300
-3 1 12 1.6644 -0.0298
-3 1 13 0.2417 -0.0378
-3 1 14 1.2688 0.1277
-3 1 15 -3.7214 -0.1521
-3 1 16 -0.0671 0.0751
-3 2 1 -7.3655 0.7066
-3 2 2 -13.6775 -0.4366
-3 2 3 1.6843 0.2377
-3 2 4 -0.4555 -0.0637
-3 2 5 7.2266 -0.0626
-3 2 6 9.0000 0.0421
-3 2 7 -3.6576 -0.0137
-3 2 8 -8.3823 0.0362
-3 2 9 -0.7672 -0.0031
-3 2 10 -0.9556 -0.0506
-3 2 11 2.0434 0.0450
-3 2 12 6.4760 -0.0142
-3 2 13 -2.4193 -0.0176
-3 2 14 -2.3656 0.0344
-3 2 15 -0.6870 -0.0152
-3 2 16 0.2645 -0.0415
-3 3 1 -2.5755 0.6324
-3 3 2 -9.8536 -0.4581
-3 3 3 -2.2883 0.2647
-3 3 4 12.5643 -0.0815
-3 3 5 3.6879 -0.1132
-3 3 6 0.7967 0.1076
-3 3 7 -2.5233 -0.0261
-3 3 8 -8.5268 0.0014
-3 3 9 -2.6541 0.0215
-3 3 10 6.4426 -0.0503
-3 3 11 2.3780 0.0282
-3 3 12 0.2593 -0.0126
-3 3 13 1.0726 0.0369
-3 3 14 -4.9719 -0.0519
-3 3 15 0.3966 0.0646
-3 3 16 0.5472 -0.1146
-3 3 17 1.8173 0.1385
-3 4 1 -9.3930 0.3488
-3 4 2 1.2285 -0.2995
-3 4 3 1.7167 0.1219
-3 4 4 8.0125 -0.0228
-3 4 5 6.5965 -0.1031
-3 4 6 -6.3528 0.0801
-3 4 7 -6.2757 0.0067
-3 4 8 -2.5318 -0.0215
-3 4 9 0.1400 0.0260
-3 4 10 4.3604 -0.0418
-3 4 11 5.4253 0.0154
-3 4 12 -2.6113 0.0242
-3 4 13 -3.0325 -0.0239
-3 4 14 -0.0119 0.0317
-3 4 15 -1.7491 -0.0194
-3 4 16 3.2240 -0.0744
-3 4 17 -0.0712 0.1568
-3 5 1 -6.7362 -0.1097
-3 5 2 1.3788 0.0052
-3 5 3 11.2195 -0.0354
-3 5 4 0.4292 -0.0417
-3 5 5 2.1788 0.0081
-3 5 6 -5.4185 0.0428
-3 5 7 -8.5205 -0.0216
-3 5 8 0.7414 0.0011
-3 5 9 6.0087 0.0371
-3 5 10 1.8298 -0.0564
-3 5 11 1.4514 0.0196
-3 5 12 0.1308 0.0424
-3 5 13 -6.5587 -0.0495
-3 5 14 1.6311 0.0323
-3 5 15 1.4871 0.0121
-3 5 16 0.1991 -0.1164
-3 5 17 1.8270 0.1776
-3 6 1 -0.3258 -0.5243
-3 6 2 3.2873 0.2842
-3 6 3 6.6987 -0.1391
-3 6 4 3.9424 -0.0234
-3 6 5 -7.9833 0.0382
-3 6 6 -3.8463 0.0264
-3 6 7 -2.7230 0.0050
-3 6 8 1.1016 -0.0285
-3 6 9 6.3663 0.0233
-3 6 10 3.3693 0.0127
-3 6 11 -3.1894 -0.0403
-3 6 12 -2.8128 0.0383
-3 6 13 0.0266 0.0148
-3 6 14 -1.7683 -0.0649
-3 6 15 3.1616 0.0844
-3 6 16 1.6862 -0.1343
-3 6 17 -1.9490 0.1682
-3 7 1 4.4641 -0.6842
-3 7 2 5.3421 0.4272
-3 7 3 2.2057 -0.1965
-3 7 4 -1.4751 0.0002
-3 7 5 -4.0590 0.0833
-3 7 6 -7.7224 -0.0221
-3 7 7 4.2949 -0.0168
-3 7 8 3.0790 0.0511
-3 7 9 3.6128 -0.0352
-3 7 10 0.8244 0.0096
-3 7 11 -2.8743 -0.0083
-3 7 12 -3.4714 0.0112
-3 7 13 -0.4790 0.0036
-3 7 14 3.9385 -0.0006
-3 7 15 -1.2825 -0.0639
-3 7 16 2.1380 0.0812
-3 8 1 2.2536 -0.5673
-3 8 2 5.2161 0.3957
-3 8 3 0.4017 -0.1916
-3 8 4 -5.6037 0.0165
-3 8 5 -3.2184 0.1146
-3 8 6 -1.2976 -0.0996
-3 8 7 1.7432 0.0300
-3 8 8 7.5824 0.0727
-3 8 9 -1.4029 -0.0788
-3 8 10 -0.7794 0.0104
-3 8 11 -3.4053 0.0075
-3 8 12 -0.6176 0.0158
-3 8 13 -0.6499 -0.0463
-3 8 14 4.0660 0.0441
-3 8 15 0.0831 -0.0246
-3 8 16 -1.4324 -0.0584
-3 9 1 4.2003 -0.2015
-3 9 2 -0.6373 0.2025
-3 9 3 0.1722 -0.1408
-3 9 4 -5.3869 0.0470
-3 9 5 -2.5728 0.0693
-3 9 6 3.1888 -0.0792
-3 9 7 2.5119 0.0372
-3 9 8 2.6567 0.0365
-3 9 9 0.8955 -0.0128
-3 9 10 -4.8491 -0.0795
-3 9 11 -2.2792 0.0202
-3 9 12 1.8923 0.0950
-3 9 13 1.2857 -0.1005
-3 9 14 0.3667 -0.0422
-3 9 15 1.2433 0.1946
-3 9 16 -1.4574 -0.2717
-3 10 1 1.4712 0.0796
-3 10 2 -0.2133 -0.0010
-3 10 3 -3.5374 0.0064
-3 10 4 -1.3684 -0.0213
-3 10 5 -0.9323 0.0299
-3 10 6 2.5985 0.0100
-3 10 7 5.0299 0.0112
-3 10 8 -2.1944 -0.0135
-3 10 9 -0.9242 -0.0320
-3 10 10 -2.3250 0.0266
-3 10 11 -1.3098 -0.0620
-3 10 12 1.4452 0.0310
-3 10 13 2.6271 0.0985
-3 10 14 0.0243 -0.1453
-3 10 15 -1.4097 0.0269
-3 11 1 1.3707 0.3782
-3 11 2 -1.4810 -0.3475
-3 11 3 -1.8843 0.1811
-3 11 4 -2.2077 0.0101
-3 11 5 3.9613 -0.0693
-3 11 6 0.4409 0.0704
-3 11 7 1.4257 -0.0033
-3 11 8 0.8165 -0.0414
-3 11 9 -5.1967 -0.0063
-3 11 10 0.1020 -0.0371
-3 11 11 1.4072 0.0319
-3 11 12 0.5244 0.0937
-3 11 13 1.5109 -0.1894
-3 11 14 -0.1876 0.2375
-3 12 1 -1.5435 0.5718
-3 12 2 -0.4736 -0.3587
-3 12 3 -1.1808 0.1036
-3 12 4 0.6777 0.0674
-3 12 5 0.7500 -0.0588
-3 12 6 2.7194 0.0458
-3 12 7 -1.0436 -0.0541
-3 12 8 -2.4417 0.0199
-3 12 9 0.6490 -0.0093
-3 12 10 -2.4935 -0.1307
-3 12 11 2.9552 0.2720
-3 12 12 1.1221 -0.1724
-3 12 13 -0.3779 0.0220
-3 13 3 0.2314 0.2479
-3 13 4 1.3028 -0.0900
-3 13 5 0.0433 -0.0536
-3 13 6 0.5535 0.0859
-3 13 7 -0.2471 -0.0319
-3 13 8 -1.9128 -0.1063
-3 13 9 -0.8694 0.1381
-3 13 10 2.1753 -0.1227
-2 -13 1 0.3819 0.6165
-2 -13 2 2.9627 -0.2200
-2 -13 3 -1.7370 -0.1159
-2 -12 1 2.5322 0.4349
-2 -12 2 -0.0551 -0.3789
-2 -12 3 -0.0351 0.2919
-2 -12 4 -1.4481 -0.0954
-2 -12 5 -1.4652 -0.1706
-2 -11 1 5.2103 0.2907
-2 -11 2 -1.3180 -0.1936
-2 -11 3 -2.4655 0.0054
-2 -11 4 -1.3898 0.0089
-2 -11 5 0.0068 0.0971
-2 -11 6 1.2421 -0.3177
-2 -10 1 -2.0050 -0.1738
-2 -10 2 0.5728 0.0854
-2 -10 3 -3.6696 -0.0226
-2 -10 4 -2.5217 -0.1096
-2 -10 5 3.0628 0.0536
-2 -10 6 1.1217 0.0532
-2 -10 7 1.1527 -0.0954
-2 -10 8 -1.0707 0.1495
-2 -9 1 -0.5171 -0.5976
-2 -9 2 -6.9386 0.3030
-2 -9 3 0.4319 -0.0876
-2 -9 4 -1.7691 -0.0986
-2 -9 5 3.4074 0.0894
-2 -9 6 2.7043 -0.0107
-2 -9 7 -0.9294 0.0429
-2 -9 8 -1.8338 -0.0706
-2 -9 9 -0.6449 0.1148
-2 -8 1 -3.1276 -0.7279
-2 -8 2 -6.2905 0.4419
-2 -8 3 -2.6620 -0.2419
-2 -8 4 5.5327 0.0228
-2 -8 5 1.7437 0.1463
-2 -8 6 1.7230 -0.1498
-2 -8 7 -2.0937 0.0845
-2 -8 8 -2.3496 0.0595
-2 -8 9 -0.4226 -0.1766
-2 -8 10 0.7629 0.2023
-2 -7 1 -6.6888 -0.6068
-2 -7 2 -2.1674 0.4727
-2 -7 3 0.1775 -0.2537
-2 -7 4 3.7849 0.0238
-2 -7 5 6.2938 0.1518
-2 -7 6 -4.1126 -0.0900
-2 -7 7 -1.7678 -0.0247
-2 -7 8 -2.4305 0.0708
-2 -7 9 0.3911 0.0079
-2 -7 10 2.5127 -0.1252
-2 -7 11 0.5906 0.2274
-2 -6 1 -13.6774 -0.2570
-2 -6 2 0.9227 0.2405
-2 -6 3 7.8945 -0.0742
-2 -6 4 1.9094 0.0091
-2 -6 5 2.4960 0.0432
-2 -6 6 -2.1206 -0.0031
-2 -6 7 -6.9663 -0.0193
-2 -6 8 1.9769 0.0158
-2 -6 9 1.4016 -0.0037
-2 -6 10 1.8110 0.0666
-2 -6 11 1.1168 -0.1615
-2 -6 12 -1.3151 0.1958
-2 -5 1 -2.2186 0.2602
-2 -5 2 -3.0391 -0.0886
-2 -5 3 11.0268 0.0525
-2 -5 4 6.7126 0.0364
-2 -5 5 -7.1036 -0.0156
-2 -5 6 -3.1113 -0.0176
-2 -5 7 -1.5338 -0.0118
-2 -5 8 -1.9114 0.0914
-2 -5 9 6.9724 -0.1003
-2 -5 10 -0.0652 0.0190
-2 -5 11 -0.7687 0.0642
-2 -5 12 -1.0679 -0.1835
-2 -5 13 -1.4798 0.1674
-2 -4 1 8.0863 0.6648
-2 -4 2 8.9592 -0.3847
-2 -4 3 2.6291 0.1825
-2 -4 4 3.8182 0.0091
-2 -4 5 -4.7744 -0.0829
-2 -4 6 -9.4728 0.0549
-2 -4 7 2.6079 -0.0387
-2 -4 8 4.0387 0.0193
-2 -4 9 0.9339 0.0458
-2 -4 10 3.7221 -0.1289
-2 -4 11 -4.3519 0.0396
-2 -4 12 -2.0439 0.0712
-2 -4 13 1.1873 -0.1817
-2 -4 14 -0.2913 0.1987
-2 -3 1 -1.7931 0.8038
-2 -3 2 19.3198 -0.5659
-2 -3 3 2.4131 0.2744
-2 -3 4 -8.7299 -0.0297
-2 -3 5 -3.1581 -0.1145
-2 -3 6 -4.3240 0.0721
-2 -3 7 -0.1255 -0.0027
-2 -3 8 9.1524 -0.0364
-2 -3 9 1.5398 0.0307
-2 -3 10 -4.3447 -0.0598
-2 -3 11 0.4288 0.0204
-2 -3 12 -3.4044 -0.0095
-2 -3 13 0.5674 0.0137
-2 -3 14 2.7879 0.0641
-2 -2 1 9.3952 0.6065
-2 -2 2 2.9613 -0.5212
-2 -2 3 6.5216 0.2523
-2 -2 4 -11.5056 -0.0344
-2 -2 5 -11.5895 -0.1117
-2 -2 6 7.7244 0.0796
-2 -2 7 2.5517 -0.0020
-2 -2 8 2.7372 -0.0483
-2 -2 9 5.3383 0.0297
-2 -2 10 -7.6063 -0.0142
-2 -2 11 -3.0051 -0.0115
-2 -2 12 1.8850 0.0009
-2 -2 13 0.8699 0.0830
-2 -2 14 0.8397 -0.0656
-2 -2 15 1.2024 0.0767
-2 -1 1 18.4977 0.2017
-2 -1 2 -2.0229 -0.2336
-2 -1 3 -10.1991 0.1125
-2 -1 4 -1.3238 -0.0077
-2 -1 5 -9.7987 -0.0822
-2 -1 6 3.9236 0.0771
-2 -1 7 14.1483 -0.0042
-2 -1 8 -2.2096 -0.0602
-2 -1 9 -3.8699 0.0617
-2 -1 10 -0.3194 -0.0151
-2 -1 11 -5.7356 -0.0237
-2 -1 12 2.6296 0.0592
-2 -1 13 3.8339 -0.0300
-2 -1 14 -0.3506 0.0364
-2 -1 15 -0.5341 0.0159
-2 0 1 5.6264 -0.2882
-2 0 2 4.4462 0.1301
-2 0 3 -16.5411 -0.0230
-2 0 4 -10.8692 0.0245
-2 0 5 12.7546 -0.0398
-2 0 6 -0.7221 0.0179
-2 0 7 8.2523 0.0409
-2 0 8 2.9561 -0.0509
-2 0 9 -9.6485 0.0176
-2 0 10 -4.4403 0.0400
-2 0 11 3.8090 -0.0397
-2 0 12 -0.2293 0.0031
-2 0 13 3.6947 0.0596
-2 0 14 0.7276 -0.0585
-2 0 15 -3.5231 0.0126
-2 0 16 0.4403 -0.0017
-2 1 1 -8.2104 -0.5986
-2 1 2 -7.6348 0.4129
-2 1 3 -4.7128 -0.1508
-2 1 4 -8.2591 0.0796
-2 1 5 7.4701 -0.0292
-2 1 6 16.7488 -0.0355
-2 1 7 -6.6235 0.0729
-2 1 8 -1.9359 -0.0344
-2 1 9 -2.8037 -0.0161
-2 1 10 -7.2093 0.0526
-2 1 11 4.2152 -0.0409
-2 1 12 6.4347 -0.0282
-2 1 13 -1.9447 0.0983
-2 1 14 -0.6053 -0.0999
-2 1 15 -0.4996 0.0285
-2 1 16 -2.8171 0.0063
-2 2 1 -0.9489 -0.6961
-2 2 2 -17.4397 0.5780
-2 2 3 -4.2998 -0.2428
-2 2 4 9.0755 0.0837
-2 2 5 5.1235 -0.0162
-2 2 6 5.0783 -0.0619
-2 2 7 4.7848 0.0717
-2 2 8 -15.7777 -0.0235
-2 2 9 -1.7502 -0.0052
-2 2 10 3.3815 0.0114
-2 2 11 0.6386 -0.0423
-2 2 12 5.0160 0.0276
-2 2 13 0.6743 0.0181
-2 2 14 -5.3570 -0.0218
-2 2 15 0.8229 -0.0451
-2 2 16 -1.2097 0.0944
-2 2 17 1.7676 -0.1066
-2 3 1 -4.0893 -0.4991
-2 3 2 -6.5011 0.5327
-2 3 3 -5.1641 -0.2577
-2 3 4 12.9045 -0.0142
-2 3 5 9.6048 0.0801
-2 3 6 -2.5570 -0.1085
-2 3 7 -5.6502 0.0533
-2 3 8 -4.3879 0.0141
-2 3 9 -6.3636 -0.0264
-2 3 10 6.5451 0.0130
-2 3 11 6.2397 -0.0541
-2 3 12 -2.1024 0.0433
-2 3 13 0.7466 0.0388
-2 3 14 -4.0193 -0.0538
-2 3 15 -1.4589 -0.0333
-2 3 16 2.6122 0.1293
-2 3 17 0.5421 -0.1651
-2 4 1 -15.7851 -0.1556
-2 4 2 2.9328 0.2353
-2 4 3 5.9681 -0.1200
-2 4 4 4.1308 -0.1206
-2 4 5 10.4678 0.0852
-2 4 6 -6.5884 -0.0473
-2 4 7 -10.8302 0.0245
-2 4 8 -1.3998 0.0180
-2 4 9 2.1746 -0.0453
-2 4 10 2.5725 0.0343
-2 4 11 6.7200 -0.0240
-2 4 12 -0.9435 -0.0128
-2 4 13 -6.9691 0.0829
-2 4 14 2.0543 -0.0561
-2 4 15 -1.4403 -0.0362
-2 4 16 1.2013 0.1114
-2 4 17 2.9617 -0.1412
-2 5 1 -3.2980 0.2516
-2 5 2 -2.2479 -0.1891
-2 5 3 12.0049 0.0509
-2 5 4 8.0740 -0.1339
-2 5 5 -6.9418 0.0419
-2 5 6 -2.1176 0.0223
-2 5 7 -8.2808 -0.0027
-2 5 8 -2.8410 0.0410
-2 5 9 8.0762 -0.0669
-2 5 10 5.5517 0.0212
-2 5 11 -2.1670 0.0410
-2 5 12 -0.3699 -0.0442
-2 5 13 -2.8724 0.0446
-2 5 14 -4.1007 0.0113
-2 5 15 5.4074 -0.0928
-2 5 16 0.4930 0.1556
-2 5 17 0.0589 -0.1946
-2 6 1 2.9146 0.5774
-2 6 2 4.7196 -0.4895
-2 6 3 5.2532 0.1318
-2 6 4 4.9037 -0.0814
-2 6 5 -6.1440 0.0496
-2 6 6 -10.2932 0.0273
-2 6 7 0.8597 -0.0210
-2 6 8 1.4255 0.0515
-2 6 9 5.5784 -0.0347
-2 6 10 4.5641 -0.0267
-2 6 11 -1.8920 0.0533
-2 6 12 -6.1467 0.0075
-2 6 13 0.5136 -0.0249
-2 6 14 0.0989 0.0218
-2 6 15 1.5675 -0.0588
-2 6 16 2.3499 0.1077
-2 6 17 -0.3247 -0.1607
-2 7 1 1.5934 0.6247
-2 7 2 9.4285 -0.5940
-2 7 3 1.6290 0.2300
-2 7 4 -2.5152 -0.0430
-2 7 5 -5.4246 0.0028
-2 7 6 -5.9221 0.0860
-2 7 7 0.0755 -0.0458
-2 7 8 8.8827 0.0209
-2 7 9 1.2719 0.0062
-2 7 10 1.3775 -0.0401
-2 7 11 -2.9960 0.0533
-2 7 12 -4.5065 -0.0172
-2 7 13 -0.1569 -0.0077
-2 7 14 3.2540 0.0241
-2 7 15 1.5675 -0.0657
-2 7 16 -0.2414 0.0426
-2 7 17 -0.1124 -0.0155
-2 8 1 4.5715 0.4482
-2 8 2 3.3910 -0.4885
-2 8 3 2.3192 0.1992
-2 8 4 -7.2231 0.0898
-2 8 5 -5.1297 -0.0968
-2 8 6 0.8013 0.0818
-2 8 7 1.5203 0.0214
-2 8 8 6.2003 -0.0458
-2 8 9 3.7042 0.0101
-2 8 10 -5.7743 -0.0110
-2 8 11 -2.3715 0.0268
-2 8 12 -0.7895 -0.0224
-2 8 13 0.4083 -0.0149
-2 8 14 2.2825 0.0361
-2 8 15 2.7124 -0.0322
-2 8 16 -2.1828 -0.0838
-2 8 17 -1.1508 0.1750
-2 9 1 3.4536 0.0728
-2 9 2 1.3560 -0.1263
-2 9 3 -3.2718 0.0649
-2 9 4 -2.7430 0.1052
-2 9 5 -5.1105 -0.0703
-2 9 6 2.9418 0.0652
-2 9 7 6.2465 -0.0099
-2 9 8 0.9148 -0.0397
-2 9 9 0.0795 0.0392
-2 9 10 -3.3952 -0.0532
-2 9 11 -3.4197 0.0186
-2 9 12 0.1056 -0.0048
-2 9 13 4.3883 0.0127
-2 9 14 -0.1329 0.0107
-2 9 15 0.7262 -0.1410
-2 9 16 -1.4525 0.2293
-2 10 1 2.9331 -0.3089
-2 10 2 0.1983 0.1907
-2 10 3 -5.2071 -0.0495
-2 10 4 -2.5057 0.0906
-2 10 5 1.5334 -0.0257
-2 10 6 1.3696 0.0062
-2 10 7 5.1162 0.0083
-2 10 8 0.6092 -0.0324
-2 10 9 -4.4472 -0.0244
-2 10 10 -1.5678 0.0367
-2 10 11 -0.9860 -0.0650
-2 10 12 0.8168 0.0359
-2 10 13 3.7865 0.0566
-2 10 14 0.0665 -0.0808
-2 10 15 -1.6717 -0.0356
-2 10 16 -0.8954 0.1261
-2 11 1 0.1001 -0.4725
-2 11 2 -2.0319 0.3812
-2 11 3 -1.5158 -0.1895
-2 11 4 -2.0422 0.1580
-2 11 5 1.8883 -0.0502
-2 11 6 4.5525 -0.0627
-2 11 7 -0.4097 0.1004
-2 11 8 0.1085 -0.0751
-2 11 9 -4.0117 -0.0957
-2 11 10 -1.2989 0.1316
-2 11 11 0.7087 -0.0602
-2 11 12 3.5602 0.0254
-2 11 13 -0.8371 -0.0445
-2 11 14 1.4622 0.1428
-2 11 15 -2.7376 -0.2292
-2 12 1 -1.8995 -0.7238
-2 12 2 -1.0501 0.5962
-2 12 3 -1.6472 -0.2072
-2 12 4 1.4732 -0.0122
-2 12 5 0.8660 0.1048
-2 12 6 3.0174 -0.0963
-2 12 7 -0.9367 -0.0190
-2 12 8 -2.5447 0.0501
-2 12 9 -1.0231 -0.0978
-2 12 10 -0.8711 0.0442
-2 12 11 2.0778 0.0741
-2 12 12 1.8905 -0.0869
-2 12 13 0.3851 0.1374
-2 12 14 -2.4368 -0.2056
-2 13 1 0.0744 -0.3338
-2 13 2 -2.0520 0.3413
-2 13 3 0.9563 -0.1285
-2 13 4 -0.1769 0.0176
-2 13 5 2.9742 0.0019
-2 13 6 -0.9171 -0.0471
-2 13 7 -0.6846 0.0446
-2 13 8 -1.5311 -0.1153
-2 13 9 -1.5715 0.0877
-2 13 10 2.6985 0.0678
-2 13 11 -0.3474 -0.1868
-2 13 12 2.2616 0.3090
-2 14 5 1.2268 0.0828
-2 14 6 -0.9625 -0.0824
-2 14 7 -1.1742 -0.0755
-2 14 8 -0.2083 0.2336
-2 14 9 -0.3430 -0.2859
-1 -13 1 1.7059 -0.5072
-1 -13 2 0.4483 0.1746
-1 -12 1 2.1750 -0.2409
-1 -12 2 1.0809 0.3394
-1 -12 3 -0.4161 -0.2817
-1 -12 4 -2.6947 0.1202
-1 -11 1 1.9701 -0.1137
-1 -11 2 0.9475 0.0903
-1 -11 3 -3.4053 0.0272
-1 -11 4 -0.7284 -0.1405
-1 -11 5 -0.4706 -0.0449
-1 -11 6 1.4733 0.1704
-1 -10 1 1.3043 0.3154
-1 -10 2 -1.9406 -0.2008
-1 -10 3 -2.4045 -0.0052
-1 -10 4 -2.1226 -0.0150
-1 -10 5 1.9956 -0.0438
-1 -10 6 1.9634 0.0135
-1 -10 7 0.7632 0.0908
-1 -9 1 -0.8828 0.6005
-1 -9 2 -4.8154 -0.5012
-1 -9 3 -3.4146 0.1529
-1 -9 4 2.6289 -0.0416
-1 -9 5 0.3783 -0.0799
-1 -9 6 4.0314 0.1803
-1 -9 7 -1.9549 -0.1409
-1 -9 8 -0.3194 0.1613
-1 -9 9 -2.2584 -0.1181
-1 -8 1 -2.4649 0.6387
-1 -8 2 -5.2289 -0.6134
-1 -8 3 -2.4294 0.2390
-1 -8 4 3.7399 -0.0220
-1 -8 5 4.0555 -0.0572
-1 -8 6 -0.4492 0.1142
-1 -8 7 -0.3780 0.0102
-1 -8 8 -3.7147 -0.0876
-1 -8 9 0.1898 0.1227
-1 -8 10 0.8440 -0.1157
-1 -7 1 -8.4939 0.4517
-1 -7 2 -1.4379 -0.4621
-1 -7 3 0.7245 0.1781
-1 -7 4 3.4899 0.0575
-1 -7 5 5.1378 -0.0333
-1 -7 6 -1.8673 0.0298
-1 -7 7 -4.3340 0.0479
-1 -7 8 -0.9108 -0.0539
-1 -7 9 0.3970 -0.0070
-1 -7 10 1.6969 0.0775
-1 -7 11 1.3402 -0.1369
-1 -6 1 -9.4697 0.0617
-1 -6 2 -3.8340 -0.0968
-1 -6 3 9.2377 0.0667
-1 -6 4 4.7428 0.0924
-1 -6 5 -1.8102 -0.0477
-1 -6 6 -0.3774 0.0430
-1 -6 7 -5.5413 -0.0135
-1 -6 8 -0.4801 -0.0079
-1 -6 9 2.5131 0.0168
-1 -6 10 2.6860 -0.0487
-1 -6 11 0.1194 0.0998
-1 -6 12 -1.4247 -0.2005
-1 -5 1 -2.5005 -0.3823
-1 -5 2 2.5892 0.2719
-1 -5 3 4.9272 -0.0603
-1 -5 4 8.3541 0.1260
-1 -5 5 -4.3750 -0.0738
-1 -5 6 -7.2387 -0.0225
-1 -5 7 0.1690 0.0836
-1 -5 8 -0.3272 -0.0865
-1 -5 9 4.3375 0.0366
-1 -5 10 1.7605 0.0096
-1 -5 11 -1.0521 -0.0888
-1 -5 12 -1.7643 0.1020
-1 -5 13 -1.0302 -0.1559
-1 -4 1 8.1951 -0.6605
-1 -4 2 10.7319 0.5661
-1 -4 3 4.9432 -0.2459
-1 -4 4 -2.7027 0.1245
-1 -4 5 0.1647 -0.0207
-1 -4 6 -9.7980 -0.1075
-1 -4 7 -0.6226 0.1094
-1 -4 8 7.1948 -0.0414
-1 -4 9 0.9387 -0.0462
-1 -4 10 1.3639 0.0635
-1 -4 11 -2.3553 -0.0601
-1 -4 12 -2.3796 -0.0946
-1 -4 13 -0.0532 0.2247
-1 -4 14 0.9859 -0.1968
-1 -3 1 -12.5875 -0.6814
-1 -3 2 20.2108 0.6398
-1 -3 3 6.1102 -0.3024
-1 -3 4 -9.6400 0.0000
-1 -3 5 -8.6875 0.0663
-1 -3 6 1.9284 -0.0699
-1 -3 7 -1.4589 -0.0046
-1 -3 8 6.5115 0.0299
-1 -3 9 4.2831 -0.0192
-1 -3 10 -4.3802 -0.0114
-1 -3 11 -1.9060 -0.0421
-1 -3 12 -1.5681 0.0235
-1 -3 13 0.7521 0.0706
-1 -3 14 1.3309 -0.0918
-1 -2 1 24.7946 -0.5409
-1 -2 2 -7.6953 0.4541
-1 -2 3 5.9759 -0.1816
-1 -2 4 -6.6129 -0.1222
-1 -2 5 -13.0273 0.0986
-1 -2 6 2.0608 -0.0296
-1 -2 7 10.4166 -0.0020
-1 -2 8 0.8331 -0.0044
-1 -2 9 0.8852 -0.0118
-1 -2 10 -2.0445 0.0269
-1 -2 11 -6.0711 -0.0594
-1 -2 12 2.2510 0.0602
-1 -2 13 1.4690 -0.0096
-1 -2 14 1.2299 0.0839
-1 -2 15 0.1843 -0.1146
-1 -1 1 22.7619 -0.2181
-1 -1 2 6.4485 0.0969
-1 -1 3 -17.3436 -0.0210
-1 -1 4 -7.7515 -0.1350
-1 -1 5 3.3720 0.1123
-1 -1 6 -3.8772 -0.0317
-1 -1 7 13.5757 -0.0125
-1 -1 8 3.0454 0.0553
-1 -1 9 -7.0390 -0.0587
-1 -1 10 -1.7009 0.0062
-1 -1 11 -3.0114 0.0440
-1 -1 12 1.6310 -0.0184
-1 -1 13 3.1858 0.0255
-1 -1 14 1.3252 -0.0084
-1 -1 15 -2.1740 0.0524
-1 -1 16 -0.0101 -0.1117
-1 0 1 0.4377 0.1786
-1 0 2 3.7077 -0.2860
-1 0 3 -14.6898 0.2076
-1 0 4 -10.6131 -0.1401
-1 0 5 4.9381 0.0788
-1 0 6 14.0546 0.0333
-1 0 7 -3.3169 -0.0753
-1 0 8 7.3224 0.0818
-1 0 9 -8.8221 -0.0114
-1 0 10 -7.1529 -0.0796
-1 0 11 4.8786 0.1094
-1 0 12 1.5740 -0.0241
-1 0 13 1.2822 -0.0364
-1 0 14 1.4764 0.0622
-1 0 15 -2.1431 -0.0737
-1 0 16 -2.2236 0.0476
-1 1 1 2.1154 0.5121
-1 1 2 -26.8282 -0.4352
-1 1 3 5.0266 0.3049
-1 1 4 -6.9806 -0.1341
-1 1 5 4.6034 0.0831
-1 1 6 14.8970 0.0265
-1 1 7 3.5658 -0.0845
-1 1 8 -13.0768 0.0520
-1 1 9 0.6541 0.0586
-1 1 10 -4.3602 -0.1240
-1 1 11 0.3584 0.0608
-1 1 12 8.1433 0.0610
-1 1 13 -1.0026 -0.1106
-1 1 14 -2.0708 0.0685
-1 1 15 -1.1388 -0.0283
-1 1 16 -0.8223 -0.0483
-1 2 1 6.5089 0.7236
-1 2 2 -14.6724 -0.4005
-1 2 3 -14.7242 0.2502
-1 2 4 17.6147 -0.0710
-1 2 5 4.6387 0.0263
-1 2 6 6.2303 0.0196
-1 2 7 -0.4743 -0.0664
-1 2 8 -8.2484 0.0355
-1 2 9 -9.8891 0.0321
-1 2 10 7.4341 -0.0775
-1 2 11 2.1363 0.0303
-1 2 12 1.4593 0.0303
-1 2 13 3.0130 -0.0661
-1 2 14 -5.1873 0.0383
-1 2 15 -2.0435 0.0323
-1 2 16 1.9638 -0.1595
-1 2 17 0.0740 0.2285
-1 3 1 -18.5489 0.6608
-1 3 2 -1.1752 -0.3169
-1 3 3 0.5191 0.1738
-1 3 4 2.3350 0.0074
-1 3 5 22.0413 -0.1244
-1 3 6 -8.2352 0.0755
-1 3 7 -7.0306 -0.0350
-1 3 8 -3.5141 0.0003
-1 3 9 -5.1908 0.0031
-1 3 10 3.2245 -0.0352
-1 3 11 9.7466 0.0318
-1 3 12 -1.1606 -0.0045
-1 3 13 -5.1084 -0.0393
-1 3 14 2.4040 0.0446
-1 3 15 -5.6998 0.0399
-1 3 16 4.0903 -0.1680
-1 3 17 0.7947 0.2492
-1 4 1 -13.9019 0.3760
-1 4 2 -6.6466 -0.1012
-1 4 3 14.3353 -0.0561
-1 4 4 8.9509 0.0973
-1 4 5 -1.9630 -0.1718
-1 4 6 6.0473 0.0503
-1 4 7 -18.5440 0.0410
-1 4 8 -3.3871 -0.0580
-1 4 9 6.7877 0.0218
-1 4 10 2.9850 -0.0193
-1 4 11 2.6227 0.0080
-1 4 12 2.3466 0.0264
-1 4 13 -5.8003 -0.0385
-1 4 14 -3.6683 0.0401
-1 4 15 3.5585 0.0194
-1 4 16 0.4861 -0.0942
-1 4 17 1.3215 0.1811
-1 5 1 -0.2789 -0.0798
-1 5 2 -1.8224 0.1581
-1 5 3 10.7527 -0.2736
-1 5 4 10.1551 0.1324
-1 5 5 -3.4225 -0.1208
-1 5 6 -12.0233 0.0169
-1 5 7 -0.7271 0.0813
-1 5 8 -6.3610 -0.0801
-1 5 9 7.4812 0.0316
-1 5 10 8.8421 0.0039
-1 5 11 -2.3878 -0.0226
-1 5 12 -3.6971 0.0592
-1 5 13 -0.6186 -0.0291
-1 5 14 -3.8408 0.0016
-1 5 15 3.7599 0.0373
-1 5 16 1.7340 -0.0585
-1 5 17 0.8549 0.1002
-1 6 1 -1.3296 -0.4756
-1 6 2 12.1057 0.2797
-1 6 3 3.3414 -0.3373
-1 6 4 3.3604 0.1508
-1 6 5 -4.4194 -0.0808
-1 6 6 -11.3606 0.0294
-1 6 7 -3.6172 0.0840
-1 6 8 8.0561 -0.0920
-1 6 9 2.6232 0.0377
-1 6 10 4.5732 0.0366
-1 6 11 -0.1399 -0.0535
-1 6 12 -7.3430 0.0582
-1 6 13 -1.5778 0.0066
-1 6 14 3.3121 -0.0423
-1 6 15 -0.5428 0.0372
-1 6 16 4.5833 -0.0356
-1 6 17 -2.4610 0.0580
-1 7 1 1.4689 -0.6665
-1 7 2 7.3411 0.3208
-1 7 3 7.5456 -0.2823
-1 7 4 -7.7150 0.1018
-1 7 5 -5.3014 0.0354
-1 7 6 -4.9546 -0.0119
-1 7 7 -1.0323 0.0698
-1 7 8 8.1722 -0.0627
-1 7 9 6.2780 0.0142
-1 7 10 -2.7170 0.0604
-1 7 11 -3.4869 -0.0584
-1 7 12 -1.5164 0.0113
-1 7 13 -3.5316 0.0722
-1 7 14 4.7179 -0.1042
-1 7 15 2.6872 0.0386
-1 7 16 -1.0691 0.0067
-1 7 17 -0.1013 -0.0297
-1 8 1 5.2100 -0.6356
-1 8 2 4.1121 0.2927
-1 8 3 -0.2055 -0.1276
-1 8 4 -3.6599 -0.0145
-1 8 5 -9.7990 0.1669
-1 8 6 1.3956 -0.0506
-1 8 7 4.8866 0.0022
-1 8 8 3.9489 0.0000
-1 8 9 3.8696 0.0204
-1 8 10 -3.2374 0.0122
-1 8 11 -5.8692 -0.0669
-1 8 12 -0.8019 0.0607
-1 8 13 3.0956 0.0305
-1 8 14 0.3614 -0.1479
-1 8 15 3.5257 0.1092
-1 8 16 -1.5496 0.0183
-1 8 17 -2.0892 -0.1823
-1 9 1 5.8800 -0.3183
-1 9 2 1.8516 0.0350
-1 9 3 -4.2551 0.1332
-1 9 4 -4.9232 -0.0809
-1 9 5 -2.5200 0.1352
-1 9 6 0.7296 -0.0118
-1 9 7 8.1569 -0.0618
-1 9 8 1.6152 0.0533
-1 9 9 -1.4158 -0.0130
-1 9 10 -2.7954 -0.0175
-1 9 11 -4.2091 -0.0217
-1 9 12 0.6818 0.0231
-1 9 13 3.2161 0.0096
-1 9 14 3.2136 -0.0641
-1 9 15 -2.6242 0.0023
-1 9 16 0.8716 0.1099
-1 9 17 -3.0046 -0.2192
-1 10 1 2.3556 0.1398
-1 10 2 -1.0864 -0.1843
-1 10 3 -3.2910 0.2449
-1 10 4 -4.8771 -0.0957
-1 10 5 1.6771 0.1287
-1 10 6 3.8482 -0.0660
-1 10 7 2.6165 -0.0501
-1 10 8 3.1291 0.0973
-1 10 9 -5.3000 -0.0907
-1 10 10 -3.7425 -0.0206
-1 10 11 0.5993 0.0527
-1 10 12 2.0087 -0.0347
-1 10 13 1.2480 -0.0053
-1 10 14 2.5634 -0.0172
-1 10 15 -1.9259 0.0982
-1 10 16 -2.4641 -0.2032
-1 11 1 -0.2332 0.4043
-1 11 2 -1.6716 -0.2369
-1 11 3 -3.5859 0.3075
-1 11 4 -0.3574 -0.1748
-1 11 5 1.0666 0.0830
-1 11 6 5.5493 0.0219
-1 11 7 0.1316 -0.1056
-1 11 8 -1.7456 0.0298
-1 11 9 -1.9662 0.0216
-1 11 10 -3.6818 -0.0922
-1 11 11 2.1688 0.0628
-1 11 12 2.7092 -0.0036
-1 11 13 1.7104 0.0154
-1 11 14 -1.6651 -0.0406
-1 11 15 -0.5490 0.0207
-1 11 16 -1.9997 0.0566
-1 12 1 -0.1854 0.5481
-1 12 2 -3.4607 -0.4076
-1 12 3 -0.5100 0.3269
-1 12 4 0.3293 -0.0508
-1 12 5 3.3320 -0.0956
-1 12 6 0.5706 0.0602
-1 12 7 1.7392 -0.0838
-1 12 8 -4.5942 0.0530
-1 12 9 -1.3952 -0.0302
-1 12 10 0.2963 -0.0917
-1 12 11 1.7100 0.1456
-1 12 12 1.7886 -0.0097
-1 12 13 0.7825 -0.0410
-1 12 14 -1.6179 -0.0755
-1 12 15 -2.2454 0.2598
-1 13 1 -0.5883 0.5533
-1 13 2 -0.7500 -0.2381
-1 13 3 -1.2705 0.0396
-1 13 4 2.4206 0.0965
-1 13 5 1.6588 -0.0937
-1 13 6 -0.1767 -0.0246
-1 13 7 -0.8878 -0.0113
-1 13 8 -2.1254 -0.0031
-1 13 9 -1.0275 0.0249
-1 13 10 0.9480 -0.0154
-1 13 11 3.2082 -0.0160
-1 13 12 -0.8400 0.1320
-1 13 13 0.3166 -0.0980
-1 13 14 -1.9526 -0.0129
-1 14 2 -0.2440 -0.0117
-1 14 3 0.3005 0.0276
-1 14 4 1.8555 0.0163
-1 14 5 -0.7779 -0.1108
-1 14 6 1.0694 0.0371
-1 14 7 -2.3059 0.0267
-1 14 8 -1.3408 -0.0970
-1 14 9 1.3744 0.1266
-1 14 10 0.6125 -0.0904
-1 14 11 1.2521 0.1636
-1 14 12 0.2247 -0.1537
0 -13 1 0.7457 0.5782
0 -13 2 1.2220 -0.1009
0 -12 1 3.5529 0.3166
0 -12 2 0.3811 -0.1621
0 -12 3 -1.0131 0.1361
0 -12 4 -0.8131 -0.1425
0 -11 1 -0.8392 0.3054
0 -11 2 1.4650 -0.0398
0 -11 3 -1.6663 -0.1743
0 -11 4 -2.1903 0.1262
0 -11 5 -0.0919 -0.0572
0 -11 6 1.8901 -0.1826
0 -10 1 3.5366 -0.1832
0 -10 2 -4.6418 0.1387
0 -10 3 -1.0208 -0.1195
0 -10 4 -1.6123 -0.0428
0 -10 5 1.6901 -0.0479
0 -10 6 1.2127 0.1224
0 -10 7 1.0316 -0.1764
0 -9 1 -1.4581 -0.4543
0 -9 2 -2.5077 0.2593
0 -9 3 -4.2022 -0.3174
0 -9 4 1.4528 0.1286
0 -9 5 2.6787 -0.0102
0 -9 6 1.0982 -0.1058
0 -9 7 1.1036 0.2595
0 -9 8 -3.3753 -0.2131
0 -8 1 -4.1002 -0.6466
0 -8 2 -3.2172 0.3566
0 -8 3 -1.8286 -0.3025
0 -8 4 1.6730 0.0549
0 -8 5 5.2795 0.0845
0 -8 6 -0.2733 0.0056
0 -8 7 -2.1540 -0.0161
0 -8 8 -0.9098 0.0877
0 -8 9 -2.1690 -0.0859
0 -8 10 2.0311 0.0541
0 -7 1 -7.8578 -0.6387
0 -7 2 -5.3684 0.2374
0 -7 3 4.2797 -0.0707
0 -7 4 3.6222 -0.0210
0 -7 5 1.8360 0.0804
0 -7 6 0.4591 0.0596
0 -7 7 -3.9863 -0.0396
0 -7 8 -2.4676 0.0118
0 -7 9 1.8343 0.0275
0 -7 10 0.6264 -0.0800
0 -7 11 2.1454 0.0704
0 -6 1 -5.8666 -0.3051
0 -6 2 -1.1210 0.0138
0 -6 3 2.7705 0.1279
0 -6 4 8.6633 -0.0505
0 -6 5 -1.4906 0.1122
0 -6 6 -3.4198 -0.0202
0 -6 7 -2.6186 -0.0236
0 -6 8 -1.4571 0.0460
0 -6 9 2.0970 -0.0495
0 -6 10 3.5212 0.0242
0 -6 11 -1.0855 -0.0895
0 -6 12 0.2585 0.1397
0 -5 1 2.0279 0.2153
0 -5 2 3.0712 -0.1875
0 -5 3 6.2913 0.2687
0 -5 4 2.6863 -0.1383
0 -5 5 0.5485 0.1521
0 -5 6 -8.2982 -0.0287
0 -5 7 -1.4310 -0.1179
0 -5 8 2.0476 0.1225
0 -5 9 2.8529 -0.0387
0 -5 10 1.3338 -0.0733
0 -5 11 0.8579 0.0656
0 -5 12 -3.9361 -0.0836
0 -5 13 0.6166 0.0928
0 -4 1 -9.8060 0.5617
0 -4 2 16.6386 -0.3310
0 -4 3 4.3147 0.3645
0 -4 4 0.0132 -0.1941
0 -4 5 -7.5816 0.0665
0 -4 6 -1.4729 0.0348
0 -4 7 -4.1740 -0.1207
0 -4 8 6.3801 0.0358
0 -4 9 2.8489 0.0840
0 -4 10 0.1494 -0.1598
0 -4 11 -2.6440 0.0420
0 -4 12 -0.5810 0.0968
0 -4 13 -2.4746 -0.1960
0 -3 1 15.4916 0.7641
0 -3 2 -2.1901 -0.3980
0 -3 3 13.3827 0.2427
0 -3 4 -8.0385 -0.0664
0 -3 5 -9.9023 -0.0674
0 -3 6 -1.4551 0.0061
0 -3 7 5.0017 0.0146
0 -3 8 1.5269 -0.0217
0 -3 9 5.0519 -0.0235
0 -3 10 -2.6163 0.0078
0 -3 11 -3.5859 0.0081
0 -3 12 -1.3953 -0.0304
0 -3 13 2.1213 0.0017
0 -3 14 -0.2102 0.1232
0 -2 1 2.6402 0.6689
0 -2 2 17.2122 -0.2897
0 -2 3 -13.3388 0.0093
0 -2 4 -0.1121 0.0609
0 -2 5 -10.7482 -0.1290
0 -2 6 -0.4009 0.0241
0 -2 7 9.4060 0.0190
0 -2 8 3.8551 0.0087
0 -2 9 -1.5984 -0.0415
0 -2 10 -2.2909 -0.0162
0 -2 11 -3.4833 0.0706
0 -2 12 0.1388 -0.0353
0 -2 13 1.6157 -0.0068
0 -2 14 2.7364 0.0644
0 -2 15 -1.6343 0.0128
0 -1 1 43.4174 0.1112
0 -1 2 -12.3499 -0.0452
0 -1 3 -3.3981 -0.1695
0 -1 4 -16.0502 0.1776
0 -1 5 4.3209 -0.1822
0 -1 6 2.1590 0.0527
0 -1 7 5.3693 0.0781
0 -1 8 8.2813 -0.0771
0 -1 9 -7.5965 0.0272
0 -1 10 -4.7276 -0.0074
0 -1 11 1.3184 0.0213
0 -1 12 -1.1395 0.0192
0 -1 13 4.4173 -0.0279
0 -1 14 0.3966 0.0757
0 -1 15 -1.3192 -0.0973
0 0 1 -61.2763 -0.0619
0 0 2 33.5367 0.0964
0 0 3 -25.3474 -0.3336
0 0 4 -5.5510 0.3081
0 0 5 -1.3417 -0.1419
0 0 6 19.3099 -0.0125
0 0 7 -0.8569 0.1437
0 0 8 -2.1608 -0.1132
0 0 9 -0.3593 0.0092
0 0 10 -8.6293 0.1021
0 0 11 1.7632 -0.1161
0 0 12 4.4638 0.0621
0 0 13 1.4776 0.0602
0 0 14 -1.0703 -0.1217
0 0 15 -0.2152 0.0737
0 0 16 -2.4388 -0.0389
0 1 0 -36.3228 0.0806
0 1 1 50.9663 -0.2557
0 1 2 -53.4437 0.2649
0 1 3 10.8235 -0.3139
0 1 4 -6.6318 0.2513
0 1 5 9.9379 -0.0377
0 1 6 5.3325 -0.0440
0 1 7 11.5509 0.0941
0 1 8 -14.2791 -0.0378
0 1 9 -4.2908 -0.0631
0 1 10 1.1181 0.1270
0 1 11 -0.3183 -0.0807
0 1 12 4.8320 -0.0257
0 1 13 2.5282 0.0938
0 1 14 -4.3312 -0.0939
0 1 15 -0.6559 0.0062
0 1 16 -0.0841 0.0175
0 2 0 20.3982 0.6688
0 2 1 -35.9246 -0.6482
0 2 2 22.0241 0.4032
0 2 3 -38.1093 -0.1129
0 2 4 25.1419 0.0723
0 2 5 9.3611 0.0065
0 2 6 2.4496 -0.0123
0 2 7 -3.6844 0.0419
0 2 8 -1.4761 -0.0480
0 2 9 -13.9180 -0.0298
0 2 10 6.1985 0.0884
0 2 11 5.8383 -0.0635
0 2 12 0.0453 -0.0507
0 2 13 0.3145 0.0915
0 2 14 -1.5577 -0.0381
0 2 15 -4.2990 -0.1118
0 2 16 2.6800 0.2070
0 2 17 0.3908 -0.1756
0 3 0 -3.8896 0.7243
0 3 1 -13.9313 -0.5211
0 3 2 -14.4898 0.3046
0 3 3 16.5150 0.0629
0 3 4 -5.7979 -0.1073
0 3 5 21.1225 0.0755
0 3 6 -0.2264 -0.0440
0 3 7 -12.9776 0.0119
0 3 8 -7.1688 -0.0246
0 3 9 3.8766 -0.0271
0 3 10 -2.8052 0.0509
0 3 11 9.9486 -0.0484
0 3 12 0.6142 -0.0123
0 3 13 -4.6837 0.0339
0 3 14 -2.3657 -0.0172
0 3 15 1.5459 -0.0439
0 3 16 -2.1820 0.1441
0 3 17 4.4679 -0.1514
0 4 0 -2.1893 0.6125
0 4 1 -8.7396 -0.3109
0 4 2 -9.7824 0.1503
0 4 3 11.5103 0.1662
0 4 4 18.5813 -0.2730
0 4 5 -7.1931 0.1564
0 4 6 2.4046 -0.0621
0 4 7 -10.5916 -0.0662
0 4 8 -9.9748 0.0794
0 4 9 6.7733 -0.0561
0 4 10 8.3232 -0.0100
0 4 11 -2.0878 0.0251
0 4 12 3.1210 -0.0144
0 4 13 -4.7310 0.0303
0 4 14 -4.7707 -0.0520
0 4 15 4.4471 0.0311
0 4 16 -0.0626 0.1559
0 4 17 1.9249 -0.2870
0 5 0 -19.5936 0.3249
0 5 1 0.0514 -0.0147
0 5 2 7.0813 -0.0778
0 5 3 2.1034 0.1703
0 5 4 14.8008 -0.2912
0 5 5 -0.5630 0.1509
0 5 6 -17.8768 -0.0277
0 5 7 -0.9583 -0.1090
0 5 8 -1.4175 0.1128
0 5 9 3.4972 -0.0309
0 5 10 8.5361 -0.0615
0 5 11 1.7931 0.0924
0 5 12 -8.1047 -0.0401
0 5 13 -0.1674 0.0158
0 5 14 -0.2825 0.0179
0 5 15 -1.0131 -0.0028
0 5 16 5.7950 0.0244
0 5 17 -1.4069 0.0197
0 6 0 -5.1935 -0.1906
0 6 1 -5.5715 0.2707
0 6 2 12.9765 -0.2445
0 6 3 10.2798 0.1096
0 6 4 -4.7447 -0.2248
0 6 5 -0.4646 0.1278
0 6 6 -11.4972 0.0192
0 6 7 -7.2104 -0.1141
0 6 8 10.2872 0.0908
0 6 9 4.6424 0.0138
0 6 10 1.8978 -0.0673
0 6 11 -0.1692 0.0858
0 6 12 -4.6821 -0.0058
0 6 13 -5.4332 -0.0473
0 6 14 5.7259 0.0818
0 6 15 0.5863 -0.0150
0 6 16 1.0769 -0.0653
0 6 17 1.3208 0.0813
0 6 18 -2.5229 -0.0844
0 7 0 0.0766 -0.5216
0 7 1 3.9072 0.3855
0 7 2 5.2366 -0.3680
0 7 3 8.3514 0.0915
0 7 4 -3.4754 -0.0684
0 7 5 -14.2251 0.0404
0 7 6 0.7059 0.0443
0 7 7 -1.4465 -0.0730
0 7 8 5.0136 0.0897
0 7 9 10.6740 -0.0227
0 7 10 -4.5353 -0.0299
0 7 11 -4.4802 0.0937
0 7 12 -1.3804 -0.0267
0 7 13 -1.1851 -0.0739
0 7 14 1.0873 0.1027
0 7 15 5.9200 -0.0118
0 7 16 -2.0755 -0.1234
0 7 17 -0.6010 0.1101
0 7 18 -1.2467 -0.0841
0 8 0 -1.0480 -0.6284
0 8 1 9.5323 0.3860
0 8 2 3.6009 -0.3370
0 8 3 -0.8257 -0.0200
0 8 4 -5.2905 0.1772
0 8 5 -6.3902 -0.0618
0 8 6 -4.8271 0.0193
0 8 7 10.5414 -0.0032
0 8 8 3.2024 0.0537
0 8 9 1.1070 -0.0078
0 8 10 0.0931 -0.0416
0 8 11 -7.5322 0.0843
0 8 12 -2.0247 -0.0373
0 8 13 4.7371 -0.0678
0 8 14 1.5693 0.0817
0 8 15 0.4318 -0.0101
0 8 16 1.2257 -0.1718
0 8 17 -3.0156 0.2632
0 9 0 4.1968 -0.5836
0 9 1 2.9723 0.2583
0 9 2 5.3464 -0.1045
0 9 3 -6.7269 -0.1598
0 9 4 -5.5794 0.3249
0 9 5 -1.7739 -0.1296
0 9 6 1.6003 0.0048
0 9 7 4.9514 0.0735
0 9 8 7.0530 -0.0517
0 9 9 -4.5724 0.0291
0 9 10 -4.6216 -0.0025
0 9 11 -0.5876 0.0104
0 9 12 -1.2581 -0.0635
0 9 13 3.0136 -0.0079
0 9 14 3.9454 0.0950
0 9 15 -1.1587 -0.1139
0 9 16 -2.0467 -0.0807
0 9 17 -0.9944 0.2958
0 10 0 2.9729 -0.2480
0 10 1 3.2284 -0.0728
0 10 2 -3.1945 0.1264
0 10 3 -1.0850 -0.0747
0 10 4 -7.0432 0.2104
0 10 5 1.5885 -0.1433
0 10 6 5.3276 0.0529
0 10 7 3.4242 0.0658
0 10 8 0.0089 -0.1053
0 10 9 -1.7156 0.0429
0 10 10 -6.0604 0.0204
0 10 11 0.2521 -0.0797
0 10 12 3.4728 0.0269
0 10 13 1.4563 -0.0260
0 10 14 1.2376 0.0313
0 10 15 -0.5397 -0.0172
0 10 16 -3.3903 -0.0488
0 10 17 0.2851 0.1394
0 11 0 5.2936 0.1960
0 11 1 -0.9673 -0.1791
0 11 2 -1.6872 0.1242
0 11 3 -5.3663 -0.0571
0 11 4 1.4941 0.2444
0 11 5 0.7061 -0.1677
0 11 6 4.3449 -0.0491
0 11 7 2.9128 0.1464
0 11 8 -3.5436 -0.0967
0 11 9 -3.3982 -0.0181
0 11 10 -0.2778 0.0041
0 11 11 -0.9747 -0.0450
0 11 12 4.0277 0.0686
0 11 13 2.8717 -0.0410
0 11 14 -3.0818 -0.0567
0 11 15 -0.4383 0.1931
0 11 16 -1.4982 -0.2317
0 12 0 -1.1820 0.2756
0 12 1 0.7193 -0.3314
0 12 2 -3.4650 0.3753
0 12 3 -0.9794 -0.1539
0 12 4 0.0296 0.0727
0 12 5 4.0253 -0.0008
0 12 6 1.4425 -0.0676
0 12 7 -0.1190 0.0382
0 12 8 -2.7825 -0.0470
0 12 9 -2.8935 0.0078
0 12 10 0.5773 -0.0300
0 12 11 2.4371 0.0227
0 12 12 1.8778 -0.0372
0 12 13 -0.3551 0.0870
0 12 14 -0.0915 0.0343
0 12 15 -3.3316 -0.2165
0 13 0 0.8040 0.7199
0 13 1 -2.9284 -0.5506
0 13 2 -0.1225 0.2782
0 13 3 -0.7656 0.0943
0 13 4 2.0963 -0.1609
0 13 5 1.2430 0.0462
0 13 6 1.7255 -0.0281
0 13 7 -2.9550 0.0103
0 13 8 -1.4091 -0.0372
0 13 9 -0.9837 -0.0276
0 13 10 1.0033 0.0539
0 13 11 2.4832 -0.0119
0 13 12 1.0713 0.0238
0 13 13 -1.5692 -0.0148
0 13 14 -1.3733 0.1034
0 14 1 -0.4420 0.1187
0 14 2 -1.5266 -0.0923
0 14 3 1.8234 0.2294
0 14 4 0.5248 -0.2930
0 14 5 1.4883 0.1749
0 14 6 -1.0414 -0.0990
0 14 7 -2.1026 0.0190
0 14 8 0.4091 0.0110
0 14 9 -1.6051 -0.0963
0 14 10 3.3210 0.1811
0 14 11 -0.0719 -0.0671
0 14 12 0.6869 -0.0941
0 14 13 -1.5299 0.2859
0 15 5 0.4777 -0.1086
0 15 6 -1.4178 0.1517
0 15 7 -0.3596 -0.1261
0 15 8 -1.1456 0.0896
0 15 9 1.9660 -0.0505
1 -13 0 -1.1061 0.5555
1 -13 1 1.6286 -0.3112
1 -12 0 1.6863 0.5139
1 -12 1 -0.2854 -0.2633
1 -12 2 2.3413 0.1480
1 -12 3 -1.2469 -0.0273
1 -11 0 2.4228 0.5992
1 -11 1 2.3879 -0.3813
1 -11 2 -1.0189 0.1562
1 -11 3 -0.8612 0.1094
1 -11 4 -1.5983 -0.2545
1 -11 5 0.3379 0.0953
1 -10 0 2.7264 0.2095
1 -10 1 2.5160 0.0440
1 -10 2 -3.0406 -0.0946
1 -10 3 -2.1388 0.0119
1 -10 4 0.1945 -0.0497
1 -10 5 -0.5178 -0.0147
1 -10 6 2.8372 -0.0622
1 -10 7 -0.2940 0.1562
1 -9 0 1.3644 -0.1949
1 -9 1 -0.8439 0.2332
1 -9 2 -1.2870 -0.2132
1 -9 3 -4.6698 0.0758
1 -9 4 1.3020 -0.1921
1 -9 5 2.7850 0.1328
1 -9 6 1.1721 0.0006
1 -9 7 -0.3132 -0.1105
1 -9 8 -1.1936 0.2473
1 -8 0 2.6313 -0.4725
1 -8 1 -4.8497 0.3342
1 -8 2 -5.2957 -0.3281
1 -8 3 2.3137 0.0758
1 -8 4 -0.7442 -0.0521
1 -8 5 4.3303 0.0161
1 -8 6 1.0226 0.0271
1 -8 7 -2.1208 0.0891
1 -8 8 -1.5337 -0.1300
1 -8 9 -1.1113 0.2161
1 -7 0 -0.5485 -0.6588
1 -7 1 -6.0003 0.3924
1 -7 2 -3.8170 -0.3044
1 -7 3 0.6231 -0.0552
1 -7 4 7.2276 0.1660
1 -7 5 -1.1403 -0.0319
1 -7 6 1.5535 -0.0267
1 -7 7 -3.6958 0.0998
1 -7 8 -2.1206 0.0351
1 -7 9 1.1363 -0.1827
1 -7 10 1.1219 0.2313
1 -6 0 -9.6994 -0.5823
1 -6 1 -2.1125 0.2357
1 -6 2 -2.1609 -0.1110
1 -6 3 4.7459 -0.1299
1 -6 4 3.1559 0.2476
1 -6 5 4.5447 -0.0501
1 -6 6 -7.7163 0.0018
1 -6 7 -0.2041 0.0320
1 -6 8 -1.7614 0.0004
1 -6 9 1.8790 0.0137
1 -6 10 2.5740 -0.1225
1 -6 11 0.0570 0.1577
1 -5 0 -9.2469 -0.2122
1 -5 1 -8.3084 -0.0446
1 -5 2 9.0685 0.1134
1 -5 3 4.9560 -0.1326
1 -5 4 2.0212 0.2746
1 -5 5 -2.1305 -0.1351
1 -5 6 -2.3569 0.0320
1 -5 7 -5.7748 0.0923
1 -5 8 3.6951 -0.1633
1 -5 9 2.2584 0.0834
1 -5 10 1.7043 0.0298
1 -5 11 -0.5586 -0.1570
1 -5 12 -1.4002 0.1201
1 -4 0 0.4629 0.2456
1 -4 1 -3.0489 -0.2762
1 -4 2 5.3941 0.2850
1 -4 3 11.7427 -0.1204
1 -4 4 -3.0111 0.2134
1 -4 5 -6.6218 -0.1354
1 -4 6 -3.1978 -0.0132
1 -4 7 0.6607 0.1019
1 -4 8 1.0938 -0.0816
1 -4 9 4.9208 -0.1127
1 -4 10 0.2083 0.1824
1 -4 11 -3.0638 -0.0866
1 -4 12 -0.6037 -0.1326
1 -4 13 -0.8181 0.2141
1 -3 0 -1.4550 0.6418
1 -3 1 11.6443 -0.4621
1 -3 2 5.9198 0.3691
1 -3 3 2.2410 -0.0503
1 -3 4 -2.5307 -0.0047
1 -3 5 -7.0607 -0.0246
1 -3 6 -5.9922 -0.0126
1 -3 7 6.6025 -0.0117
1 -3 8 2.6364 0.0009
1 -3 9 3.0272 -0.0419
1 -3 10 -2.8649 0.0241
1 -3 11 -1.4339 -0.0273
1 -3 12 -2.2381 0.0404
1 -3 13 1.4355 -0.0219
1 -3 14 0.4477 -0.0055
1 -2 0 -12.0013 0.8303
1 -2 1 20.5148 -0.4880
1 -2 2 8.2128 0.2489
1 -2 3 -7.4431 0.0690
1 -2 4 -7.4976 -0.1958
1 -2 5 -3.8411 0.0659
1 -2 6 -0.8244 -0.0255
1 -2 7 4.3607 -0.0162
1 -2 8 8.3429 -0.0124
1 -2 9 -4.7054 0.0080
1 -2 10 -0.2440 0.0061
1 -2 11 -4.1060 -0.0332
1 -2 12 0.3050 0.0701
1 -2 13 2.2540 -0.0320
1 -2 14 0.8198 0.0112
1 -2 15 0.3401 0.0246
1 -1 0 25.8273 0.5746
1 -1 1 -10.2414 -0.2612
1 -1 2 15.2408 0.0163
1 -1 3 -10.1288 0.1590
1 -1 4 -14.9304 -0.3226
1 -1 5 0.1119 0.1788
1 -1 6 8.2332 -0.0261
1 -1 7 3.7943 -0.0786
1 -1 8 1.6734 0.0716
1 -1 9 0.8223 -0.0170
1 -1 10 -8.5053 0.0107
1 -1 11 0.8121 -0.0053
1 -1 12 2.2801 0.0027
1 -1 13 0.9608 0.0995
1 -1 14 0.9644 -0.1735
1 -1 15 0.2675 0.1635
1 0 0 10.3754 0.1671
1 0 1 20.3663 -0.0185
1 0 2 -23.2513 -0.1885
1 0 3 -2.2801 0.2256
1 0 4 -7.3104 -0.3279
1 0 5 -0.3743 0.2025
1 0 6 10.7902 0.0265
1 0 7 8.6976 -0.1453
1 0 8 -6.5237 0.1276
1 0 9 -2.6736 0.0075
1 0 10 -2.3264 -0.0808
1 0 11 -2.4974 0.1096
1 0 12 6.1790 -0.0442
1 0 13 0.2378 -0.0238
1 0 14 -0.0768 0.0516
1 0 15 -1.4800 -0.0415
1 0 16 -0.9129 -0.0318
1 1 0 -11.4280 -0.1887
1 1 1 19.6955 0.0462
1 1 2 -22.5757 -0.1456
1 1 3 -12.1468 0.1672
1 1 4 3.7744 -0.2006
1 1 5 9.4179 0.1280
1 1 6 4.8957 0.0780
1 1 7 5.5686 -0.1150
1 1 8 -4.6301 0.0496
1 1 9 -10.5006 0.0613
1 1 10 2.5384 -0.0843
1 1 11 2.6113 0.0764
1 1 12 1.6252 -0.0218
1 1 13 1.7790 -0.0912
1 1 14 -1.2780 0.1490
1 1 15 -3.1248 -0.1634
1 1 16 0.8356 0.0944
1 2 0 5.3744 -0.5108
1 2 1 -24.2655 0.1991
1 2 2 3.8128 -0.0855
1 2 3 -14.9507 0.0414
1 2 4 7.2374 0.0240
1 2 5 14.8565 0.0135
1 2 6 7.0176 0.0547
1 2 7 -9.4106 -0.0655
1 2 8 -2.0439 0.0477
1 2 9 -6.0364 0.0088
1 2 10 -1.1457 -0.0622
1 2 11 8.2070 0.0523
1 2 12 1.6148 0.0045
1 2 13 -3.3452 -0.0988
1 2 14 0.1088 0.0348
1 2 15 -2.5884 0.0832
1 2 16 0.0650 -0.1410
1 2 17 2.1719 0.1322
1 3 0 14.5128 -0.7293
1 3 1 -17.6336 0.4799
1 3 2 -21.1626 -0.1287
1 3 4 -1.4647 0.2088
1 3 5 13.7452 -0.1136
1 3 6 2.7606 0.0489
1 3 7 -9.5512 -0.0425
1 3 8 -12.2087 0.0163
1 3 9 6.0803 0.0197
1 3 10 0.7642 -0.0742
1 3 11 3.6095 0.0330
1 3 12 3.1749 0.0171
1 3 13 -3.4849 -0.0744
1 3 14 -4.4414 -0.0002
1 3 15 1.8508 0.1310
1 3 16 0.4755 -0.1665
1 3 17 1.1655 0.1932
1 4 0 -27.9466 -0.7274
1 4 1 8.6048 0.5854
1 4 2 -12.1913 -0.0943
1 4 3 4.1263 -0.1792
1 4 4 26.0219 0.3292
1 4 5 -6.3761 -0.2324
1 4 6 -3.8494 0.0302
1 4 7 -6.7490 0.0665
1 4 8 -6.6960 -0.1141
1 4 9 0.1549 0.0381
1 4 10 11.8973 0.0116
1 4 11 -0.0220 -0.0431
1 4 12 -3.3264 0.0107
1 4 13 -0.9884 -0.0134
1 4 14 -2.1336 0.0328
1 4 15 -1.1918 0.0234
1 4 16 4.9129 -0.0445
1 4 17 -1.0908 0.1599
1 5 0 -7.3145 -0.3422
1 5 1 -18.1613 0.3366
1 5 2 20.4922 0.0063
1 5 3 1.3440 -0.2184
1 5 4 8.0685 0.2624
1 5 5 6.5258 -0.1989
1 5 6 -19.7760 -0.0152
1 5 7 -4.4652 0.1080
1 5 8 2.9790 -0.1279
1 5 9 2.5624 0.0017
1 5 10 6.3199 0.0974
1 5 11 2.3260 -0.1016
1 5 12 -6.2444 0.0332
1 5 13 -2.6049 0.0397
1 5 14 0.3820 -0.0206
1 5 15 1.6211 0.0393
1 5 16 2.3936 0.0240
1 5 17 -0.0910 -0.0111
1 6 0 -2.8024 0.1835
1 6 1 -1.3940 -0.0144
1 6 2 2.6092 0.0109
1 6 3 21.9384 -0.1260
1 6 4 -8.2094 0.1073
1 6 5 -6.0607 -0.0994
1 6 6 -3.4629 -0.0433
1 6 7 -11.5342 0.1067
1 6 8 8.4816 -0.1067
1 6 9 9.5208 -0.0009
1 6 10 -1.1807 0.1224
1 6 11 -1.5944 -0.1037
1 6 12 -2.8054 0.0256
1 6 13 -3.7370 0.0855
1 6 14 1.7689 -0.0619
1 6 15 4.3635 0.0249
1 6 16 -0.8394 0.0805
1 6 17 1.2282 -0.1674
1 7 0 -5.0800 0.5162
1 7 1 9.5683 -0.2835
1 7 2 6.3725 0.0060
1 7 3 1.9725 -0.0222
1 7 4 4.0456 -0.0317
1 7 5 -17.5179 0.0155
1 7 6 -3.4586 -0.0463
1 7 7 5.6156 0.0768
1 7 8 1.7030 -0.0859
1 7 9 7.7007 0.0445
1 7 10 0.9680 0.0931
1 7 11 -7.7709 -0.0914
1 7 12 -2.6451 0.0251
1 7 13 2.3480 0.0863
1 7 14 0.0041 -0.0760
1 7 15 4.3116 -0.0194
1 7 16 -0.4061 0.1493
1 7 17 -1.2320 -0.3051
1 8 0 -0.6500 0.6676
1 8 1 6.9369 -0.5232
1 8 2 8.2834 0.0691
1 8 3 -3.2062 0.1037
1 8 4 -6.7452 -0.1839
1 8 5 -3.8471 0.1416
1 8 6 -6.4019 -0.0427
1 8 7 9.0156 0.0172
1 8 8 7.0194 -0.0109
1 8 9 -1.1160 0.0239
1 8 10 -1.7762 0.0909
1 8 11 -4.4173 -0.0967
1 8 12 -2.8487 0.0174
1 8 13 3.5450 0.0777
1 8 14 3.1975 -0.0961
1 8 15 -0.1418 -0.0406
1 8 16 1.0254 0.1928
1 8 17 -3.2619 -0.3693
1 9 0 5.5732 0.5805
1 9 1 3.0397 -0.5340
1 9 2 3.2368 0.0864
1 9 3 -2.9295 0.1942
1 9 4 -8.9415 -0.2466
1 9 5 -2.3586 0.1967
1 9 6 4.9834 -0.0219
1 9 7 2.0033 -0.0674
1 9 8 7.9057 0.0820
1 9 9 -3.7646 0.0215
1 9 10 -5.7076 -0.0082
1 9 11 -0.8646 -0.0345
1 9 12 0.1873 0.0038
1 9 13 2.4002 0.0267
1 9 14 3.8666 -0.0689
1 9 15 -1.0033 -0.0512
1 9 16 -2.6589 0.2108
1 9 17 0.6568 -0.3690
1 10 0 3.1107 0.2349
1 10 1 5.4386 -0.2685
1 10 2 -4.0969 0.0221
1 10 3 -3.3342 0.2069
1 10 4 -3.7400 -0.1784
1 10 5 -1.5915 0.1351
1 10 6 7.0262 -0.0033
1 10 7 4.3321 -0.0853
1 10 8 -2.3905 0.1243
1 10 9 -0.2882 -0.0167
1 10 10 -5.5015 -0.0892
1 10 11 -1.5000 0.0793
1 10 12 4.6536 -0.0766
1 10 13 2.7818 -0.0138
1 10 14 -1.2262 0.0471
1 10 15 0.3717 -0.0923
1 10 16 -1.7632 0.1557
1 10 17 -2.4846 -0.2231
1 11 0 3.0021 -0.1774
1 11 1 0.0917 -0.0079
1 11 2 -1.9184 0.0614
1 11 3 -5.1808 0.0871
1 11 4 -0.1976 -0.0853
1 11 5 3.1768 0.0967
1 11 6 2.4768 -0.0328
1 11 7 3.6879 -0.0611
1 11 8 -2.8274 0.1201
1 11 9 -5.1212 -0.0655
1 11 10 0.2401 -0.0603
1 11 11 0.8017 0.0285
1 11 12 2.4039 -0.0255
1 11 13 2.3083 0.0073
1 11 14 -0.4098 0.0169
1 11 15 -3.2094 -0.0883
1 11 16 -0.4243 0.2566
1 12 0 1.1571 -0.2892
1 12 1 -1.4033 0.2072
1 12 2 -2.4372 -0.0373
1 12 3 -1.8600 0.0301
1 12 4 0.6231 0.0322
1 12 5 3.6345 -0.0454
1 12 6 2.4971 0.0463
1 12 7 -1.8769 -0.0624
1 12 8 -1.0666 0.0258
1 12 9 -3.6446 -0.0034
1 12 10 -0.2574 -0.0372
1 12 11 4.6403 -0.0506
1 12 12 -0.0851 0.0531
1 12 13 1.1007 0.0420
1 12 14 -1.6793 -0.0205
1 12 15 -1.8246 -0.0796
1 12 16 -0.4960 0.2454
1 13 0 -0.1510 -0.6753
1 13 1 -1.5670 0.4549
1 13 2 -2.2599 -0.0230
1 13 3 0.8576 -0.1288
1 13 4 0.8340 0.1469
1 13 5 3.1817 -0.1357
1 13 6 -0.5593 0.0762
1 13 7 -0.7704 -0.0255
1 13 8 -3.3099 -0.0398
1 13 9 0.2086 0.0025
1 13 10 1.1850 -0.0230
1 13 11 1.1770 0.0446
1 13 12 2.8082 -0.0144
1 13 13 -2.7263 0.0309
1 13 14 -1.2017 -0.0161
1 13 15 -0.4701 0.1234
1 14 0 -0.6735 -0.2169
1 14 1 -1.4356 0.2289
1 14 2 -0.2327 -0.0743
1 14 3 0.4278 -0.0533
1 14 4 2.0309 0.1403
1 14 5 0.3932 -0.1624
1 14 6 -0.4287 0.0653
1 14 7 -1.4520 -0.0076
1 14 8 -2.0517 -0.0504
1 14 9 1.7406 0.0806
1 14 10 0.4376 -0.1097
1 14 11 2.2499 0.0213
1 14 12 -1.4132 0.3014
1 14 13 -0.0273 -0.4309
1 15 4 0.8801 0.3419
1 15 5 0.1986 -0.1375
1 15 6 -1.2531 -0.0574
1 15 7 -0.9060 0.0730
1 15 8 -0.3263 -0.0215
1 15 9 1.1877 0.0299
1 15 10 0.7492 -0.1390
2 -12 0 1.8783 -0.5715
2 -12 1 1.0912 0.2906
2 -12 2 -0.4362 0.0604
2 -11 0 1.4025 -0.4633
2 -11 1 2.8624 0.4877
2 -11 2 -1.5519 -0.3134
2 -11 3 -0.4269 0.1083
2 -11 4 -1.1001 0.0435
2 -10 0 1.5841 -0.2518
2 -10 1 0.4399 0.2421
2 -10 2 0.6908 -0.0457
2 -10 3 -3.9559 -0.1210
2 -10 4 0.2849 0.0542
2 -10 5 0.6243 0.0595
2 -10 6 1.1110 -0.2018
2 -9 0 4.1970 0.1582
2 -9 1 -2.5467 -0.0219
2 -9 2 -2.3456 -0.0606
2 -9 3 -0.9385 -0.0210
2 -9 4 -1.3873 0.0672
2 -9 5 3.8491 -0.2097
2 -9 6 -0.7889 0.2284
2 -9 7 1.4773 -0.1357
2 -8 0 0.7423 0.4747
2 -8 1 -2.5753 -0.2807
2 -8 2 -4.4450 0.0307
2 -8 3 -0.3767 -0.0306
2 -8 4 2.7760 -0.0354
2 -8 5 0.4084 0.0371
2 -8 6 3.4101 -0.0377
2 -8 7 -3.4711 0.0398
2 -8 8 -0.4026 0.0974
2 -8 9 -0.6836 -0.1743
2 -7 0 -3.2914 0.6646
2 -7 1 -3.3026 -0.5195
2 -7 2 -3.3111 0.0875
2 -7 3 0.2591 0.0786
2 -7 4 4.9042 -0.1709
2 -7 5 2.2499 0.1217
2 -7 6 -2.5062 0.0413
2 -7 7 -0.1594 -0.0678
2 -7 8 -2.7325 0.0270
2 -7 9 0.3750 0.1520
2 -7 10 1.5063 -0.2736
2 -6 0 -7.9972 0.5413
2 -6 1 -6.1914 -0.4813
2 -6 2 2.4237 0.0583
2 -6 3 2.5322 0.1590
2 -6 4 3.1217 -0.1915
2 -6 5 2.3484 0.1365
2 -6 6 -3.1757 0.0439
2 -6 7 -4.0493 -0.0562
2 -6 8 1.4177 0.0342
2 -6 9 0.2877 -0.0315
2 -6 10 1.5446 0.1040
2 -6 11 1.3263 -0.2297
2 -5 0 -6.1901 0.1718
2 -5 1 -4.3205 -0.2794
2 -5 2 2.0639 0.0530
2 -5 3 9.0671 0.1862
2 -5 4 0.6580 -0.1939
2 -5 5 -2.6913 0.1615
2 -5 6 -2.0465 0.0130
2 -5 7 -3.0425 -0.0775
2 -5 8 0.5231 0.0796
2 -5 9 3.4793 -0.0475
2 -5 10 1.0314 -0.0624
2 -5 11 -0.5052 0.1422
2 -5 12 -1.1532 -0.1976
2 -4 0 -3.3247 -0.2172
2 -4 1 2.7860 0.0301
2 -4 2 5.3341 0.0223
2 -4 3 4.1797 0.1158
2 -4 4 3.1766 -0.0804
2 -4 5 -7.4295 0.0895
2 -4 6 -3.5470 -0.0028
2 -4 7 0.2763 -0.0678
2 -4 8 3.0204 0.0478
2 -4 9 2.1333 0.0122
2 -4 10 0.0463 -0.1268
2 -4 11 -0.3751 0.1021
2 -4 12 -2.3876 0.0121
2 -4 13 -0.3440 -0.1269
2 -3 0 -11.7262 -0.5473
2 -3 1 15.0041 0.3801
2 -3 2 5.6623 -0.0617
2 -3 3 1.2737 0.0043
2 -3 4 -3.8646 0.0812
2 -3 5 -3.7645 -0.0544
2 -3 6 -6.1559 0.0111
2 -3 7 4.8596 -0.0331
2 -3 8 4.0394 0.0135
2 -3 9 -0.1243 -0.0142
2 -3 10 0.6815 -0.0460
2 -3 11 -3.5119 0.0336
2 -3 12 -0.7942 0.0499
2 -3 13 0.9532 -0.1296
2 -2 0 6.3912 -0.7253
2 -2 1 2.3368 0.5741
2 -2 2 14.5468 -0.0896
2 -2 3 -6.0553 -0.1314
2 -2 4 -8.7253 0.1775
2 -2 5 -5.0737 -0.1301
2 -2 6 4.3770 0.0244
2 -2 7 -0.5537 -0.0242
2 -2 8 7.2319 -0.0088
2 -2 9 -0.6584 -0.0002
2 -2 10 -4.2698 -0.0105
2 -2 11 -0.9826 0.0311
2 -2 12 0.3056 -0.0625
2 -2 13 0.2082 0.1483
2 -2 14 2.2103 -0.1941
2 -1 0 19.3302 -0.5776
2 -1 1 7.6820 0.4758
2 -1 2 -4.6630 -0.0626
2 -1 3 0.0254 -0.2305
2 -1 4 -13.3240 0.2500
2 -1 5 -2.0181 -0.1967
2 -1 6 5.6639 0.0308
2 -1 7 7.9669 0.0502
2 -1 8 -2.3471 -0.0918
2 -1 9 0.2648 0.0534
2 -1 10 -4.0275 0.0030
2 -1 11 -1.3449 0.0152
2 -1 12 1.7487 0.0016
2 -1 13 1.5344 -0.0470
2 -1 14 1.3667 0.1186
2 -1 15 -1.8349 -0.1137
2 0 0 3.7320 -0.2451
2 0 1 19.9774 0.1887
2 0 2 -17.3394 0.0033
2 0 3 -8.9639 -0.2389
2 0 4 -2.2633 0.2252
2 0 5 0.3927 -0.1566
2 0 6 6.7162 -0.0086
2 0 7 7.1516 0.1225
2 0 8 -0.8810 -0.1171
2 0 9 -8.3600 0.0231
2 0 10 1.4949 0.1077
2 0 11 -1.2509 -0.0890
2 0 12 2.5824 0.0465
2 0 13 2.4247 -0.0375
2 0 14 -1.6550 0.0748
2 0 15 -0.0946 -0.1326
2 1 0 10.8832 0.1498
2 1 1 -15.0319 -0.0758
2 1 2 7.6623 0.0076
2 1 3 -25.6177 -0.1249
2 1 4 4.9992 0.1118
2 1 5 11.0292 -0.0313
2 1 6 5.0947 -0.0587
2 1 7 0.6919 0.1172
2 1 8 -1.7644 -0.0566
2 1 9 -6.5192 -0.0112
2 1 10 -2.3895 0.1051
2 1 11 6.3633 -0.0875
2 1 12 -0.8491 0.0280
2 1 13 2.4497 0.0200
2 1 14 -2.0259 -0.1046
2 1 15 -1.8657 0.1352
2 1 16 0.2850 -0.1155
2 2 0 11.8656 0.4330
2 2 1 -16.9890 -0.2327
2 2 2 -13.4666 -0.0247
2 2 3 4.3855 0.0803
2 2 4 -4.2897 -0.0606
2 2 5 15.7162 0.0744
2 2 6 7.8437 -0.0461
2 2 7 -7.5537 0.0713
2 2 8 -6.4999 -0.0385
2 2 9 -0.4260 0.0132
2 2 10 -0.7018 0.0397
2 2 11 3.1029 -0.0407
2 2 12 4.9649 -0.0197
2 2 13 -3.8576 0.0301
2 2 14 -1.9924 -0.0928
2 2 15 0.5632 0.1136
2 2 16 -1.0322 -0.0913
2 3 0 -3.9281 0.6637
2 3 1 -3.6033 -0.3837
2 3 2 -20.3509 0.0151
2 3 3 6.2042 0.2242
2 3 4 17.3409 -0.2033
2 3 5 0.7103 0.1647
2 3 6 3.5309 -0.0674
2 3 7 -4.5569 0.0424
2 3 8 -11.4577 -0.0156
2 3 9 0.7804 -0.0127
2 3 10 7.1101 0.0295
2 3 11 0.2746 -0.0353
2 3 12 1.1036 -0.0506
2 3 13 -1.2113 0.0633
2 3 14 -4.2474 -0.0617
2 3 15 1.2416 -0.0341
2 3 16 0.6608 0.2143
2 3 17 1.4647 -0.2270
2 4 0 -21.1339 0.6398
2 4 1 -5.1576 -0.4007
2 4 2 1.4468 0.1194
2 4 3 -0.0709 0.1927
2 4 4 17.4599 -0.2549
2 4 5 6.6711 0.2162
2 4 6 -12.3912 -0.0608
2 4 7 -5.3630 -0.0632
2 4 8 -2.3770 0.0647
2 4 9 -0.8429 -0.0328
2 4 10 7.9374 -0.0333
2 4 11 3.0192 0.0276
2 4 12 -4.6358 -0.0593
2 4 13 -1.6386 0.0193
2 4 14 -0.8865 0.0285
2 4 15 -0.2300 -0.0494
2 4 16 2.5475 0.1546
2 4 17 0.4773 -0.1161
2 5 0 -4.2918 0.3713
2 5 1 -18.5960 -0.2597
2 5 2 13.5533 0.1417
2 5 3 12.8873 0.1099
2 5 4 0.1647 -0.2159
2 5 5 3.7457 0.1549
2 5 6 -8.5379 0.0040
2 5 7 -13.2464 -0.1568
2 5 8 5.1196 0.1085
2 5 9 6.6226 -0.0212
2 5 10 0.8033 -0.0946
2 5 11 2.1164 0.0969
2 5 12 -2.0215 -0.0410
2 5 13 -7.5120 -0.0542
2 5 14 4.5248 0.1156
2 5 15 0.7400 -0.0049
2 5 16 0.1279 0.0095
2 5 17 2.4906 -0.0176
2 6 0 -4.1177 -0.0339
2 6 1 4.2226 -0.0405
2 6 2 -1.5040 0.1008
2 6 3 19.6088 -0.0223
2 6 4 -0.7447 -0.0846
2 6 5 -11.7098 0.0568
2 6 6 -4.1699 0.0169
2 6 7 -4.3589 -0.1420
2 6 8 2.2816 0.0938
2 6 9 9.9132 -0.0057
2 6 10 1.1837 -0.0878
2 6 11 -4.6871 0.1007
2 6 12 -2.4611 -0.0011
2 6 13 -0.5496 -0.0782
2 6 14 -0.9494 0.1198
2 6 15 4.8413 0.0427
2 6 16 0.3993 -0.1049
2 6 17 -1.1762 0.0652
2 7 0 -7.1391 -0.4048
2 7 1 9.0864 0.2247
2 7 2 10.2740 -0.0372
2 7 3 -1.7985 -0.1181
2 7 4 4.0544 0.0888
2 7 5 -13.1783 -0.0717
2 7 6 -7.4291 0.0489
2 7 7 6.1298 -0.1134
2 7 8 4.6739 0.0759
2 7 9 3.6799 0.0215
2 7 10 1.3886 -0.0799
2 7 11 -6.2295 0.1182
2 7 12 -3.3539 -0.0228
2 7 13 1.6485 -0.0522
2 7 14 3.3836 0.1172
2 7 15 -0.4054 -0.0053
2 7 16 2.7010 -0.1410
2 7 17 -2.5805 0.1536
2 8 0 3.0389 -0.6938
2 8 1 1.6674 0.4321
2 8 2 11.8875 -0.1351
2 8 3 -1.9118 -0.1760
2 8 4 -11.2669 0.2207
2 8 5 -0.1397 -0.1597
2 8 6 -6.0570 0.0663
2 8 7 5.6297 -0.0496
2 8 8 10.0780 0.0338
2 8 9 -2.5672 0.0409
2 8 10 -3.2629 -0.0437
2 8 11 -2.5745 0.0904
2 8 12 -1.9279 -0.0254
2 8 13 1.1554 -0.0649
2 8 14 5.2708 0.1083
2 8 15 -0.3249 -0.0023
2 8 16 -1.4259 -0.2376
2 8 17 -0.2314 0.2805
2 9 0 4.5762 -0.6418
2 9 1 6.7563 0.3779
2 9 2 -1.8161 -0.1410
2 9 3 1.2506 -0.1490
2 9 4 -9.8997 0.2803
2 9 5 -4.7111 -0.2042
2 9 6 7.9678 0.0197
2 9 7 1.8599 0.1051
2 9 8 3.8268 -0.0672
2 9 9 0.6355 0.0475
2 9 10 -7.1595 0.0225
2 9 11 -3.1089 -0.0204
2 9 12 4.0290 0.0512
2 9 13 1.6550 -0.1120
2 9 14 1.1784 0.0354
2 9 15 1.2662 0.1118
2 9 16 -2.2329 -0.3377
2 9 17 -1.6643 0.3615
2 10 0 6.5802 -0.2893
2 10 1 2.3187 0.2100
2 10 2 -0.0065 -0.1185
2 10 3 -8.3191 -0.0590
2 10 4 0.1230 0.1911
2 10 5 -2.1928 -0.1004
2 10 6 4.1504 -0.0476
2 10 7 7.7536 0.1274
2 10 8 -3.3810 -0.0545
2 10 9 -2.9239 0.0294
2 10 10 -2.5518 0.0334
2 10 11 -1.2869 -0.0911
2 10 12 3.0002 0.0555
2 10 13 3.1415 -0.0334
2 10 14 0.6307 -0.0679
2 10 15 -2.1045 0.1069
2 10 16 -1.2522 -0.1742
2 10 17 -0.5058 0.2272
2 11 0 0.5508 0.0907
2 11 1 1.5222 0.0317
2 11 2 -2.7511 -0.0611
2 11 3 -4.0402 0.0535
2 11 4 -1.9996 0.0134
2 11 5 4.3249 0.0025
2 11 6 3.0622 -0.0279
2 11 7 1.4398 0.0794
2 11 8 -0.7663 -0.0717
2 11 9 -5.9665 0.0347
2 11 10 -0.1813 0.0443
2 11 11 2.0401 -0.1393
2 11 12 2.2460 0.0560
2 11 13 1.5406 0.0012
2 11 14 -0.3283 -0.0703
2 11 15 -2.3231 0.1546
2 11 16 -1.2336 -0.2514
2 12 0 2.4198 0.3368
2 12 1 -2.6394 -0.2114
2 12 2 -2.2356 0.0726
2 12 3 -1.8294 0.1075
2 12 4 0.7870 -0.1125
2 12 5 3.1463 0.0540
2 12 6 2.9931 -0.0331
2 12 7 -2.1259 0.0630
2 12 8 -1.6783 -0.0440
2 12 9 -2.5162 -0.0344
2 12 10 -0.3095 0.0231
2 12 11 3.2450 -0.0332
2 12 12 2.3936 0.0239
2 12 13 -0.8894 -0.0865
2 12 14 -1.4163 0.1017
2 12 15 -1.1678 0.0895
2 12 16 -0.7254 -0.2503
2 13 0 0.0842 0.6873
2 13 1 -1.1670 -0.4199
2 13 2 -2.7612 0.1091
2 13 3 0.4321 0.1313
2 13 4 2.1367 -0.1835
2 13 5 1.2166 0.1305
2 13 6 1.6891 -0.0745
2 13 7 -2.6006 0.0060
2 13 8 -2.4071 0.0401
2 13 9 -0.0582 -0.0861
2 13 10 1.8447 0.0175
2 13 11 0.7263 0.0205
2 13 12 2.4030 -0.0072
2 13 13 -2.0579 -0.0022
2 13 14 -1.4340 0.0591
2 13 15 -0.7517 -0.0172
2 14 0 -1.2440 0.3299
2 14 1 -1.0291 -0.2361
2 14 2 -0.2768 0.0828
2 14 3 -0.1852 0.0555
2 14 4 2.7225 -0.1228
2 14 5 0.2823 0.1138
2 14 6 -0.5574 -0.1037
2 14 7 -1.7712 0.0411
2 14 8 -0.6369 0.0488
2 14 9 -0.3691 -0.1627
2 14 10 2.3989 0.1118
2 14 11 1.5497 0.1136
2 14 12 -2.2253 -0.2823
2 14 13 1.0953 0.3494
2 15 3 1.0609 0.2651
2 15 4 1.0725 -0.2561
2 15 5 -0.5532 0.0820
2 15 6 -0.6185 0.0815
2 15 7 -1.0576 -0.1055
2 15 8 0.1501 -0.0153
2 15 9 -0.2417 0.0368
2 15 10 2.7271 0.1721
2 15 11 -1.2654 -0.3759
3 -12 0 1.4058 0.5906
3 -11 0 -0.2624 0.3000
3 -11 1 2.0779 -0.1461
3 -11 2 0.1705 0.0700
3 -11 3 -1.8976 -0.0895
3 -10 0 3.1181 0.2353
3 -10 1 -1.0253 -0.2530
3 -10 2 0.2967 0.1187
3 -10 3 -1.5042 0.0479
3 -10 4 -1.2135 -0.0966
3 -10 5 1.3786 -0.0100
3 -9 0 2.0874 -0.0846
3 -9 1 -0.5169 0.0082
3 -9 2 -3.6843 0.0584
3 -9 3 0.3906 -0.1111
3 -9 4 -0.1640 0.0803
3 -9 5 0.0854 0.0121
3 -9 6 2.2584 -0.1574
3 -8 0 0.5264 -0.4593
3 -8 1 -1.4546 0.2389
3 -8 2 -3.5767 -0.0239
3 -8 3 -1.4129 -0.1014
3 -8 4 3.0377 0.0426
3 -8 5 1.0456 0.0222
3 -8 6 0.6603 -0.0201
3 -8 7 -1.3156 -0.0773
3 -8 8 -0.0474 0.1657
3 -7 0 -4.4089 -0.6192
3 -7 1 -3.7988 0.3659
3 -7 2 -1.0832 -0.1459
3 -7 3 0.1510 -0.0616
3 -7 4 2.6054 0.1367
3 -7 5 2.8472 -0.1403
3 -7 6 -2.0131 0.0425
3 -7 7 -0.0743 0.1222
3 -7 8 -2.8902 -0.2135
3 -7 9 1.7227 0.2454
3 -6 0 -3.1419 -0.5664
3 -6 1 -6.6302 0.3549
3 -6 2 0.2272 -0.1510
3 -6 3 4.7450 -0.1028
3 -6 4 2.2219 0.2177
3 -6 5 -0.1516 -0.1548
3 -6 6 -0.3904 0.0094
3 -6 7 -3.6376 0.1017
3 -6 8 0.5387 -0.0157
3 -6 9 0.3454 -0.1249
3 -6 10 1.7398 0.2189
3 -5 0 -4.8996 -0.2850
3 -5 1 -1.5045 0.2194
3 -5 2 1.0886 -0.1157
3 -5 3 5.2586 -0.0583
3 -5 4 3.8078 0.1662
3 -5 5 -3.5270 -0.1053
3 -5 6 -2.2818 0.0190
3 -5 7 -1.6530 0.0484
3 -5 8 0.3969 -0.0030
3 -5 9 2.6478 -0.0118
3 -5 10 -0.0537 -0.0704
3 -5 11 0.7792 0.1725
3 -4 0 -6.5810 0.1192
3 -4 1 3.6234 -0.0317
3 -4 2 5.5484 -0.0140
3 -4 3 2.8823 0.0288
3 -4 4 1.6121 0.0318
3 -4 5 -4.2210 -0.0111
3 -4 6 -4.5039 -0.0240
3 -4 7 1.8173 0.0944
3 -4 8 0.5939 -0.0927
3 -4 9 2.3682 0.0293
3 -4 10 1.5307 0.0426
3 -4 11 -3.1951 -0.1632
3 -4 12 0.9160 0.2530
3 -3 0 -4.7816 0.4732
3 -3 1 5.0657 -0.2744
3 -3 2 9.7359 0.0985
3 -3 3 1.4319 0.1016
3 -3 4 -5.9897 -0.1210
3 -3 5 -2.3620 0.0906
3 -3 6 -2.1415 -0.0360
3 -3 7 -0.3514 0.0366
3 -3 8 5.8917 -0.0549
3 -3 9 -0.3081 0.0113
3 -3 10 -1.0241 0.0154
3 -3 11 -0.6115 -0.0178
3 -3 12 -1.9586 -0.0850
3 -3 13 1.0631 0.2087
3 -2 0 11.9632 0.6648
3 -2 1 1.8443 -0.3887
3 -2 2 6.9492 0.1395
3 -2 3 0.0250 0.1285
3 -2 4 -8.0054 -0.2018
3 -2 5 -5.9128 0.1531
3 -2 6 3.3283 -0.0678
3 -2 7 3.3467 -0.0031
3 -2 8 0.5312 0.0093
3 -2 9 2.9907 -0.0409
3 -2 10 -4.6191 0.0118
3 -2 11 -0.3325 0.0317
3 -2 12 -0.5370 -0.0427
3 -2 13 1.4797 -0.0217
3 -2 14 -0.0165 0.1122
3 -1 0 8.8148 0.5398
3 -1 1 15.0144 -0.3408
3 -1 2 -6.5966 0.1450
3 -1 3 -3.9843 0.0992
3 -1 4 -5.7716 -0.2354
3 -1 5 -3.2634 0.1817
3 -1 6 2.8464 -0.0561
3 -1 7 7.6177 -0.0672
3 -1 8 -0.8602 0.0450
3 -1 9 -2.3052 -0.0108
3 -1 10 -1.0331 -0.0151
3 -1 11 -1.9799 0.0248
3 -1 12 1.3827 0.0071
3 -1 13 1.8711 -0.0448
3 -1 14 -0.1948 0.0883
3 0 0 3.9832 0.2328
3 0 1 4.9602 -0.1944
3 0 2 1.6143 0.0751
3 0 3 -18.8630 0.0826
3 0 4 0.9011 -0.1884
3 0 5 1.5882 0.0994
3 0 6 5.7582 0.0189
3 0 7 2.6728 -0.1124
3 0 8 1.6112 0.0748
3 0 9 -6.2177 -0.0086
3 0 10 -1.1552 -0.0216
3 0 11 1.6086 0.0736
3 0 12 0.9387 -0.0728
3 0 13 1.5055 0.0647
3 0 14 -0.4042 -0.0672
3 0 15 -0.6140 0.1076
3 1 0 14.2337 -0.1574
3 1 1 -10.3843 0.0603
3 1 2 -5.7046 -0.0402
3 1 3 -5.9450 0.0051
3 1 4 -6.9172 -0.0088
3 1 5 11.6863 -0.0466
3 1 6 6.9871 0.0692
3 1 7 -1.9873 -0.0889
3 1 8 -3.1369 0.0795
3 1 9 -0.5950 -0.0113
3 1 10 -5.2803 -0.0236
3 1 11 5.8350 0.0854
3 1 12 0.8273 -0.0707
3 1 13 0.4857 0.0231
3 1 14 -2.0352 -0.0168
3 1 15 0.1883 0.0348
3 2 0 6.7783 -0.5211
3 2 1 -4.6807 0.3059
3 2 2 -20.2922 -0.0833
3 2 3 3.2932 -0.1133
3 2 4 4.2668 0.1375
3 2 5 5.8693 -0.1024
3 2 6 7.1183 0.0799
3 2 7 -2.1229 -0.0703
3 2 8 -8.5997 0.0722
3 2 9 -1.0667 0.0170
3 2 10 3.7878 -0.0467
3 2 11 -0.7360 0.0564
3 2 12 4.7621 -0.0242
3 2 13 -3.8332 -0.0477
3 2 14 0.9731 0.0730
3 2 15 -3.8384 -0.1384
3 2 16 3.0863 0.1750
3 3 0 -11.8436 -0.6377
3 3 1 -3.7686 0.3651
3 3 2 -9.1609 -0.0616
3 3 3 -3.8555 -0.1535
3 3 4 17.7042 0.2029
3 3 5 4.1127 -0.1440
3 3 6 -1.3565 0.0920
3 3 7 -4.0807 -0.0034
3 3 8 -4.7519 -0.0141
3 3 9 -3.3076 0.0414
3 3 10 6.5176 -0.0222
3 3 11 3.6201 -0.0070
3 3 12 -4.1562 0.0105
3 3 13 1.8910 -0.0778
3 3 14 -4.2225 0.0603
3 3 15 1.0636 -0.0495
3 3 16 0.5467 0.0464
3 4 0 -7.3998 -0.4696
3 4 1 -20.1146 0.3371
3 4 2 10.0395 -0.0938
3 4 3 1.6716 -0.1308
3 4 4 8.2349 0.2498
3 4 5 10.2325 -0.1680
3 4 6 -9.5872 0.0484
3 4 7 -8.3557 0.0846
3 4 8 0.0737 -0.0917
3 4 9 2.4689 0.0284
3 4 10 1.7590 0.0221
3 4 11 4.9035 -0.0758
3 4 12 -3.4287 0.0466
3 4 13 -3.9129 -0.0681
3 4 14 1.2937 0.0026
3 4 15 -0.8327 0.0771
3 4 16 2.6220 -0.0580
3 5 0 -5.5267 -0.1300
3 5 1 -6.1428 0.1989
3 5 2 -1.7028 -0.0823
3 5 3 19.7817 -0.0561
3 5 4 1.0760 0.1398
3 5 5 -2.4204 -0.0587
3 5 6 -4.1837 -0.0324
3 5 7 -9.0141 0.1018
3 5 8 0.0304 -0.1048
3 5 9 8.2981 -0.0040
3 5 10 2.2163 0.0622
3 5 11 -2.0820 -0.0969
3 5 12 -1.4281 0.0182
3 5 13 -2.5730 0.0094
3 5 14 -0.9694 -0.0264
3 5 15 3.4448 0.0926
3 5 16 0.5051 -0.0231
3 5 17 -0.3033 0.0518
3 6 0 -8.6739 0.2847
3 6 1 5.0695 -0.0677
3 6 2 4.9026 -0.0281
3 6 3 6.6565 0.0649
3 6 4 8.9133 -0.0349
3 6 5 -13.4534 0.0281
3 6 6 -6.9310 -0.0553
3 6 7 1.1570 0.0884
3 6 8 1.1760 -0.1337
3 6 9 5.6320 0.0191
3 6 10 3.9967 0.0708
3 6 11 -5.2961 -0.0916
3 6 12 -3.7734 -0.0017
3 6 13 1.2565 0.0865
3 6 14 -0.3438 -0.0697
3 6 15 3.0670 0.1129
3 6 16 0.4130 0.0043
3 6 17 -0.4114 -0.0746
3 7 0 -6.1416 0.5569
3 7 1 4.6240 -0.3039
3 7 2 13.2702 0.0375
3 7 3 -0.7936 0.1295
3 7 4 -2.4467 -0.1375
3 7 5 -4.0791 0.0553
3 7 6 -11.3483 -0.0468
3 7 7 5.6852 0.0501
3 7 8 6.8508 -0.0970
3 7 9 2.0422 0.0182
3 7 10 -1.6751 0.0641
3 7 11 -2.1499 -0.0547
3 7 12 -4.8199 -0.0011
3 7 13 2.0652 0.1030
3 7 14 2.8787 -0.0866
3 7 15 0.7106 0.1038
3 7 16 0.4411 0.0167
3 7 17 -0.8549 -0.1832
3 8 0 1.1093 0.6827
3 8 1 5.3120 -0.4343
3 8 2 5.3860 0.0732
3 8 3 3.7558 0.1389
3 8 4 -11.7982 -0.1881
3 8 5 -4.5647 0.1086
3 8 6 1.8081 -0.0674
3 8 7 1.2737 0.0022
3 8 8 7.1586 0.0129
3 8 9 2.2122 -0.0360
3 8 10 -6.4982 0.0817
3 8 11 -2.4787 -0.0300
3 8 12 -0.3408 -0.0129
3 8 13 1.8132 0.1057
3 8 14 3.0591 -0.0702
3 8 15 0.3445 -0.0209
3 8 16 -0.8945 0.1287
3 8 17 -0.6865 -0.2838
3 9 0 5.8483 0.4633
3 9 1 6.2500 -0.3590
3 9 2 -0.1080 0.1454
3 9 3 -3.1996 0.0351
3 9 4 -3.7419 -0.1813
3 9 5 -7.2752 0.1693
3 9 6 5.8237 -0.0571
3 9 7 6.0623 -0.0756
3 9 8 0.7284 0.1108
3 9 9 -0.7358 -0.0389
3 9 10 -4.8219 0.0257
3 9 11 -2.4078 0.0361
3 9 12 1.6262 -0.0447
3 9 13 3.8631 0.0489
3 9 14 0.1556 -0.0131
3 9 15 1.0537 -0.0810
3 9 16 -2.4109 0.0868
3 9 17 -0.2403 -0.1758
3 10 0 1.3131 0.0552
3 10 1 5.9398 -0.1543
3 10 2 -1.9273 0.1139
3 10 3 -5.9829 0.0021
3 10 4 -2.9586 -0.1056
3 10 5 1.3313 0.0765
3 10 6 2.3691 0.0564
3 10 7 6.1294 -0.1317
3 10 8 -0.7820 0.1183
3 10 9 -5.1265 -0.0140
3 10 10 -2.0219 -0.0112
3 10 11 0.2773 0.0519
3 10 12 1.4097 -0.0850
3 10 13 4.1770 0.0757
3 10 14 -0.2382 -0.0797
3 10 15 -2.1961 -0.0543
3 10 16 -0.0761 0.1553
3 11 0 2.7292 -0.2556
3 11 1 -0.7711 0.0850
3 11 2 -1.0609 -0.0067
3 11 3 -4.4295 -0.0100
3 11 4 -2.4235 0.0370
3 11 5 5.1549 -0.0586
3 11 6 2.2877 0.0995
3 11 7 1.4505 -0.0837
3 11 8 -1.7742 0.0615
3 11 9 -3.7213 -0.0361
3 11 10 -2.2134 0.0263
3 11 11 3.2169 0.0439
3 11 12 2.3113 -0.1594
3 11 13 1.3613 0.1149
3 11 14 -1.3062 -0.0220
3 11 15 -1.0471 -0.1512
3 11 16 -1.2243 0.2646
3 12 0 2.6036 -0.5029
3 12 1 -1.1423 0.3705
3 12 2 -4.8144 -0.0782
3 12 3 0.9010 -0.1269
3 12 4 -0.8538 0.1730
3 12 5 3.1120 -0.0926
3 12 6 3.3989 0.0485
3 12 7 -1.9296 -0.0505
3 12 8 -3.1532 0.0379
3 12 9 -0.8388 -0.0022
3 12 10 -0.4481 -0.0728
3 12 11 2.5236 0.1192
3 12 12 3.0904 -0.1153
3 12 13 -1.4872 -0.0333
3 12 14 -0.9508 0.1141
3 12 15 -1.3450 -0.0874
3 13 0 0.0840 -0.6757
3 13 1 -1.6958 0.4293
3 13 2 -1.2309 -0.1229
3 13 3 -1.9115 -0.0712
3 13 4 3.9427 0.1514
3 13 5 0.9375 -0.1373
3 13 6 -0.1160 0.0672
3 13 7 0.2016 -0.0102
3 13 8 -4.7449 -0.0767
3 13 9 1.3367 0.0952
3 13 10 1.2669 -0.0412
3 13 11 1.9044 -0.0472
3 13 12 0.0588 0.0343
3 13 13 0.3143 0.0951
3 13 14 -2.7844 -0.2444
3 14 0 -0.8944 -0.3323
3 14 1 -1.6066 0.3203
3 14 2 -0.9153 -0.1935
3 14 3 1.8542 0.0226
3 14 4 0.1101 0.0464
3 14 5 2.1035 -0.0528
3 14 6 -1.3042 0.0239
3 14 7 -1.4577 -0.0064
3 14 8 -1.1351 -0.0968
3 14 9 1.0662 0.1428
3 14 10 0.6887 -0.0088
3 14 11 2.1077 -0.1719
3 14 12 -0.7894 0.2608
3 14 13 -1.8735 -0.2076
3 15 3 1.4364 -0.2534
3 15 4 0.3246 0.1762
3 15 5 0.5127 0.0079
3 15 6 -1.2479 -0.1234
3 15 7 -0.8887 0.0564
3 15 8 -0.1684 0.0338
3 15 9 1.3021 0.0197
3 15 10 0.1655 -0.1592
3 15 11 0.8304 0.3391
4 -11 0 1.2445 -0.2440
4 -11 1 -0.3883 0.0031
4 -10 0 1.4292 0.0558
4 -10 1 0.4327 0.0422
4 -10 2 -1.1183 -0.1375
4 -10 3 -0.4794 0.0995
4 -9 0 1.6931 0.2017
4 -9 1 -0.5458 -0.1440
4 -9 2 -1.6736 0.1097
4 -9 3 -0.5755 -0.0457
4 -9 4 -0.7998 -0.0502
4 -9 5 2.3583 0.1896
4 -8 0 -0.3384 0.4994
4 -8 1 -1.4636 -0.3532
4 -8 2 -2.4306 0.0654
4 -8 3 -0.7466 0.1635
4 -8 4 2.0874 -0.0993
4 -8 5 0.4972 -0.1261
4 -8 6 -0.0568 0.2765
4 -7 0 -1.1637 0.5452
4 -7 1 -5.5243 -0.3582
4 -7 2 0.7214 0.1181
4 -7 3 -0.1744 0.0668
4 -7 4 1.3554 -0.1186
4 -7 5 2.8687 0.1094
4 -7 6 -1.3741 -0.1065
4 -7 7 -1.9254 0.0514
4 -7 8 1.1942 0.0240
4 -6 0 -2.9792 0.3614
4 -6 1 -3.6736 -0.3103
4 -6 2 -1.8635 0.1712
4 -6 3 5.2519 0.0119
4 -6 4 1.0932 -0.1237
4 -6 5 0.0490 0.1085
4 -6 6 -0.7284 -0.0580
4 -6 7 -1.6607 -0.0133
4 -6 8 -0.8305 0.0583
4 -6 9 1.4112 -0.0294
4 -5 0 -5.6033 0.0419
4 -5 1 -0.4732 -0.1131
4 -5 2 1.8959 0.0880
4 -5 3 2.8061 0.0070
4 -5 4 3.1521 -0.0753
4 -5 5 -1.2463 0.0421
4 -5 6 -4.0476 0.0097
4 -5 7 0.6286 -0.0601
4 -5 8 -0.2056 0.0924
4 -5 9 1.2570 -0.0356
4 -5 10 0.7611 -0.0270
4 -4 0 -6.0782 -0.3292
4 -4 1 0.6792 0.1523
4 -4 2 7.4001 -0.0093
4 -4 3 1.8169 -0.0236
4 -4 4 -0.8721 -0.0050
4 -4 5 -0.8640 -0.0075
4 -4 6 -3.9585 0.0344
4 -4 7 -0.1103 -0.0339
4 -4 8 2.4765 0.0459
4 -4 9 0.5923 -0.0172
4 -4 10 0.9373 0.0080
4 -4 11 -1.3869 -0.0143
4 -3 0 1.5624 -0.5640
4 -3 1 0.9864 0.3712
4 -3 2 6.8640 -0.1138
4 -3 3 3.6735 -0.0547
4 -3 4 -5.3041 0.1065
4 -3 5 -3.4421 -0.0969
4 -3 6 -0.1861 0.0680
4 -3 7 0.2224 -0.0034
4 -3 8 2.4744 -0.0079
4 -3 9 1.8850 0.0177
4 -3 10 -2.3615 -0.0366
4 -3 11 0.5481 0.0486
4 -3 12 -1.5107 -0.0859
4 -2 0 5.5259 -0.5514
4 -2 1 8.3865 0.4111
4 -2 2 1.6531 -0.1474
4 -2 3 -1.1640 -0.0658
4 -2 4 -2.8114 0.1526
4 -2 5 -6.1881 -0.1277
4 -2 6 1.5946 0.0834
4 -2 7 3.9425 -0.0040
4 -2 8 0.5075 -0.0273
4 -2 9 0.5397 -0.0108
4 -2 10 -1.2499 0.0541
4 -2 11 -2.2029 -0.1014
4 -2 12 1.1592 0.0808
4 -2 13 -0.0521 -0.0870
4 -1 0 3.2918 -0.3231
4 -1 1 10.6866 0.3147
4 -1 2 0.1483 -0.1441
4 -1 3 -7.8557 -0.0436
4 -1 4 -3.4840 0.1490
4 -1 5 -0.7265 -0.1273
4 -1 6 0.9638 0.0625
4 -1 7 4.5811 0.0207
4 -1 8 1.9192 -0.0751
4 -1 9 -4.2114 0.0222
4 -1 10 0.6816 0.0300
4 -1 11 -2.4111 -0.0800
4 -1 12 2.2650 0.0725
4 -1 13 -0.4679 -0.0383
4 0 0 6.6102 0.0242
4 0 1 0.1330 0.0809
4 0 2 0.6112 -0.0612
4 0 3 -9.1932 -0.0028
4 0 4 -5.8448 0.0625
4 0 5 4.7311 -0.0569
4 0 6 4.6411 -0.0064
4 0 7 0.3654 0.0655
4 0 8 1.1801 -0.1207
4 0 9 -3.1248 0.0603
4 0 10 -2.6390 0.0163
4 0 11 2.2054 -0.0542
4 0 12 0.6722 0.0358
4 0 13 0.7400 0.0391
4 0 14 -0.0423 -0.0551
4 1 0 11.4420 0.3815
4 1 1 -3.1038 -0.1818
4 1 2 -11.3982 0.0461
4 1 3 -1.4220 0.0236
4 1 4 -3.3692 -0.0416
4 1 5 5.3296 0.0502
4 1 6 6.0449 -0.1004
4 1 7 1.1193 0.0841
4 1 8 -5.8762 -0.0623
4 1 9 0.0736 0.0181
4 1 10 -0.9175 0.0203
4 1 11 0.5029 -0.0196
4 1 12 3.7833 0.0589
4 1 13 -1.7884 -0.0533
4 1 14 0.2372 0.0711
4 1 15 -1.1886 -0.0942
4 2 0 -2.3480 0.6056
4 2 1 0.8736 -0.3732
4 2 2 -14.3348 0.1218
4 2 3 -3.8888 0.0577
4 2 4 9.7337 -0.1474
4 2 5 1.8057 0.1271
4 2 6 4.6658 -0.1073
4 2 7 -1.0710 0.0393
4 2 8 -5.3838 0.0164
4 2 9 -3.2145 -0.0090
4 2 10 5.4360 0.0263
4 2 11 -1.0221 -0.0162
4 2 12 2.2221 0.0520
4 2 13 -0.3446 -0.0225
4 2 14 -2.3875 -0.0336
4 2 15 0.2664 0.0042
4 3 0 -7.4983 0.5717
4 3 1 -11.1936 -0.4038
4 3 2 0.4482 0.1754
4 3 3 -4.6272 0.0283
4 3 4 8.9055 -0.1819
4 3 5 10.0543 0.1574
4 3 6 -4.9342 -0.0546
4 3 7 -4.0204 -0.0229
4 3 8 -1.8806 0.0632
4 3 9 -1.1136 -0.0088
4 3 10 2.0297 0.0145
4 3 11 5.1722 -0.0091
4 3 12 -3.0966 0.0106
4 3 13 -0.7051 0.0244
4 3 14 -1.4510 -0.1451
4 3 15 0.5787 0.1413
4 4 0 -2.4875 0.2948
4 4 1 -13.5149 -0.2729
4 4 2 -1.8759 0.1464
4 4 3 12.6119 0.0069
4 4 4 1.4817 -0.1371
4 4 5 5.0846 0.1108
4 4 6 -1.9891 0.0191
4 4 7 -9.2477 -0.0622
4 4 8 -1.5197 0.0975
4 4 9 6.0656 -0.0639
4 4 10 -0.0869 0.0228
4 4 11 1.8418 0.0414
4 4 12 0.3595 -0.0916
4 4 13 -5.4647 0.0307
4 4 14 1.2550 -0.0569
4 4 15 0.9871 0.0080
4 4 16 -0.4059 0.0602
4 5 0 -7.6808 -0.1024
4 5 1 -0.3127 -0.0176
4 5 2 -2.7484 0.0350
4 5 3 11.7201 0.0049
4 5 4 8.4243 -0.0530
4 5 5 -7.4927 0.0410
4 5 6 -3.3933 0.0799
4 5 7 -3.9967 -0.1133
4 5 8 -1.0910 0.1158
4 5 9 5.3311 -0.0750
4 5 10 4.8450 -0.0173
4 5 11 -4.5116 0.0683
4 5 12 -0.7048 -0.0946
4 5 13 -1.6152 -0.0219
4 5 14 -0.8222 0.0211
4 5 15 2.0531 0.0115
4 5 16 0.9846 0.0682
4 6 0 -8.9364 -0.4589
4 6 1 1.2301 0.2511
4 6 2 10.7217 -0.0651
4 6 3 0.9928 -0.0382
4 6 4 5.9235 0.0708
4 6 5 -6.0798 -0.0387
4 6 6 -9.4115 0.0795
4 6 7 0.8057 -0.1016
4 6 8 4.8322 0.0791
4 6 9 1.9960 -0.0563
4 6 10 2.4999 -0.0450
4 6 11 -2.2174 0.0753
4 6 12 -5.4547 -0.0682
4 6 13 1.5818 -0.0563
4 6 14 1.2211 0.1020
4 6 15 0.3956 -0.0063
4 6 16 1.4888 0.0824
4 7 0 -1.3234 -0.6481
4 7 1 0.1364 0.4311
4 7 2 10.7042 -0.1276
4 7 3 4.9870 -0.0764
4 7 4 -8.4354 0.1451
4 7 5 -2.0899 -0.0891
4 7 6 -5.2359 0.0474
4 7 7 -0.0256 -0.0505
4 7 8 8.1947 0.0083
4 7 9 2.5439 -0.0127
4 7 10 -3.7741 -0.0357
4 7 11 -1.9235 0.0368
4 7 12 -1.7014 -0.0032
4 7 13 -1.2931 -0.0685
4 7 14 4.6158 0.1412
4 7 15 0.0537 -0.0241
4 7 16 -0.2444 0.0384
4 8 0 3.9969 -0.5895
4 8 1 5.4956 0.4745
4 8 2 2.4769 -0.1858
4 8 3 2.8198 -0.0565
4 8 4 -6.5329 0.1420
4 8 5 -8.1671 -0.0975
4 8 6 3.8393 -0.0010
4 8 7 1.9536 0.0330
4 8 8 5.1980 -0.0673
4 8 9 0.6086 0.0286
4 8 10 -3.0963 -0.0063
4 8 11 -5.7146 -0.0026
4 8 12 2.4629 0.0572
4 8 13 1.3160 -0.0771
4 8 14 0.8170 0.1357
4 8 15 2.5426 -0.0329
4 8 16 -2.0590 -0.0343
4 9 0 3.9278 -0.2619
4 9 1 5.3126 0.2908
4 9 2 2.5798 -0.1414
4 9 3 -6.2587 -0.0518
4 9 4 -2.1070 0.0986
4 9 5 -3.9082 -0.0517
4 9 6 0.8716 -0.0340
4 9 7 9.4243 0.0778
4 9 8 -1.1524 -0.1100
4 9 9 -2.0263 0.0730
4 9 10 -2.5239 0.0048
4 9 11 -3.0007 -0.0194
4 9 12 1.6193 0.0609
4 9 13 2.9324 -0.0348
4 9 14 2.1595 0.0563
4 9 15 -2.1252 -0.0417
4 9 16 0.1939 -0.0350
4 10 0 2.2656 0.1402
4 10 1 3.1071 -0.0017
4 10 2 -0.2274 -0.0360
4 10 3 -4.8232 -0.0127
4 10 4 -5.0533 0.0103
4 10 5 3.8576 -0.0054
4 10 6 1.9329 0.0007
4 10 7 3.0590 0.0680
4 10 8 2.0541 -0.1391
4 10 9 -6.1477 0.0984
4 10 10 -2.3919 0.0191
4 10 11 0.8472 -0.0235
4 10 12 2.5232 0.0472
4 10 13 1.9999 -0.0566
4 10 14 -0.0521 0.0111
4 10 15 -0.2365 0.0526
4 10 16 -1.9252 -0.1839
4 11 0 4.2282 0.4526
4 11 1 -1.5732 -0.2645
4 11 2 -1.3859 0.0637
4 11 3 -3.5010 0.0346
4 11 4 -1.0501 -0.0748
4 11 5 1.5172 0.1001
4 11 6 6.2247 -0.0576
4 11 7 -1.6656 0.0361
4 11 8 -1.3722 -0.0488
4 11 9 -2.4393 0.0342
4 11 10 -2.6082 -0.0143
4 11 11 2.3026 0.0554
4 11 12 3.9995 0.0134
4 11 13 -0.9664 -0.1576
4 11 14 0.8367 0.1416
4 11 15 -2.4247 -0.1021
4 12 0 2.1942 0.6596
4 12 1 -0.9020 -0.4469
4 12 2 -3.3936 0.1248
4 12 3 -1.4096 0.0550
4 12 4 1.5564 -0.0896
4 12 5 1.7919 0.1281
4 12 6 2.2996 -0.0832
4 12 7 0.2954 0.0000
4 12 8 -4.9557 -0.0249
4 12 9 -0.6225 0.0278
4 12 10 0.9183 0.0430
4 12 11 1.8784 -0.0675
4 12 12 1.2660 0.0553
4 12 13 1.3642 -0.0445
4 12 14 -2.7207 -0.0978
4 12 15 -0.8424 0.1859
4 13 0 -1.5645 0.6339
4 13 1 -0.0535 -0.3891
4 13 2 -2.5613 0.1452
4 13 3 -0.3060 0.0192
4 13 4 1.9247 -0.0814
4 13 5 2.5072 0.1022
4 13 6 -0.5063 -0.0472
4 13 7 -2.3617 -0.0818
4 13 8 1.0304 0.0472
4 13 9 -4.8400 -0.0043
4 13 10 5.0600 0.0537
4 13 11 0.7639 -0.0449
4 13 12 0.4238 0.0429
4 13 13 -1.0450 -0.1932
4 13 14 -0.8567 0.3040
4 14 0 -0.9003 0.2809
4 14 1 -1.8574 -0.2827
4 14 2 0.3478 0.1316
4 14 3 -0.2979 -0.0003
4 14 4 2.0020 -0.0443
4 14 5 0.7373 0.0413
4 14 6 -0.4991 -0.0540
4 14 7 -1.9854 -0.0732
4 14 8 -0.5964 0.1308
4 14 9 0.9022 -0.0906
4 14 10 0.7180 0.0511
4 14 11 1.7401 0.1364
4 14 12 -0.7034 -0.3296
4 15 4 0.9014 -0.0436
4 15 5 0.2511 -0.1373
4 15 6 -1.5703 0.1389
4 15 7 -0.0957 -0.0951
4 15 8 -0.2594 0.0235
4 15 9 0.0351 0.0538
4 15 10 2.4202 0.0771
5 -10 0 0.8942 -0.2915
5 -10 1 0.3846 0.2445
5 -9 0 1.2570 -0.3317
5 -9 1 -0.4931 0.0988
5 -9 2 -1.0653 -0.0169
5 -9 3 -0.5369 0.0858
5 -8 0 -0.9219 -0.4628
5 -8 1 -1.2021 0.3491
5 -8 2 -1.4038 -0.1749
5 -8 3 -0.1216 -0.0011
5 -8 4 0.9003 0.1744
5 -8 5 -0.0246 -0.1989
5 -7 0 -0.4805 -0.4170
5 -7 1 -2.8225 0.3895
5 -7 2 -2.2398 -0.1769
5 -7 3 1.9407 -0.0174
5 -7 4 1.5447 0.0819
5 -7 5 -0.4565 0.0450
5 -7 6 0.7391 -0.1717
5 -6 0 -4.1999 -0.1773
5 -6 1 -1.4461 0.1971
5 -6 2 -0.3090 -0.0923
5 -6 3 1.4238 0.0268
5 -6 4 2.4627 0.0270
5 -6 5 0.0615 -0.0752
5 -6 6 -1.5201 0.0760
5 -6 7 -0.5540 -0.0045
5 -6 8 -0.2467 -0.1581
5 -5 0 -4.2351 0.1695
5 -5 1 -1.5154 -0.0660
5 -5 2 2.1756 -0.0078
5 -5 3 2.7310 0.0431
5 -5 4 1.8352 0.0153
5 -5 5 -2.1329 -0.0822
5 -5 6 -0.7491 0.0183
5 -5 7 -0.8697 0.0347
5 -5 8 -0.2223 0.0215
5 -5 9 1.6940 -0.1751
5 -4 0 -4.7342 0.4602
5 -4 1 0.6750 -0.2999
5 -4 2 4.6033 0.1302
5 -4 3 2.4294 -0.0152
5 -4 4 -0.5382 -0.0510
5 -4 5 -1.7009 0.0533
5 -4 6 -1.9321 -0.0474
5 -4 7 -0.9933 -0.0153
5 -4 8 3.2942 0.0338
5 -4 9 -1.2703 0.0944
5 -4 10 1.4023 -0.2104
5 -3 0 0.6627 0.5797
5 -3 1 2.9483 -0.4163
5 -3 2 3.3996 0.1993
5 -3 3 3.1525 -0.0124
5 -3 4 -3.2504 -0.1211
5 -3 5 -3.5408 0.0917
5 -3 6 0.3695 -0.0080
5 -3 7 0.4660 -0.0149
5 -3 8 0.9665 -0.0119
5 -3 9 2.2807 0.0607
5 -3 10 -2.1272 0.0262
5 -3 11 0.2593 -0.1465
5 -2 0 1.4090 0.4826
5 -2 1 9.5125 -0.3936
5 -2 2 -0.1630 0.1993
5 -2 3 -1.0555 -0.0171
5 -2 4 -1.8884 -0.1142
5 -2 5 -3.6473 0.0985
5 -2 6 -0.6784 -0.0070
5 -2 7 4.6884 -0.0160
5 -2 8 0.0020 0.0481
5 -2 9 -0.8695 -0.0481
5 -2 10 1.1480 0.0313
5 -2 11 -3.2908 -0.0055
5 -2 12 1.7431 -0.0696
5 -1 0 1.6437 0.1352
5 -1 1 5.1410 -0.1918
5 -1 2 3.5115 0.1267
5 -1 3 -6.5780 -0.0308
5 -1 4 -4.4342 -0.0526
5 -1 5 1.3283 0.0772
5 -1 6 1.0571 -0.0062
5 -1 7 1.8283 -0.0349
5 -1 8 2.0195 0.0844
5 -1 9 -1.7600 -0.0930
5 -1 10 -2.6129 -0.0074
5 -1 11 2.2356 0.0920
5 -1 12 -2.5722 -0.1873
5 0 0 10.0972 -0.2235
5 0 1 -0.8203 0.0798
5 0 2 -3.0531 -0.0111
5 0 3 -2.2428 -0.0156
5 0 4 -6.2962 0.0178
5 0 5 2.9556 0.0399
5 0 6 4.3429 -0.0160
5 0 7 0.9524 -0.0627
5 0 8 -1.4661 0.1086
5 0 9 -0.3780 -0.0846
5 0 10 -2.6906 -0.0690
5 0 11 1.2889 0.1020
5 0 12 1.1459 -0.0157
5 0 13 -0.2382 -0.0873
5 1 0 6.6223 -0.5068
5 1 1 0.7343 0.3344
5 1 2 -9.4628 -0.1281
5 1 3 -3.2669 -0.0084
5 1 4 1.5222 0.0852
5 1 5 1.3375 -0.0547
5 1 6 4.9537 0.0264
5 1 7 0.5039 -0.0588
5 1 8 -3.6003 0.0312
5 1 9 -1.4070 -0.0190
5 1 10 0.3536 -0.0238
5 1 11 0.6076 0.0122
5 1 12 1.4111 0.0287
5 1 13 0.5278 0.0592
5 1 14 -1.1088 -0.0705
5 2 0 -2.2400 -0.6490
5 2 1 -3.1665 0.4834
5 2 2 -4.7562 -0.1734
5 2 3 -5.9297 -0.0348
5 2 4 5.4343 0.1247
5 2 5 6.2709 -0.1219
5 2 6 -0.7153 0.0452
5 2 7 -0.8827 -0.0222
5 2 8 -1.8920 -0.0243
5 2 9 -3.4279 0.0181
5 2 10 2.6368 0.0168
5 2 11 2.6992 -0.0197
5 2 12 -1.7385 0.0736
5 2 13 2.1291 0.0123
5 2 14 -2.8029 -0.0642
5 3 0 -2.6421 -0.4507
5 3 1 -11.3034 0.4133
5 3 2 -0.4086 -0.2109
5 3 3 1.0427 0.0150
5 3 4 2.7580 0.0929
5 3 5 7.7979 -0.1480
5 3 6 -2.0576 0.0543
5 3 7 -5.1229 0.0432
5 3 8 -0.9705 -0.0774
5 3 9 0.5962 0.0503
5 3 10 0.4143 0.0182
5 3 11 4.2092 0.0250
5 3 12 -1.3005 0.0251
5 3 13 -2.5698 -0.0538
5 3 14 1.9599 0.0675
5 3 15 -2.7874 -0.1956
5 4 0 -2.1489 -0.0864
5 4 1 -5.8460 0.1958
5 4 2 -5.7515 -0.1642
5 4 3 10.4658 0.0367
5 4 4 4.1869 0.0252
5 4 5 -0.7237 -0.0669
5 4 6 0.0338 0.0028
5 4 7 -6.2266 0.1166
5 4 8 -1.4967 -0.1251
5 4 9 3.3802 0.0856
5 4 10 3.6733 0.0045
5 4 11 -2.2006 0.0216
5 4 12 1.5488 0.0049
5 4 13 -2.8826 -0.0632
5 4 14 -1.0191 -0.0294
5 4 15 1.3532 -0.0314
5 5 0 -10.3502 0.2992
5 5 1 1.8032 -0.1168
5 5 2 1.0095 -0.0303
5 5 3 3.9403 0.0307
5 5 4 8.7029 -0.0215
5 5 5 -4.4309 0.0213
5 5 6 -6.5958 -0.0493
5 5 7 -0.1108 0.1558
5 5 8 -0.0900 -0.1435
5 5 9 2.3953 0.0795
5 5 10 4.6146 0.0079
5 5 11 -2.1750 -0.0178
5 5 12 -3.5017 0.0149
5 5 13 1.2964 -0.1069
5 5 14 -1.8554 -0.0112
5 5 15 1.3446 0.0182
5 6 0 -6.2260 0.5724
5 6 1 -1.5224 -0.3893
5 6 2 10.0303 0.1218
5 6 3 2.8721 0.0304
5 6 4 -1.1247 -0.0739
5 6 5 -0.1385 0.0879
5 6 6 -8.6827 -0.0413
5 6 7 -0.2044 0.0685
5 6 8 5.4528 -0.0697
5 6 9 2.2824 0.0316
5 6 10 -0.3528 0.0102
5 6 11 -0.4993 -0.0532
5 6 12 -3.4983 0.0263
5 6 13 -1.2916 -0.1021
5 6 14 3.0961 0.0034
5 6 15 -0.7476 0.0902
5 7 0 -0.1108 0.6553
5 7 1 2.7199 -0.4743
5 7 2 3.2929 0.1995
5 7 3 8.0277 0.0167
5 7 4 -7.3317 -0.0898
5 7 5 -4.9611 0.1037
5 7 6 -0.3647 -0.0257
5 7 7 -0.3062 -0.0177
5 7 8 4.8940 -0.0009
5 7 9 3.8322 -0.0173
5 7 10 -3.5796 0.0265
5 7 11 -2.5065 -0.0720
5 7 12 -0.9831 0.0149
5 7 13 -0.2781 -0.0155
5 7 14 1.9801 -0.0257
5 7 15 1.3085 0.1439
5 8 0 0.8692 0.4645
5 8 1 7.9685 -0.3600
5 8 2 0.3723 0.2228
5 8 3 -0.1499 -0.0297
5 8 4 -1.1292 -0.0890
5 8 5 -9.2186 0.0787
5 8 6 2.4373 0.0208
5 8 7 5.3515 -0.0767
5 8 8 1.5338 0.0158
5 8 9 0.6692 -0.0120
5 8 10 -2.2006 0.0082
5 8 11 -4.2785 -0.0175
5 8 12 0.3622 -0.0393
5 8 13 2.2836 0.0686
5 8 14 0.7595 -0.0108
5 8 15 0.7778 0.1003
5 9 0 -0.1224 0.0831
5 9 1 5.7302 -0.1466
5 9 2 2.9614 0.1574
5 9 3 -6.2854 -0.0498
5 9 4 -3.1620 -0.0665
5 9 5 -0.0299 0.0348
5 9 6 -0.3702 0.0614
5 9 7 6.1737 -0.1137
5 9 8 1.8996 0.0848
5 9 9 -3.2750 -0.0845
5 9 10 -3.0467 0.0159
5 9 11 -1.0155 0.0847
5 9 12 -0.1126 -0.1034
5 9 13 4.1958 0.0856
5 9 14 -0.5803 0.0128
5 9 15 0.1297 0.0549
5 10 0 4.3693 -0.2375
5 10 1 0.2184 0.1419
5 10 2 -0.3877 -0.0587
5 10 3 -1.7617 -0.0226
5 10 4 -5.9159 0.0055
5 10 5 1.9585 -0.0080
5 10 6 6.0250 0.0713
5 10 7 -1.4332 -0.0957
5 10 8 3.2211 0.0659
5 10 9 -4.8959 -0.0841
5 10 10 -3.3328 0.0729
5 10 11 1.7475 0.0030
5 10 12 1.6353 0.0030
5 10 13 0.9691 0.0225
5 10 14 1.9827 -0.0086
5 10 15 -2.3189 0.0048
5 11 0 3.8927 -0.4619
5 11 1 1.0880 0.4228
5 11 2 -4.7109 -0.2371
5 11 3 -1.0464 -0.0321
5 11 4 -0.4943 0.1059
5 11 5 0.6566 -0.0240
5 11 6 4.1396 0.0292
5 11 7 2.3719 -0.0251
5 11 8 -5.5952 -0.0456
5 11 9 -0.1622 0.0215
5 11 10 -1.6185 0.0291
5 11 11 0.3194 0.0124
5 11 12 3.8162 0.0277
5 11 13 0.7610 -0.0586
5 11 14 -1.7667 0.0130
5 12 0 0.7528 -0.6739
5 12 1 0.0029 0.4595
5 12 2 -2.2623 -0.2056
5 12 3 -2.8748 -0.0294
5 12 4 2.3037 0.1387
5 12 5 2.5534 -0.0519
5 12 6 0.3080 0.0205
5 12 7 0.5014 -0.0042
5 12 8 -2.4005 -0.1248
5 12 9 -3.5730 0.1058
5 12 10 2.6707 0.0157
5 12 11 1.0627 0.0225
5 12 12 1.3045 -0.0864
5 12 13 0.8790 0.1118
5 12 14 -1.9910 -0.1753
5 13 0 -0.0921 -0.4674
5 13 1 -1.9180 0.3845
5 13 2 -1.4050 -0.2370
5 13 3 0.6969 0.0175
5 13 4 0.1747 0.1604
5 13 5 2.4780 -0.0746
5 13 6 0.5749 -0.0444
5 13 7 -2.2497 0.0154
5 13 8 -1.7245 -0.0956
5 13 9 0.2600 0.0668
5 13 10 0.2785 0.1256
5 13 11 2.4936 -0.1392
5 13 12 0.7865 0.0594
5 13 13 -1.9454 -0.0566
5 14 1 -2.1395 0.0460
5 14 2 -0.0660 0.0599
5 14 3 -0.1068 -0.0728
5 14 4 2.4060 0.0499
5 14 5 -0.4102 0.0348
5 14 6 0.2435 -0.1242
5 14 7 -1.4817 -0.0046
5 14 8 -1.8543 -0.0084
5 14 9 2.5147 0.1083
5 14 10 -0.8420 -0.0506
5 14 11 2.0964 0.0881
6 -9 0 -0.1223 0.4582
6 -8 0 0.9062 0.3298
6 -8 1 -1.6451 -0.1385
6 -8 2 -0.8906 0.1178
6 -7 0 -2.5792 0.2871
6 -7 1 -1.2441 -0.2772
6 -7 2 -0.2998 0.1531
6 -7 3 -0.1540 0.0786
6 -7 4 1.4533 -0.2697
6 -6 0 -2.0602 0.0271
6 -6 1 -2.4843 -0.1288
6 -6 2 1.1009 0.0905
6 -6 3 0.1923 -0.0505
6 -6 4 2.3945 0.0692
6 -6 5 -0.8891 -0.0799
6 -6 6 -0.3640 0.0756
6 -5 0 -3.9601 -0.2590
6 -5 1 -0.5579 0.1664
6 -5 2 0.6324 -0.0829
6 -5 3 4.4000 -0.0293
6 -5 4 -2.6230 0.0696
6 -5 5 2.5914 0.0224
6 -5 6 -3.5521 -0.0660
6 -5 7 0.7271 -0.0091
6 -4 0 -2.8005 -0.5086
6 -4 1 0.1083 0.3619
6 -4 2 3.4843 -0.1606
6 -4 3 1.1751 -0.0003
6 -4 4 1.3664 0.0405
6 -4 5 -3.9514 0.0249
6 -4 6 0.9206 -0.0548
6 -4 7 -1.4734 -0.0180
6 -4 8 1.6975 0.0314
6 -3 0 2.7446 -0.5273
6 -3 1 2.9990 0.4006
6 -3 2 1.3183 -0.2236
6 -3 3 2.3833 0.0642
6 -3 4 -2.2347 0.0516
6 -3 5 -1.9614 -0.1157
6 -3 6 -1.1842 0.0747
6 -3 7 1.9299 0.0256
6 -3 8 -0.2033 -0.1455
6 -3 9 1.5274 0.1832
6 -2 0 -1.2486 -0.3360
6 -2 1 5.1944 0.3082
6 -2 2 3.4510 -0.2010
6 -2 3 -2.4982 0.0307
6 -2 4 -2.5081 0.0962
6 -2 5 -1.2393 -0.1129
6 -2 6 0.1414 -0.0129
6 -2 7 1.1551 0.1277
6 -2 8 2.3542 -0.0513
6 -2 9 -1.6367 -0.1036
6 -2 10 0.1081 0.2193
6 -1 0 6.0645 0.0164
6 -1 1 0.1227 0.0577
6 -1 2 2.9103 -0.0939
6 -1 3 -3.6374 0.0115
6 -1 4 -3.6021 0.0554
6 -1 5 0.1925 -0.0230
6 -1 6 1.9769 -0.0415
6 -1 7 0.8562 0.0787
6 -1 8 1.3279 -0.0248
6 -1 9 -0.7369 0.0551
6 -1 10 -2.3013 -0.1724
6 -1 11 1.1456 0.1858
6 0 0 6.5951 0.3436
6 0 1 2.0355 -0.2251
6 0 2 -4.2693 0.0561
6 0 3 -1.9203 0.0059
6 0 4 -2.6627 -0.0033
6 0 5 1.0193 0.0377
6 0 6 3.3340 -0.0228
6 0 7 0.9532 0.0338
6 0 8 -0.7922 -0.0648
6 0 9 -1.8822 0.0790
6 0 10 0.7001 -0.0671
6 0 11 -1.9247 -0.1067
6 0 12 2.2183 0.1932
6 1 0 1.1972 0.5559
6 1 1 1.9750 -0.4088
6 1 2 -5.6853 0.1705
6 1 3 -4.4907 0.0224
6 1 4 3.1226 -0.0715
6 1 5 0.6168 0.0744
6 1 6 2.8851 -0.0020
6 1 7 0.9807 -0.0332
6 1 8 -2.8299 -0.0387
6 1 9 -1.5767 0.0342
6 1 10 0.6978 -0.0110
6 1 11 0.1097 -0.0958
6 1 12 1.2185 0.1335
6 2 0 -0.9297 0.5565
6 2 1 -4.7160 -0.4620
6 2 2 -1.8326 0.2492
6 2 3 -3.3977 0.0125
6 2 4 2.6164 -0.1023
6 2 5 5.4299 0.0745
6 2 6 -0.9437 -0.0203
6 2 7 -0.6750 -0.0372
6 2 8 -2.4309 0.0090
6 2 9 -0.6956 -0.0578
6 2 10 0.0954 0.0384
6 2 11 2.6233 0.0630
6 2 12 -0.7154 -0.0946
6 2 13 0.8207 0.1968
6 3 0 1.1379 0.3152
6 3 1 -6.9445 -0.3263
6 3 2 -4.2493 0.2150
6 3 3 4.9535 -0.0065
6 3 4 1.4413 -0.0923
6 3 5 2.4532 0.0477
6 3 6 2.0661 -0.0139
6 3 7 -6.0808 -0.0622
6 3 8 -0.6854 0.0816
6 3 9 0.9702 -0.0837
6 3 10 1.3281 0.0236
6 3 11 0.3776 0.1255
6 3 12 2.1120 -0.0450
6 3 13 -2.8752 0.0219
6 4 0 -4.4279 -0.0123
6 4 1 -1.9033 -0.0756
6 4 2 -2.5024 0.0766
6 4 3 3.5973 -0.0214
6 4 4 6.7098 -0.0439
6 4 5 -1.6691 0.0222
6 4 6 -3.0405 -0.0046
6 4 7 -0.3855 -0.0621
6 4 8 -3.9979 0.1188
6 4 9 3.8155 -0.0842
6 4 10 2.1691 0.0393
6 4 11 -0.0968 0.0918
6 4 12 -0.9579 -0.0021
6 4 13 0.2916 -0.0644
6 4 14 -2.1245 -0.0690
6 5 0 -6.3092 -0.3702
6 5 1 -2.6634 0.2134
6 5 2 5.7109 -0.0572
6 5 3 1.2629 -0.0617
6 5 4 3.8073 0.0410
6 5 5 -0.4495 -0.0117
6 5 6 -6.0905 0.0326
6 5 7 -1.3376 -0.0638
6 5 8 2.0528 0.0951
6 5 9 1.8216 -0.0254
6 5 10 1.4387 0.0059
6 5 11 1.1448 0.0660
6 5 12 -3.8234 -0.0236
6 5 13 0.7737 -0.0813
6 5 14 -0.9797 -0.1001
6 6 0 -1.6805 -0.6169
6 6 1 -1.8573 0.4247
6 6 2 5.4136 -0.1666
6 6 3 5.3931 -0.0485
6 6 4 -2.8033 0.1100
6 6 5 -2.1655 -0.0668
6 6 6 -3.0409 0.0705
6 6 7 -1.9281 -0.0437
6 6 8 4.1554 0.0312
6 6 9 2.9008 0.0103
6 6 10 -0.6816 0.0035
6 6 11 -0.7649 0.0291
6 6 12 -1.8820 -0.0947
6 6 13 -1.2801 -0.0202
6 6 14 1.6379 -0.0621
6 7 0 0.7011 -0.5912
6 7 1 2.6227 0.4224
6 7 2 2.9364 -0.1855
6 7 3 3.0726 0.0203
6 7 4 -2.0025 0.0822
6 7 5 -6.6359 -0.0618
6 7 6 0.3218 0.0300
6 7 7 1.5718 0.0302
6 7 8 2.3228 -0.0481
6 7 9 3.0618 0.0133
6 7 10 -1.2653 0.0158
6 7 11 -3.7746 0.0064
6 7 12 0.1679 -0.1301
6 7 13 0.0738 0.0166
6 7 14 -0.2513 0.0107
6 8 0 0.6886 -0.2799
6 8 1 4.3081 0.2925
6 8 2 4.0733 -0.1467
6 8 3 -3.7601 0.0291
6 8 4 -1.2327 0.0581
6 8 5 -3.4745 -0.0359
6 8 6 -1.7124 -0.0440
6 8 7 6.1096 0.1021
6 8 8 1.3892 -0.1125
6 8 9 0.0448 0.0562
6 8 10 -1.7524 -0.0389
6 8 11 -2.9919 0.0171
6 8 12 -0.1607 -0.0835
6 8 13 1.5663 0.0241
6 8 14 0.4330 0.0243
6 9 0 2.0530 0.1204
6 9 1 1.4686 0.0393
6 9 2 3.3787 -0.0205
6 9 3 -3.7449 0.0125
6 9 4 -5.1416 -0.0259
6 9 5 1.7676 -0.0071
6 9 6 0.4823 -0.0009
6 9 7 2.8440 0.0587
6 9 8 3.6078 -0.1165
6 9 9 -3.3110 0.0661
6 9 10 -3.2910 -0.0180
6 9 11 0.5346 -0.0221
6 9 12 -0.8308 -0.0239
6 9 13 1.9092 0.0654
6 9 14 1.5539 0.0034
6 10 0 4.9672 0.4159
6 10 1 -0.1917 -0.2256
6 10 2 -0.9761 0.0916
6 10 3 -1.4019 -0.0325
6 10 4 -3.8762 -0.0598
6 10 5 0.9595 0.0682
6 10 6 4.0144 -0.0368
6 10 7 2.3945 0.0290
6 10 8 -2.3719 -0.0108
6 10 9 0.1356 -0.0566
6 10 10 -4.0976 0.0460
6 10 11 0.1668 -0.0241
6 10 12 2.5408 0.0840
6 10 13 0.4117 -0.1139
6 10 14 0.7800 0.1689
6 11 0 -0.0126 0.5948
6 11 1 2.5317 -0.3946
6 11 2 -3.4793 0.1308
6 11 3 -2.7024 -0.0491
6 11 4 1.2876 -0.0463
6 11 5 0.4096 0.0996
6 11 6 2.6398 -0.0150
6 11 7 2.1974 -0.0129
6 11 8 -3.0692 -0.0314
6 11 9 -2.4609 -0.0251
6 11 10 -0.1829 0.0822
6 11 11 0.4957 -0.0376
6 11 12 1.7790 -0.0125
6 11 13 1.1817 0.1317
6 12 0 0.4571 0.6589
6 12 1 -1.3125 -0.4557
6 12 2 -0.1174 0.1772
6 12 3 -3.3905 -0.0460
6 12 4 1.9828 -0.0553
6 12 5 2.2568 0.1337
6 12 6 1.0993 0.0417
6 12 7 -1.3031 -0.1949
6 12 8 -0.3191 0.0963
6 12 9 -3.0605 -0.0096
6 12 10 0.0748 -0.0576
6 12 11 3.1969 0.1921
6 12 12 -0.3474 -0.1607
6 13 0 -0.3939 0.3238
6 13 1 -1.1679 -0.4328
6 13 2 -0.9969 0.2615
6 13 3 0.1077 -0.0760
6 13 4 0.0009 0.0090
6 13 5 3.0218 0.1131
6 13 6 -0.2415 -0.0649
6 13 7 -1.8142 -0.1497
6 13 8 -1.1008 0.1882
6 13 9 0.0103 -0.2394
6 13 10 -0.2148 0.3053
6 13 11 2.2979 -0.1706
6 14 3 0.6990 0.3056
6 14 4 1.5118 -0.1012
6 14 5 -0.0836 -0.0130
6 14 6 -0.1451 0.0222
6 14 7 -0.5736 -0.1259
6 14 8 -1.4316 -0.0261
6 14 9 -0.0093 0.2154
7 -7 0 -0.4956 -0.1319
7 -7 1 -0.2329 0.1136
7 -6 0 -0.9983 0.1727
7 -6 1 -2.9423 -0.0299
7 -6 2 1.8502 -0.1398
7 -6 3 0.1818 0.0065
7 -5 0 -2.3534 0.3551
7 -5 1 0.1548 -0.1982
7 -5 2 -0.2468 -0.0295
7 -5 3 2.5362 0.0146
7 -5 4 -0.1210 -0.0347
7 -5 5 -0.3391 0.1946
7 -4 0 -0.6707 0.3586
7 -4 1 0.0709 -0.3598
7 -4 2 2.2305 0.1516
7 -4 3 0.6931 0.0158
7 -4 4 1.3919 -0.0379
7 -4 5 -3.6116 -0.0202
7 -4 6 1.5989 0.1894
7 -3 0 -1.0036 0.3513
7 -3 1 2.3425 -0.4042
7 -3 2 3.3090 0.1774
7 -3 3 -1.3767 0.0418
7 -3 4 0.0257 -0.0378
7 -3 5 -0.8207 0.0386
7 -3 6 -2.9625 -0.0766
7 -3 7 3.6140 0.0542
7 -3 8 -1.2713 0.0240
7 -2 0 -1.7508 0.1638
7 -2 1 4.1074 -0.2091
7 -2 2 1.6412 0.0835
7 -2 3 -0.5207 0.0396
7 -2 4 -3.2513 -0.0376
7 -2 5 -0.0689 0.0587
7 -2 6 0.3383 -0.0630
7 -2 7 0.0200 -0.0596
7 -2 8 2.2185 0.1327
7 -2 9 -1.1766 -0.0237
7 -1 0 4.9021 -0.1247
7 -1 1 1.0582 0.0600
7 -1 2 0.1038 -0.0367
7 -1 3 -1.7142 0.0299
7 -1 4 -1.4659 -0.0285
7 -1 5 -2.0398 0.0455
7 -1 6 2.6552 0.0005
7 -1 7 1.7263 -0.1045
7 -1 8 -1.4200 0.1273
7 -1 9 1.2247 -0.0027
7 0 0 3.8258 -0.4627
7 0 1 3.1063 0.2873
7 0 2 -4.4586 -0.1062
7 0 3 -1.2856 0.0002
7 0 4 -1.1997 0.0180
7 0 5 0.6535 0.0072
7 0 6 1.9364 0.0291
7 0 7 1.4042 -0.0472
7 0 8 -1.1564 0.0176
7 0 9 -0.4002 0.0015
7 0 10 -0.7935 0.0370
7 1 0 0.2209 -0.5611
7 1 1 -1.5517 0.3611
7 1 2 -0.0629 -0.1811
7 1 3 -5.0637 0.0594
7 1 4 1.6150 0.0440
7 1 5 2.0830 -0.0601
7 1 6 1.9886 0.0518
7 1 7 -0.7889 -0.0043
7 1 8 -0.3329 -0.0491
7 1 9 -2.0784 0.0034
7 1 10 0.5325 -0.0290
7 1 11 0.2178 0.0636
7 2 0 0.5089 -0.4356
7 2 1 -4.0933 0.3230
7 2 2 -2.5532 -0.1912
7 2 3 0.8228 0.0466
7 2 4 -0.6346 0.1244
7 2 5 4.8455 -0.1161
7 2 6 -0.1338 -0.0193
7 2 7 -1.9176 0.0945
7 2 8 -0.4796 -0.1016
7 2 9 -1.1024 -0.0321
7 2 10 -0.7562 0.0554
7 2 11 2.8621 -0.0194
7 2 12 -0.9796 0.0730
7 3 0 1.4965 -0.1407
7 3 1 -4.6324 0.1633
7 3 2 -1.7779 -0.1106
7 3 3 0.7186 0.0057
7 3 4 4.7644 0.1178
7 3 5 -0.3191 -0.0881
7 3 6 0.4337 -0.0633
7 3 7 -1.8127 0.0820
7 3 8 -2.8017 -0.0716
7 3 9 0.9253 0.0170
7 3 10 2.3978 -0.0234
7 3 11 -2.0570 0.0817
7 3 12 3.1133 0.0699
7 4 0 -7.1916 0.1638
7 4 1 0.7966 -0.0659
7 4 2 -0.8944 0.0183
7 4 3 1.9541 -0.0132
7 4 4 3.7605 0.0264
7 4 5 0.2173 -0.0227
7 4 6 -2.5484 -0.0405
7 4 7 -2.3661 0.0344
7 4 8 0.1253 -0.0614
7 4 9 0.6721 0.0824
7 4 10 1.1579 0.0034
7 4 11 2.2890 -0.0270
7 4 12 -2.5658 0.1941
7 5 0 -2.1219 0.4264
7 5 1 -3.6866 -0.3144
7 5 2 4.4010 0.1283
7 5 3 2.8238 -0.0016
7 5 4 0.3334 -0.0398
7 5 5 -0.0194 0.0151
7 5 6 -3.4048 -0.0088
7 5 7 -2.4122 0.0112
7 5 8 2.5849 -0.0099
7 5 9 0.2775 0.0076
7 5 10 2.5740 0.1060
7 5 11 -1.1913 -0.0338
7 5 12 0.5042 -0.0175
7 5 13 -2.1589 0.0424
7 6 0 -0.7041 0.4982
7 6 1 0.1338 -0.4221
7 6 2 2.4189 0.1922
7 6 3 3.9396 0.0127
7 6 4 -0.7464 -0.0712
7 6 5 -4.0089 0.0483
7 6 6 -0.6366 0.0121
7 6 7 -1.3223 -0.0299
7 6 8 1.5865 0.0486
7 6 9 4.0500 -0.0388
7 6 10 -1.6102 0.1172
7 6 11 -0.1460 -0.0726
7 6 12 -0.4849 0.0064
7 6 13 -1.6091 -0.1047
7 7 0 -1.2296 0.3802
7 7 1 5.1740 -0.3739
7 7 2 0.7949 0.2060
7 7 3 0.7049 0.0496
7 7 4 0.0756 -0.1170
7 7 5 -4.9474 0.0823
7 7 6 -1.0259 0.0170
7 7 7 2.0788 -0.0738
7 7 8 2.4080 0.0822
7 7 9 0.6060 -0.0492
7 7 10 0.6911 0.0739
7 7 11 -2.6605 -0.0715
7 7 12 -0.6016 -0.0161
7 7 13 0.1488 -0.1064
7 8 0 -0.9041 0.0926
7 8 1 3.4246 -0.1548
7 8 2 3.0494 0.1405
7 8 3 -2.0353 0.0492
7 8 4 -3.3017 -0.0857
7 8 5 -0.3579 0.0352
7 8 6 -1.6894 0.0130
7 8 7 3.2414 -0.0733
7 8 8 2.8816 0.1085
7 8 9 -0.7675 -0.0944
7 8 10 -1.4547 0.0450
7 8 11 -0.7395 -0.0227
7 8 12 -1.6816 -0.0581
7 8 13 1.2782 -0.0738
7 9 0 2.8990 -0.2058
7 9 1 0.9395 0.2027
7 9 2 0.3812 -0.0448
7 9 3 -0.4214 0.0141
7 9 4 -4.2341 -0.0116
7 9 5 -1.1985 -0.0326
7 9 6 3.8560 0.0375
7 9 7 0.3563 -0.0917
7 9 8 2.3834 0.1164
7 9 9 -1.2643 -0.0678
7 9 10 -2.1908 -0.0079
7 9 11 -0.8993 -0.0447
7 9 12 0.2324 0.0847
7 9 13 0.7710 -0.1727
7 10 0 2.2353 -0.3772
7 10 1 3.3894 0.3970
7 10 2 -4.0370 -0.1893
7 10 3 -0.6815 0.0279
7 10 4 -0.9495 -0.0122
7 10 5 -1.3376 -0.0724
7 10 6 3.6245 0.0749
7 10 7 2.1098 0.0028
7 10 8 -1.1719 -0.0545
7 10 9 -1.1817 0.0181
7 10 10 -1.2016 0.0288
7 10 11 -1.8489 -0.0539
7 10 12 2.9717 -0.0231
7 11 0 0.0520 -0.5890
7 11 1 0.9322 0.4817
7 11 2 -0.9295 -0.2043
7 11 3 -3.2564 -0.0767
7 11 4 0.2259 0.0644
7 11 5 2.4637 -0.0219
7 11 6 0.2590 0.0130
7 11 7 1.8717 0.0555
7 11 8 -0.6784 -0.1138
7 11 9 -3.4350 0.1336
7 11 10 0.4997 -0.1803
7 11 11 0.3271 0.1847
7 12 0 2.8764 -0.2674
7 12 1 -2.7622 0.2027
7 12 2 -0.3878 -0.1545
7 12 3 -0.8325 -0.0484
7 12 4 -0.1712 0.0814
7 12 5 2.0397 0.0072
7 12 6 1.5441 0.0178
7 12 7 -0.8764 -0.0052
7 12 8 -1.2700 -0.0355
7 12 9 -0.9295 -0.0431
7 12 10 -0.4812 0.1348
7 13 2 -3.2553 -0.3739
7 13 3 1.9532 0.1325
7 13 4 -0.1830 0.0848
7 13 5 1.5291 -0.0612
7 13 6 -0.0429 0.0204
7 13 7 0.2228 0.1076
7 13 8 -2.5393 -0.3489
8 -5 0 -1.0165 -0.3046
8 -5 1 -0.8688 0.0246
8 -5 2 1.0173 0.0506
8 -4 0 0.0704 -0.2942
8 -4 1 0.2547 0.1126
8 -4 2 0.8782 -0.1969
8 -4 3 1.3560 0.0839
8 -4 4 -0.8576 0.1326
8 -3 0 -2.1472 -0.2577
8 -3 1 1.7860 0.0913
8 -3 2 2.2999 -0.0972
8 -3 3 -0.6523 0.0091
8 -3 4 -0.3058 0.1358
8 -3 5 -1.0353 0.0343
8 -2 0 3.8700 -0.0909
8 -2 1 -0.6930 0.0334
8 -2 2 1.5815 -0.0116
8 -2 3 1.1687 -0.0365
8 -2 4 -4.2242 0.1501
8 -2 5 1.5486 -0.0535
8 -2 6 -0.5299 -0.0153
8 -1 0 3.0847 0.1959
8 -1 1 1.6686 -0.1723
8 -1 2 -0.1560 0.1158
8 -1 3 -2.0352 -0.0213
8 -1 4 0.1315 0.0322
8 -1 5 -2.5700 -0.0268
8 -1 6 3.2188 0.0286
8 -1 7 -0.2943 -0.0336
8 0 0 0.1926 0.3548
8 0 1 1.2976 -0.2967
8 0 2 -0.1774 0.1894
8 0 3 -3.4197 -0.0568
8 0 4 -0.3737 0.0305
8 0 5 1.9316 -0.0189
8 0 6 -0.6754 -0.0226
8 0 7 2.0270 0.0685
8 0 8 0.0081 -0.0831
8 1 0 0.8706 0.4205
8 1 1 -0.5173 -0.4072
8 1 2 -1.5982 0.1980
8 1 3 -2.1257 0.0074
8 1 4 0.1110 -0.0403
8 1 5 2.7828 0.0411
8 1 6 0.0580 -0.0429
8 1 7 0.1948 -0.0001
8 1 8 -0.0290 0.0639
8 1 9 -1.5676 -0.1409
8 2 0 1.0144 0.3013
8 2 1 -1.5553 -0.3101
8 2 2 -3.5953 0.0953
8 2 3 1.3827 0.0722
8 2 4 0.9274 -0.0569
8 2 5 0.7001 0.0533
8 2 6 1.9796 -0.0441
8 2 7 -0.6456 -0.0517
8 2 8 -3.3562 0.0646
8 2 9 2.2772 -0.0281
8 2 10 -1.7730 -0.0914
8 3 0 -1.7254 -0.0296
8 3 1 -0.7171 -0.0214
8 3 2 -2.5331 -0.0269
8 3 3 1.3433 0.0800
8 3 4 2.4742 -0.0618
8 3 5 0.9860 0.0638
8 3 6 -0.5175 -0.0295
8 3 7 -1.7131 -0.1253
8 3 8 -0.1119 0.1210
8 3 9 -1.4370 -0.0425
8 3 10 1.6433 -0.0197
8 4 0 -3.2180 -0.3851
8 4 1 -1.7164 0.2419
8 4 2 1.1000 -0.1214
8 4 3 1.1961 0.0735
8 4 4 1.5710 -0.0320
8 4 5 1.6990 0.0073
8 4 6 -3.0702 -0.0095
8 4 7 -1.1064 -0.0644
8 4 8 0.1579 0.0431
8 4 9 -0.4567 0.0081
8 4 10 1.7339 0.0175
8 4 11 0.2730 0.0534
8 5 0 -1.9901 -0.5540
8 5 1 -0.7788 0.3114
8 5 2 1.1291 -0.1388
8 5 3 3.3287 0.0770
8 5 4 -0.0118 -0.0225
8 5 5 -0.8225 -0.0214
8 5 6 -1.7073 0.0079
8 5 7 -0.9633 -0.0071
8 5 8 -0.9114 -0.0242
8 5 9 3.3863 0.0987
8 5 10 -1.2325 -0.0611
8 5 11 1.5593 0.1241
8 6 0 0.0969 -0.5065
8 6 1 1.1327 0.2968
8 6 2 0.3983 -0.1596
8 6 3 3.0207 0.0742
8 6 4 -0.1938 0.0579
8 6 5 -2.5224 -0.0836
8 6 6 -1.8492 0.0029
8 6 7 0.2803 0.0835
8 6 8 1.5546 -0.0991
8 6 9 -0.4201 0.1264
8 6 10 3.2734 -0.0603
8 6 11 -2.8562 0.0938
8 7 0 -1.2668 -0.3000
8 7 1 2.5349 0.2896
8 7 2 2.5160 -0.1633
8 7 3 -0.6707 0.0335
8 7 4 -0.8057 0.1537
8 7 5 -1.1929 -0.1148
8 7 6 -2.9677 -0.0444
8 7 7 2.8284 0.1376
8 7 8 0.2056 -0.1235
8 7 9 2.1626 0.1318
8 7 10 -1.2482 -0.1008
8 7 11 0.3947 0.0947
8 8 0 0.7530 -0.1170
8 8 1 0.8620 0.1161
8 8 2 2.2800 0.0592
8 8 3 -0.0501 -0.0515
8 8 4 -3.6706 0.0988
8 8 5 -0.5312 -0.0532
8 8 6 0.5971 -0.0662
8 8 7 0.0640 0.1048
8 8 8 3.0435 -0.1096
8 8 9 -0.8441 0.1198
8 8 10 0.3338 -0.0759
8 8 11 -2.0757 0.0031
8 9 0 3.3314 0.2591
8 9 1 0.3993 -0.1924
8 9 2 0.2209 0.1932
8 9 3 -0.7889 -0.0194
8 9 4 -2.0501 0.0090
8 9 5 -1.2314 -0.0824
8 9 6 1.6038 -0.0170
8 9 7 1.8572 0.0798
8 9 8 0.0951 -0.0833
8 9 9 0.7995 0.0539
8 9 10 -2.4054 -0.0115
8 10 0 0.9827 0.5149
8 10 1 1.3358 -0.2787
8 10 2 -0.2790 0.2491
8 10 3 -3.2352 -0.1180
8 10 4 0.7727 -0.0540
8 10 5 -0.8638 0.0325
8 10 6 1.3351 -0.0453
8 10 7 2.1368 -0.0003
8 10 8 -0.2515 0.0357
8 10 9 -1.2830 0.0277
8 10 10 -0.4616 -0.0939
8 11 0 1.4854 0.3592
8 11 1 -0.4902 -0.2389
8 11 2 -0.8073 0.2173
8 11 3 -0.7872 -0.1466
8 11 4 -1.9156 -0.0801
8 11 5 2.6685 0.0735
8 11 6 0.5047 -0.0356
8 11 7 0.4168 0.0232
8 11 8 0.2320 0.0715
8 11 9 -1.4975 -0.1597
8 12 3 -1.5444 0.0785
8 12 4 1.1065 -0.1810
8 12 5 -0.0968 0.0647
8 12 6 2.4251 0.1151
9 -3 0 -1.2685 0.0907
9 -3 1 1.0740 -0.0361
9 -2 0 1.1144 -0.1636
9 -2 1 2.1643 -0.0201
9 -2 2 -1.4398 0.0651
9 -2 3 1.3986 0.0082
9 -1 0 -0.9102 -0.2787
9 -1 1 3.4084 0.1041
9 -1 2 -0.9655 -0.0596
9 -1 3 -1.6881 0.1662
9 -1 4 0.5158 -0.1006
9 0 0 1.7673 -0.2967
9 0 1 0.0026 0.2150
9 0 2 -0.4671 -0.1769
9 0 3 -1.0293 0.1304
9 0 4 -1.2926 0.0620
9 0 5 1.4972 -0.1278
9 1 0 2.3750 -0.3196
9 1 1 -0.5384 0.2287
9 1 2 -3.4545 -0.1346
9 1 3 2.1588 0.0316
9 1 4 -2.0800 0.0589
9 1 5 1.5354 0.0326
9 1 6 1.4147 -0.1533
9 2 0 0.1595 -0.1945
9 2 1 -1.7299 0.1533
9 2 2 0.1700 -0.0954
9 2 3 -2.3217 -0.0138
9 2 4 2.5106 0.1274
9 2 5 0.3103 -0.0966
9 2 6 1.2022 0.0622
9 2 7 -1.4969 -0.1428
9 3 0 -1.2068 0.0944
9 3 1 -1.3878 -0.1287
9 3 2 -0.5817 0.0864
9 3 3 0.4560 -0.0721
9 3 4 1.1975 0.1253
9 3 5 1.4914 -0.0745
9 3 6 -1.3838 -0.0554
9 3 7 0.5496 0.0883
9 3 8 -1.6198 -0.1688
9 4 0 -0.8112 0.2904
9 4 1 -1.9929 -0.3353
9 4 2 0.6286 0.2322
9 4 3 1.0412 -0.1052
9 4 4 1.5787 0.0877
9 4 5 -0.4936 -0.0515
9 4 6 0.0384 -0.0659
9 4 7 -1.6689 0.0611
9 4 8 -0.3810 -0.0408
9 5 0 0.3267 0.3825
9 5 1 -1.2821 -0.4279
9 5 2 0.5129 0.2517
9 5 3 2.3102 -0.0406
9 5 4 0.1290 0.0022
9 5 5 -0.6197 -0.0170
9 5 6 -0.6680 -0.0315
9 5 7 -1.2787 -0.0032
9 5 8 0.0520 0.0717
9 6 0 -1.6107 0.3657
9 6 1 1.0109 -0.4087
9 6 2 1.6841 0.1956
9 6 3 -0.3296 0.0409
9 6 4 1.8156 -0.0519
9 6 5 -2.6925 0.0173
9 6 6 -0.2279 -0.0147
9 6 7 -0.4954 -0.0277
9 6 8 0.4794 0.1136
9 7 0 -0.5809 0.2240
9 7 1 0.1015 -0.2212
9 7 2 2.4321 0.0852
9 7 3 0.5120 0.1036
9 7 4 -2.2028 -0.0542
9 7 5 0.3580 0.0164
9 7 6 -1.0663 0.0009
9 7 7 -0.7622 -0.0520
9 7 8 2.3169 0.1336
9 8 0 0.7229 -0.0486
9 8 1 1.5558 0.0424
9 8 2 0.3754 0.0239
9 8 3 -0.2791 0.1026
9 8 4 -0.1426 -0.0616
9 8 5 -2.5687 0.0430
9 8 6 1.1394 -0.0286
9 8 7 0.3159 -0.0812
9 8 8 0.6348 0.1609
9 9 0 1.0953 -0.4669
9 9 1 0.9952 0.2351
9 9 2 0.1749 0.0477
9 9 3 -0.7267 0.0959
9 9 4 -1.0502 -0.1418
9 9 5 -0.5649 0.0432
9 9 6 0.1902 0.0195
9 9 7 1.3836 -0.1367
9 10 2 -0.5642 -0.1901
9 10 3 -0.9616 0.1896
9 10 4 -0.9142 -0.0556
9 10 5 0.4068 -0.1607
10 1 0 -1.0406 0.2597
10 1 1 0.4464 -0.0457
10 2 0 1.3629 -0.0181
10 2 1 -0.8533 -0.1171
10 2 2 -1.0967 0.1437
10 3 0 -1.6283 -0.1508
10 3 1 -0.0916 0.0317
10 3 2 -0.3788 -0.1204
10 3 3 0.0012 0.2393
10 4 0 0.5366 -0.3302
10 4 1 -2.1504 0.1914
10 4 2 0.7108 -0.1960
10 4 3 0.8327 0.1922
10 5 0 -1.2257 -0.4298
10 5 1 1.1711 0.2674
10 5 2 -1.3295 -0.1843
10 5 3 1.4849 0.1268
10 6 0 -2.1304 -0.2962
10 6 1 0.3497 0.1973
10 6 2 2.1487 -0.1391
10 6 3 -1.5667 0.0998
0 0 0 0.0 0.0
;
_shelx_fab_checksum              13112
_olex2_submission_special_instructions 'No special instructions were received'
loop_
_space_group_symop_operation_xyz
'x, y, z'
'-x, -y, -z'
loop_
_atom_site_label
_atom_site_type_symbol
_atom_site_fract_x
_atom_site_fract_y
_atom_site_fract_z
_atom_site_U_iso_or_equiv
_atom_site_adp_type
_atom_site_occupancy
_atom_site_site_symmetry_order
_atom_site_calc_flag
_atom_site_refinement_flags_posn
_atom_site_refinement_flags_adp
_atom_site_refinement_flags_occupancy
_atom_site_disorder_assembly
_atom_site_disorder_group
Cu1 Cu 0.55100(5) 0.10223(3) 0.86259(3) 0.01881(15) Uani 1 1 d . . . . .
O1 O 0.2678(3) 0.89482(19) 0.22166(17) 0.0219(6) Uani 1 1 d . . . . .
O2 O 0.2701(3) -0.01428(19) 1.00942(17) 0.0229(6) Uani 1 1 d . . . . .
O3 O 0.3291(3) 0.13702(19) 0.88852(18) 0.0266(6) Uani 1 1 d . . . . .
O4 O 0.0356(3) 0.27024(19) 0.98267(18) 0.0255(6) Uani 1 1 d . . . . .
O5 O 0.4764(3) 0.8009(2) 0.33165(19) 0.0361(7) Uani 1 1 d . . . . .
N1 N 0.4676(4) 0.6617(2) 0.8160(2) 0.0268(7) Uani 1 1 d . . . . .
N2 N 0.5488(4) 0.5711(2) 0.8801(2) 0.0245(7) Uani 1 1 d . . . . .
N3 N 0.5543(3) 0.2563(2) 0.8644(2) 0.0197(7) Uani 1 1 d . . . . .
N4 N 0.0197(3) 0.2498(2) 0.8420(2) 0.0229(7) Uani 1 1 d . . . . .
H4 H -0.0039 0.2818 0.7790 0.027 Uiso 1 1 calc R . . . .
N5 N -0.0398(4) 0.7939(2) 0.7056(2) 0.0346(8) Uani 1 1 d . . . . .
H5 H -0.0106 0.8279 0.7403 0.041 Uiso 1 1 calc R . . . .
N6 N 0.5211(3) 0.9583(2) 0.8494(2) 0.0196(7) Uani 1 1 d . . . . .
C1 C 0.6313(4) 0.8577(3) 0.8920(2) 0.0196(8) Uani 1 1 d . . . . .
H1 H 0.7207 0.8551 0.9300 0.024 Uiso 1 1 calc R . . . .
C2 C 0.0477(4) 0.5004(3) 0.8883(3) 0.0238(8) Uani 1 1 d . . . . .
H2 H 0.0870 0.4606 0.9544 0.029 Uiso 1 1 calc R . . . .
C3 C 0.5402(4) 0.4684(3) 0.8697(3) 0.0227(8) Uani 1 1 d . . . . .
C4 C 0.0078(4) 0.4387(3) 0.8381(2) 0.0207(8) Uani 1 1 d . . . . .
C5 C -0.0237(5) 0.6777(3) 0.7473(3) 0.0257(9) Uani 1 1 d . . . . .
C6 C 0.4916(4) 0.7609(3) 0.8296(3) 0.0213(8) Uani 1 1 d . . . . .
C7 C 0.2336(4) 0.0772(3) 0.9363(3) 0.0205(8) Uani 1 1 d . . . . .
C8 C 0.0230(4) 0.3136(3) 0.8935(3) 0.0223(8) Uani 1 1 d . . . . .
C9 C 0.3950(4) 0.9593(3) 0.7970(3) 0.0251(9) Uani 1 1 d . . . . .
H9 H 0.3161 1.0294 0.7667 0.030 Uiso 1 1 calc R . . . .
C10 C 0.0317(4) 0.6167(3) 0.8445(3) 0.0271(9) Uani 1 1 d . . . . .
H10 H 0.0586 0.6562 0.8807 0.032 Uiso 1 1 calc R . . . .
C11 C 0.6203(4) 0.7588(3) 0.8830(3) 0.0209(8) Uani 1 1 d . . . . .
H11 H 0.7012 0.6899 0.9136 0.025 Uiso 1 1 calc R . . . .
C12 C 0.2183(5) 0.8435(3) 0.3874(3) 0.0261(9) Uani 1 1 d . . . . .
C13 C -0.0437(5) 0.4982(3) 0.7419(3) 0.0310(9) Uani 1 1 d . . . . .
H13 H -0.0679 0.4577 0.7058 0.037 Uiso 1 1 calc R . . . .
C14 C 0.4339(5) 0.4587(3) 0.8073(3) 0.0324(10) Uani 1 1 d . . . . .
H14 H 0.3557 0.5238 0.7653 0.039 Uiso 1 1 calc R . . . .
C15 C 0.6530(4) 0.2670(3) 0.9260(3) 0.0235(8) Uani 1 1 d . . . . .
H15 H 0.7296 0.2005 0.9677 0.028 Uiso 1 1 calc R . . . .
C16 C -0.1031(5) 0.8625(3) 0.6067(3) 0.0343(10) Uani 1 1 d . . . . .
H16A H -0.1336 0.9442 0.5971 0.041 Uiso 1 1 calc R . . . .
H16B H -0.2022 0.8408 0.5953 0.041 Uiso 1 1 calc R . . . .
C17 C 0.0122(5) 0.8508(3) 0.5319(3) 0.0275(9) Uani 1 1 d . . . . .
C18 C 0.6484(4) 0.3710(3) 0.9317(3) 0.0241(8) Uani 1 1 d . . . . .
H18 H 0.7187 0.3751 0.9776 0.029 Uiso 1 1 calc R . . . .
C19 C 0.0524(5) 0.8736(3) 0.3676(3) 0.0335(10) Uani 1 1 d . . . . .
H19 H 0.0082 0.8926 0.3043 0.040 Uiso 1 1 calc R . . . .
C20 C 0.3739(4) 0.8638(3) 0.7847(3) 0.0275(9) Uani 1 1 d . . . . .
H20 H 0.2831 0.8676 0.7472 0.033 Uiso 1 1 calc R . . . .
C21 C 0.0574(4) 0.1254(3) 0.8961(3) 0.0228(8) Uani 1 1 d . . . . .
H21A H 0.0340 0.0890 0.8532 0.027 Uiso 1 1 calc R . . . .
H21B H -0.0125 0.1059 0.9502 0.027 Uiso 1 1 calc R . . . .
C22 C 0.4448(5) 0.3513(3) 0.8077(3) 0.0310(9) Uani 1 1 d . . . . .
H22 H 0.3707 0.3442 0.7657 0.037 Uiso 1 1 calc R . . . .
C23 C -0.0495(5) 0.8764(3) 0.4394(3) 0.0318(9) Uani 1 1 d . . . . .
H23 H -0.1627 0.8960 0.4249 0.038 Uiso 1 1 calc R . . . .
C24 C 0.3303(5) 0.8442(3) 0.3102(3) 0.0266(9) Uani 1 1 d . . . . .
C25 C 0.1758(5) 0.8177(3) 0.5524(3) 0.0369(10) Uani 1 1 d . . . . .
H25 H 0.2192 0.7969 0.6163 0.044 Uiso 1 1 calc R . . . .
C26 C 0.2799(5) 0.8141(3) 0.4812(3) 0.0361(10) Uani 1 1 d . . . . .
H26 H 0.3930 0.7914 0.4968 0.043 Uiso 1 1 calc R . . . .
C27 C -0.0611(5) 0.6160(3) 0.6960(3) 0.0364(10) Uani 1 1 d . . . . .
H27 H -0.0986 0.6553 0.6296 0.044 Uiso 1 1 calc R . . . .
loop_
_atom_site_aniso_label
_atom_site_aniso_U_11
_atom_site_aniso_U_22
_atom_site_aniso_U_33
_atom_site_aniso_U_23
_atom_site_aniso_U_13
_atom_site_aniso_U_12
Cu1 0.0293(3) 0.0095(2) 0.0249(3) -0.01235(19) 0.00755(18) -0.00877(18)
O1 0.0373(15) 0.0137(12) 0.0188(15) -0.0093(11) 0.0072(11) -0.0089(11)
O2 0.0323(14) 0.0124(13) 0.0276(15) -0.0106(12) 0.0033(11) -0.0079(11)
O3 0.0322(14) 0.0140(13) 0.0415(17) -0.0158(12) 0.0143(12) -0.0126(11)
O4 0.0383(15) 0.0172(13) 0.0198(15) -0.0067(11) 0.0025(12) -0.0059(11)
O5 0.0393(17) 0.0316(16) 0.0345(17) -0.0151(13) 0.0075(13) -0.0002(13)
N1 0.0340(18) 0.0152(16) 0.039(2) -0.0176(16) 0.0050(15) -0.0093(14)
N2 0.0327(18) 0.0131(16) 0.036(2) -0.0159(15) 0.0049(15) -0.0100(14)
N3 0.0246(16) 0.0129(15) 0.0258(18) -0.0104(14) 0.0089(13) -0.0080(13)
N4 0.0368(18) 0.0148(15) 0.0168(17) -0.0053(13) -0.0026(13) -0.0075(13)
N5 0.075(3) 0.0163(17) 0.0169(18) -0.0091(14) 0.0092(17) -0.0150(16)
N6 0.0241(16) 0.0147(15) 0.0259(18) -0.0129(14) 0.0030(13) -0.0071(13)
C1 0.0243(19) 0.0170(18) 0.022(2) -0.0110(16) 0.0036(15) -0.0085(15)
C2 0.034(2) 0.020(2) 0.017(2) -0.0081(16) 0.0023(16) -0.0048(16)
C3 0.030(2) 0.0133(18) 0.032(2) -0.0155(17) 0.0086(17) -0.0087(16)
C4 0.029(2) 0.0154(18) 0.020(2) -0.0086(16) 0.0085(16) -0.0084(15)
C5 0.045(2) 0.0169(19) 0.020(2) -0.0106(17) 0.0154(18) -0.0114(17)
C6 0.031(2) 0.0123(18) 0.027(2) -0.0121(16) 0.0058(17) -0.0107(15)
C7 0.033(2) 0.0146(19) 0.026(2) -0.0177(18) 0.0060(17) -0.0107(16)
C8 0.025(2) 0.0172(19) 0.028(2) -0.0106(17) 0.0041(16) -0.0075(15)
C9 0.033(2) 0.0147(19) 0.031(2) -0.0128(17) -0.0007(17) -0.0037(16)
C10 0.044(2) 0.020(2) 0.024(2) -0.0151(18) 0.0074(18) -0.0105(18)
C11 0.031(2) 0.0111(17) 0.025(2) -0.0105(16) 0.0030(16) -0.0074(15)
C12 0.047(2) 0.0125(18) 0.021(2) -0.0073(16) 0.0066(18) -0.0090(17)
C13 0.056(3) 0.019(2) 0.023(2) -0.0115(17) 0.0010(19) -0.0112(18)
C14 0.043(2) 0.0147(19) 0.042(3) -0.0136(19) -0.006(2) -0.0067(17)
C15 0.026(2) 0.0175(19) 0.033(2) -0.0144(17) 0.0081(17) -0.0090(16)
C16 0.064(3) 0.016(2) 0.023(2) -0.0095(17) 0.013(2) -0.0085(19)
C17 0.050(3) 0.0113(18) 0.021(2) -0.0057(16) 0.0101(18) -0.0081(17)
C18 0.027(2) 0.021(2) 0.034(2) -0.0190(18) 0.0050(17) -0.0097(16)
C19 0.051(3) 0.036(2) 0.022(2) -0.0155(19) 0.0075(19) -0.021(2)
C20 0.032(2) 0.024(2) 0.034(2) -0.0196(19) -0.0037(18) -0.0068(17)
C21 0.032(2) 0.0129(18) 0.027(2) -0.0099(16) -0.0001(16) -0.0096(16)
C22 0.043(2) 0.021(2) 0.036(2) -0.0159(19) -0.0037(19) -0.0105(18)
C23 0.042(2) 0.029(2) 0.026(2) -0.0106(19) 0.0078(19) -0.0139(19)
C24 0.044(3) 0.0111(18) 0.031(2) -0.0132(18) 0.0098(19) -0.0101(17)
C25 0.055(3) 0.029(2) 0.020(2) -0.0101(18) -0.0027(19) 0.003(2)
C26 0.042(2) 0.033(2) 0.028(2) -0.0106(19) 0.0032(19) -0.0004(19)
C27 0.074(3) 0.021(2) 0.015(2) -0.0072(17) 0.001(2) -0.013(2)
loop_
_atom_type_symbol
_atom_type_description
_atom_type_scat_dispersion_real
_atom_type_scat_dispersion_imag
_atom_type_scat_source
C C 0.0033 0.0016 'International Tables Vol C Tables 4.2.6.8 and 6.1.1.4'
H H 0.0000 0.0000 'International Tables Vol C Tables 4.2.6.8 and 6.1.1.4'
Cu Cu 0.3201 1.2651 'International Tables Vol C Tables 4.2.6.8 and 6.1.1.4'
N N 0.0061 0.0033 'International Tables Vol C Tables 4.2.6.8 and 6.1.1.4'
O O 0.0106 0.0060 'International Tables Vol C Tables 4.2.6.8 and 6.1.1.4'
loop_
_geom_angle_atom_site_label_1
_geom_angle_atom_site_label_2
_geom_angle_atom_site_label_3
_geom_angle
_geom_angle_site_symmetry_1
_geom_angle_site_symmetry_3
_geom_angle_publ_flag
O1 Cu1 O2 88.69(9) 2_666 2_657 ?
O1 Cu1 N3 93.32(10) 2_666 . ?
O1 Cu1 N6 88.85(10) 2_666 1_545 ?
O3 Cu1 O1 154.86(11) . 2_666 ?
O3 Cu1 O2 116.36(10) . 2_657 ?
O3 Cu1 N3 85.04(10) . . ?
O3 Cu1 N6 89.99(10) . 1_545 ?
N3 Cu1 O2 89.93(10) . 2_657 ?
N3 Cu1 N6 172.62(12) . 1_545 ?
N6 Cu1 O2 97.17(10) 1_545 2_657 ?
C24 O1 Cu1 107.0(2) . 2_666 ?
C7 O2 Cu1 140.0(2) . 2_657 ?
C7 O3 Cu1 134.4(2) . . ?
N2 N1 C6 110.6(3) . . ?
N1 N2 C3 114.8(3) . . ?
C15 N3 Cu1 122.6(2) . . ?
C15 N3 C22 117.3(3) . . ?
C22 N3 Cu1 119.9(2) . . ?
C8 N4 C21 116.6(3) . . ?
C5 N5 C16 122.2(3) . . ?
C1 N6 Cu1 120.5(2) . 1_565 ?
C9 N6 Cu1 122.2(2) . 1_565 ?
C9 N6 C1 117.3(3) . . ?
N6 C1 C11 123.1(3) . . ?
C10 C2 C4 121.7(3) . . ?
C14 C3 N2 126.5(3) . . ?
C18 C3 N2 114.2(3) . . ?
C18 C3 C14 119.2(3) . . ?
C2 C4 C8 117.4(3) . . ?
C13 C4 C2 117.7(3) . . ?
C13 C4 C8 124.9(3) . . ?
N5 C5 C10 119.5(3) . . ?
N5 C5 C27 122.6(3) . . ?
C10 C5 C27 117.9(3) . . ?
C11 C6 N1 123.7(3) . . ?
C11 C6 C20 119.5(3) . . ?
C20 C6 N1 116.9(3) . . ?
O2 C7 O3 126.7(3) . . ?
O2 C7 C21 118.7(3) . . ?
O3 C7 C21 114.6(3) . . ?
O4 C8 N4 121.6(3) . . ?
O4 C8 C4 121.3(3) . . ?
N4 C8 C4 117.2(3) . . ?
N6 C9 C20 123.4(3) . . ?
C2 C10 C5 120.7(3) . . ?
C6 C11 C1 119.1(3) . . ?
C19 C12 C24 121.5(4) . . ?
C19 C12 C26 118.5(3) . . ?
C26 C12 C24 120.0(4) . . ?
C4 C13 C27 121.6(3) . . ?
C3 C14 C22 117.9(4) . . ?
N3 C15 C18 122.7(3) . . ?
N5 C16 C17 114.6(3) . . ?
C23 C17 C16 119.2(4) . . ?
C25 C17 C16 122.1(4) . . ?
C25 C17 C23 118.7(4) . . ?
C3 C18 C15 119.0(3) . . ?
C12 C19 C23 120.7(4) . . ?
C9 C20 C6 117.6(3) . . ?
N4 C21 C7 112.0(3) . . ?
N3 C22 C14 123.8(4) . . ?
C17 C23 C19 120.7(4) . . ?
O1 C24 C12 116.9(3) . . ?
O5 C24 O1 122.6(3) . . ?
O5 C24 C12 120.4(4) . . ?
C17 C25 C26 121.3(4) . . ?
C12 C26 C25 120.1(4) . . ?
C13 C27 C5 120.4(4) . . ?
loop_
_geom_bond_atom_site_label_1
_geom_bond_atom_site_label_2
_geom_bond_distance
_geom_bond_site_symmetry_2
_geom_bond_publ_flag
Cu1 O1 1.989(2) 2_666 ?
Cu1 O2 2.224(2) 2_657 ?
Cu1 O3 1.923(2) . ?
Cu1 N3 2.031(3) . ?
Cu1 N6 2.039(3) 1_545 ?
O1 Cu1 1.989(2) 2_666 ?
O1 C24 1.295(4) . ?
O2 Cu1 2.224(2) 2_657 ?
O2 C7 1.242(4) . ?
O3 C7 1.273(4) . ?
O4 C8 1.234(4) . ?
O5 C24 1.240(4) . ?
N1 N2 1.251(4) . ?
N1 C6 1.449(4) . ?
N2 C3 1.429(4) . ?
N3 C15 1.335(5) . ?
N3 C22 1.345(5) . ?
N4 C8 1.352(4) . ?
N4 C21 1.460(4) . ?
N5 C5 1.366(4) . ?
N5 C16 1.440(5) . ?
N6 Cu1 2.039(3) 1_565 ?
N6 C1 1.349(4) . ?
N6 C9 1.343(4) . ?
C1 C11 1.376(4) . ?
C2 C4 1.401(5) . ?
C2 C10 1.369(5) . ?
C3 C14 1.382(5) . ?
C3 C18 1.380(5) . ?
C4 C8 1.486(5) . ?
C4 C13 1.373(5) . ?
C5 C10 1.394(5) . ?
C5 C27 1.405(5) . ?
C6 C11 1.364(5) . ?
C6 C20 1.404(5) . ?
C7 C21 1.529(5) . ?
C9 C20 1.382(5) . ?
C12 C19 1.388(5) . ?
C12 C24 1.499(5) . ?
C12 C26 1.392(5) . ?
C13 C27 1.387(5) . ?
C14 C22 1.382(5) . ?
C15 C18 1.387(5) . ?
C16 C17 1.521(5) . ?
C17 C23 1.386(5) . ?
C17 C25 1.371(6) . ?
C19 C23 1.389(5) . ?
C25 C26 1.396(5) . ?
loop_
_smtbx_masks_void_nr
_smtbx_masks_void_average_x
_smtbx_masks_void_average_y
_smtbx_masks_void_average_z
_smtbx_masks_void_volume
_smtbx_masks_void_count_electrons
_smtbx_masks_void_content
1 -0.026 0.087 0.149 10.0 8.9 ?
2 0.026 -0.087 0.851 10.0 8.9 ?
3 -0.606 0.613 0.500 329.4 106.0 ?
