#------------------------------------------------------------------------------
#$Date: 2021-10-03 22:07:01 +0300 (Sun, 03 Oct 2021) $
#$Revision: 269462 $
#$URL: file:///home/coder/svn-repositories/cod/cif/4/51/90/4519035.cif $
#------------------------------------------------------------------------------
#
# This file is available in the Crystallography Open Database (COD),
# http://www.crystallography.net/
#
# All data on this site have been placed in the public domain by the
# contributors.
#
data_4519035
loop_
_publ_author_name
'Zhang, Zong-Hui'
'Fang, Han'
'Xue, Dong-Xu'
'Bai, Junfeng'
_publ_section_title
;
 Tuning Open Metal Site-Free <b>ncb</b> Type of Metal-Organic Frameworks
 for Simultaneously High Gravimetric and Volumetric Methane Storage
 Working Capacities.
;
_journal_issue                   37
_journal_name_full               'ACS applied materials &amp; interfaces'
_journal_page_first              44956
_journal_page_last               44963
_journal_paper_doi               10.1021/acsami.1c13757
_journal_volume                  13
_journal_year                    2021
_chemical_formula_moiety         'C60 H39 Fe3 N6 O16'
_chemical_formula_sum            'C60 H39 Fe3 N6 O16'
_chemical_formula_weight         1267.52
_space_group_crystal_system      cubic
_space_group_IT_number           217
_space_group_name_Hall           'I -4 2 3'
_space_group_name_H-M_alt        'I -4 3 m'
_atom_sites_solution_hydrogens   geom
_atom_sites_solution_primary     dual
_audit_creation_date             2021-05-15
_audit_creation_method
;
Olex2 1.3
(compiled 2020.11.12 svn.r5f609507 for OlexSys, GUI svn.r6272)
;
_cell_angle_alpha                90
_cell_angle_beta                 90
_cell_angle_gamma                90
_cell_formula_units_Z            8
_cell_length_a                   32.5991(9)
_cell_length_b                   32.5991(9)
_cell_length_c                   32.5991(9)
_cell_measurement_reflns_used    5805
_cell_measurement_temperature    243.0
_cell_measurement_theta_max      39.97
_cell_measurement_theta_min      3.32
_cell_volume                     34643.1(17)
_computing_cell_refinement       'SAINT v8.37A (Bruker, 2015)'
_computing_data_reduction        'SAINT v8.37A (Bruker, 2015)'
_computing_molecular_graphics    'Olex2 1.3 (Dolomanov et al., 2009)'
_computing_publication_material  'Olex2 1.3 (Dolomanov et al., 2009)'
_computing_structure_refinement  'XL  (Sheldrick, 2008)'
_computing_structure_solution    'SHELXT 2014/5 (Sheldrick, 2014)'
_diffrn_ambient_temperature      243.0
_diffrn_measured_fraction_theta_full 0.998
_diffrn_measured_fraction_theta_max 0.998
_diffrn_measurement_device_type  'Bruker APEX-II CCD'
_diffrn_measurement_method       '\f and \w scans'
_diffrn_radiation_type           CuK\a
_diffrn_radiation_wavelength     1.54178
_diffrn_reflns_av_R_equivalents  0.0509
_diffrn_reflns_av_unetI/netI     0.0462
_diffrn_reflns_Laue_measured_fraction_full 0.998
_diffrn_reflns_Laue_measured_fraction_max 0.998
_diffrn_reflns_limit_h_max       27
_diffrn_reflns_limit_h_min       -17
_diffrn_reflns_limit_k_max       27
_diffrn_reflns_limit_k_min       -25
_diffrn_reflns_limit_l_max       27
_diffrn_reflns_limit_l_min       -13
_diffrn_reflns_number            16106
_diffrn_reflns_point_group_measured_fraction_full 0.987
_diffrn_reflns_point_group_measured_fraction_max 0.987
_diffrn_reflns_theta_full        39.972
_diffrn_reflns_theta_max         39.972
_diffrn_reflns_theta_min         1.916
_diffrn_source_current           50.0
_diffrn_source_power             2.5
_diffrn_source_voltage           50.0
_diffrn_standards_number         0
_exptl_absorpt_coefficient_mu    2.201
_exptl_absorpt_correction_T_max  0.7479
_exptl_absorpt_correction_T_min  0.4198
_exptl_absorpt_correction_type   multi-scan
_exptl_absorpt_process_details
;
SADABS-2016/2 (Bruker,2016/2) was used for absorption correction.
wR2(int) was 0.0904 before and 0.0687 after correction.
The Ratio of minimum to maximum transmission is 0.5743.
The \l/2 correction factor is Not present.
;
_exptl_crystal_colour            brown
_exptl_crystal_colour_primary    brown
_exptl_crystal_density_diffrn    0.486
_exptl_crystal_description       Polyhedron
_exptl_crystal_F_000             5176
_exptl_crystal_size_max          0.08
_exptl_crystal_size_mid          0.08
_exptl_crystal_size_min          0.08
_refine_diff_density_max         0.493
_refine_diff_density_min         -0.436
_refine_diff_density_rms         0.057
_refine_ls_abs_structure_details
;
 Flack x determined using 724 quotients [(I+)-(I-)]/[(I+)+(I-)]
 (Parsons, Flack and Wagner, Acta Cryst. B69 (2013) 249-259).
;
_refine_ls_abs_structure_Flack   0.217(17)
_refine_ls_extinction_method     none
_refine_ls_goodness_of_fit_ref   1.116
_refine_ls_hydrogen_treatment    constr
_refine_ls_matrix_type           full
_refine_ls_number_parameters     169
_refine_ls_number_reflns         1945
_refine_ls_number_restraints     266
_refine_ls_restrained_S_all      1.091
_refine_ls_R_factor_all          0.0803
_refine_ls_R_factor_gt           0.0745
_refine_ls_shift/su_max          0.000
_refine_ls_shift/su_mean         0.000
_refine_ls_structure_factor_coef Fsqd
_refine_ls_weighting_details
'w=1/[\s^2^(Fo^2^)+(0.1042P)^2^+249.1832P] where P=(Fo^2^+2Fc^2^)/3'
_refine_ls_weighting_scheme      calc
_refine_ls_wR_factor_gt          0.2002
_refine_ls_wR_factor_ref         0.2052
_reflns_Friedel_coverage         0.828
_reflns_Friedel_fraction_full    0.973
_reflns_Friedel_fraction_max     0.973
_reflns_number_gt                1764
_reflns_number_total             1945
_reflns_threshold_expression     'I > 2\s(I)'
_cod_data_source_file            am1c13757_si_003.cif
_cod_data_source_block           a
_cod_original_cell_volume        34643(3)
_cod_database_code               4519035
_shelx_shelxl_version_number     2014/7
_shelx_space_group_comment
;
The symmetry employed for this shelxl refinement is uniquely defined
by the following loop, which should always be used as a source of
symmetry information in preference to the above space-group names.
They are only intended as comments.
;
_shelx_estimated_absorpt_t_max   0.844
_shelx_estimated_absorpt_t_min   0.844
_olex2_refinement_description
;
1. Restrained distances
 C16-C2 = C2-C10
 1.43 with sigma of 0.02
 N1-C16 = C16-C2
 1.43 with sigma of 0.02
 C9-C5
 1.43 with sigma of 0.001
 N2-C9
 1.43 with sigma of 0.001
 O3-C9
 1.43 with sigma of 0.001
 N2-C10
 1.43 with sigma of 0.001
 C1-C12 = C12-C14
 1.43 with sigma of 0.02
 C6-C14 = C14-C12
 1.43 with sigma of 0.02
 C16-C10
 2.477 with sigma of 0.04
 N1-C2
 2.477 with sigma of 0.04
 C6-C12
 2.477 with sigma of 0.04
 C1-C14
 2.477 with sigma of 0.04
 C9-C11 \\sim C15-C9
 with sigma of 0.02
2. Uiso/Uaniso restraints and constraints
Uanis(C4) \\sim Ueq, Uanis(N1) \\sim Ueq, Uanis(C10) \\sim Ueq, Uanis(C8) \\sim
Ueq, Uanis(C1) \\sim Ueq, Uanis(C6) \\sim Ueq: with sigma of 0.001 and sigma
for terminal atoms of 0.002
Uanis(O2) \\sim Ueq: with sigma of 0.001 and sigma for terminal atoms of 0.002
Uanis(O3) \\sim Ueq: with sigma of 0.01 and sigma for terminal atoms of 0.02
Uanis(C15) \\sim Ueq, Uanis(C11) \\sim Ueq, Uanis(C5) \\sim Ueq, Uanis(C9)
\\sim Ueq, Uanis(C2) \\sim Ueq, Uanis(C16) \\sim Ueq: with sigma of 0.01 and
sigma for terminal atoms of 0.02
Uanis(C13) \\sim Ueq: with sigma of 0.01 and sigma for terminal atoms of 0.02
Uanis(O1) \\sim Ueq: with sigma of 0.01 and sigma for terminal atoms of 0.02
3. Rigid body (RIGU) restrains
 O2, Fe1, O1, O4, N1, C4, C8, C16, C1, C2, C12, C10, C14, N2, C6
 with sigma for 1-2 distances of 0.004 and sigma for 1-3 distances of 0.004
 C10, N2, C9, O3, C5, C15, C7, C13, C3, C11
 with sigma for 1-2 distances of 0.004 and sigma for 1-3 distances of 0.004
4. Others
 Fixed Sof: N2(0.5) H2(0.5) O3(0.5) C9(0.5) C5(0.5) C11(0.5) H11(0.5) C3(0.5)
 H3(0.5) C13(0.5) C7(0.5) H7(0.5) C15(0.5) H15(0.5)
5.a Aromatic/amide H refined with riding coordinates:
 N2(H2), C12(H12), C14(H14), C16(H16), C2(H2A), C11(H11), C3(H3), C7(H7),
 C15(H15)
5.b Fitted hexagon refined as free rotating group:
 C5(C11,C3,C13,C7,C15)
;
_smtbx_masks_void_probe_radius   1.2
_smtbx_masks_void_truncation_radius 1.2
_shelx_res_file
;
    a.res created by SHELXL-2014/7

TITL a_a.res in I-43m
REM Old TITL a_a.res in I-43m
REM SHELXT solution in I-43m
REM R1 0.176, Rweak 0.033, Alpha 0.004, Orientation as input
REM Flack x = 0.122 ( 0.010 ) from Parsons' quotients
REM Formula found by SHELXT: C42 Fe3 N3 O22
CELL 1.54178 32.5991 32.5991 32.5991 90 90 90
ZERR 8 0.0009 0.0009 0.0009 0 0 0
LATT -2
SYMM -X,-Y,+Z
SYMM -X,+Y,-Z
SYMM +X,-Y,-Z
SYMM +Z,+X,+Y
SYMM +Z,-X,-Y
SYMM -Z,-X,+Y
SYMM -Z,+X,-Y
SYMM +Y,+Z,+X
SYMM -Y,+Z,-X
SYMM +Y,-Z,-X
SYMM -Y,-Z,+X
SYMM +Y,+X,+Z
SYMM -Y,-X,+Z
SYMM +Y,-X,-Z
SYMM -Y,+X,-Z
SYMM +X,+Z,+Y
SYMM -X,+Z,-Y
SYMM -X,-Z,+Y
SYMM +X,-Z,-Y
SYMM +Z,+Y,+X
SYMM +Z,-Y,-X
SYMM -Z,+Y,-X
SYMM -Z,-Y,+X
SFAC C H Fe N O
UNIT 480 312 24 48 128
ISOR 0.001 0.002 C4 N1 C10 C8 C1 C6
RIGU O2 Fe1 O1 O4 N1 C4 C8 C16 C1 C2 C12 C10 C14 N2 C6
ISOR 0.001 0.002 O2
DFIX 1.43 C16 C2 C2 C10
DANG 2.477 C16 C10
DFIX 1.43 N1 C16 C16 C2
DANG 2.477 N1 C2
DFIX 1.43 0.001 C9 C5
DFIX 1.43 0.001 N2 C9
DFIX 1.43 0.001 O3 C9
DFIX 1.43 0.001 N2 C10
RIGU C10 N2 C9 O3 C5 C15 C7 C13 C3 C11
ISOR 0.01 0.02 O3
ISOR 0.01 0.02 C15 C11 C5 C9 C2 C16
ISOR 0.01 0.02 C13
ISOR 0.01 0.02 O1
SADI C9 C11 C15 C9
DFIX 1.43 C1 C12 C12 C14
DANG 2.477 C6 C12
DANG 2.477 C1 C14
DFIX 1.43 C6 C14 C14 C12

L.S. 99 0 0
PLAN  1
SIZE 0.08 0.08 0.08
TEMP -30.15
CONF
BIND C9 C5
FREE C9 C11
FREE C15 C9
BOND $H
list 4
MORE -1
ABIN
fmap 2 53
acta
REM <olex2.extras>
REM <HklSrc "%.\\a.hkl">
REM </olex2.extras>

WGHT    0.104200  249.183212
FVAR       0.16258
FE1   3    0.628069    0.699402    0.300598    10.50000    0.01832    0.02546 =
         0.02546   -0.00003    0.00048   -0.00048
O1    5    0.650538    0.759298    0.301862    11.00000    0.06545    0.04184 =
         0.07615    0.01698   -0.04378   -0.01064
O4    5    0.599496    0.643357    0.290464    11.00000    0.01333    0.03609 =
         0.10529    0.00098   -0.01629   -0.00691
O2    5    0.677230    0.677230    0.322770    10.16667    0.02885    0.02885 =
         0.02885    0.00024    0.00024   -0.00024
N1    4    0.573811    0.729146    0.270854    10.50000    0.04680    0.04727 =
         0.04727    0.00017   -0.00047    0.00047
C1    1    0.579018    0.579018    0.291979    10.50000    0.03594    0.03594 =
         0.03576    0.00013    0.00013   -0.00034
C4    1    0.675155    0.775934    0.324845    10.50000    0.01996    0.01973 =
         0.01996    0.00028    0.00017   -0.00028
C6    1    0.516374    0.516374    0.290204    10.50000    0.06927    0.06927 =
         0.06939   -0.00011   -0.00011   -0.00022
C8    1    0.611377    0.611377    0.286406    10.50000    0.03503    0.03503 =
         0.03501   -0.00049   -0.00049    0.00002
PART -1
N2    4    0.462654    0.778259    0.227385    10.50000    0.07707    0.09147 =
         0.06833    0.00933    0.00526    0.01244
AFIX  43
H2    2    0.455583    0.802028    0.237249    10.50000   -1.20000
AFIX   0
PART 0
C10   1    0.501340    0.761088    0.238912    10.50000    0.08975    0.09001 =
         0.09001   -0.00005   -0.00020    0.00020
C12   1    0.587899    0.538177    0.289273    11.00000    0.05016    0.04219 =
         0.05217   -0.00881   -0.01865    0.00808
AFIX  43
H12   2    0.615629    0.530813    0.286400    11.00000   -1.20000
AFIX   0
C14   1    0.557634    0.504807    0.290486    11.00000    0.06684    0.05280 =
         0.16960   -0.00082   -0.00111   -0.00896
AFIX  43
H14   2    0.565618    0.477114    0.291404    11.00000   -1.20000
AFIX   0
C16   1    0.558907    0.712133    0.233787    11.00000    0.08711    0.11717 =
         0.08581   -0.01637   -0.01833    0.01074
AFIX  43
H16   2    0.571231    0.689246    0.221305    11.00000   -1.20000
AFIX   0
C2    1    0.523890    0.732085    0.216640    11.00000    0.08193    0.10007 =
         0.07436   -0.00526   -0.01049    0.00913
AFIX  43
H2A   2    0.515773    0.725596    0.189743    11.00000   -1.20000
AFIX   0
PART -1
O3    5    0.450897    0.744554    0.161253    10.50000    0.08766    0.14162 =
         0.09701   -0.00849   -0.01455    0.03388
C9    1    0.435247    0.757523    0.200127    10.50000    0.09799    0.10911 =
         0.10008   -0.00229   -0.00622    0.01153
AFIX  66
C5    1    0.403289    0.786537    0.192296    10.50000    0.08099    0.09261 =
         0.09125    0.00063   -0.00389    0.00078
C11   1    0.382440    0.803091    0.225603    10.50000    0.08333    0.10224 =
         0.09146   -0.00045   -0.00540    0.00152
AFIX  43
H11   2    0.395537    0.805211    0.251205    10.50000   -1.20000
AFIX  65
C3    1    0.342224    0.816509    0.221054    10.50000    0.09150    0.18511 =
         0.09973   -0.01909   -0.01304    0.02765
AFIX  43
H3    2    0.328125    0.827704    0.243578    10.50000   -1.20000
AFIX  65
C13   1    0.322857    0.813375    0.183196    10.50000    0.07810    0.08500 =
         0.08864    0.01246   -0.00118   -0.00070
C7    1    0.343705    0.796821    0.149888    10.50000    0.07256    0.07531 =
         0.09046    0.00972   -0.00233   -0.00482
AFIX  43
H7    2    0.330608    0.794701    0.124287    10.50000   -1.20000
AFIX  65
C15   1    0.383921    0.783402    0.154438    10.50000    0.07590    0.08482 =
         0.08580    0.00177    0.00028   -0.00171
AFIX  43
H15   2    0.398020    0.772208    0.131913    10.50000   -1.20000
AFIX   0
HKLF 4

REM  a_a.res in I-43m
REM R1 =  0.0745 for    1764 Fo > 4sig(Fo)  and  0.0803 for all    1945 data
REM    169 parameters refined using    266 restraints

END

WGHT      0.1050    232.7183

REM Highest difference peak  0.493,  deepest hole -0.436,  1-sigma level  0.057
Q1    1   0.7237  0.7236  0.2764  10.16667  0.05    0.49
;
_shelx_res_checksum              37003
_shelx_hkl_file
;
   0  -1   1 2153.28  166.18
   0   1   1 2053.69  166.18
  -2   1   1 9065.59  720.33
   2  -1   1 9252.37  720.43
  -1   1   2 9171.68  720.73
   1  -1   2 9225.68  720.73
   1   1   2 9191.78  720.73
  -1  -1   2 9042.90  720.73
   2   1   1 9059.29  720.43
  -2   0   2 1183.28   95.69
   0  -2   2 1222.38   96.19
   0   2   2 1206.78   96.19
   2   0   2 1204.18   95.89
  -2   2   2 2312.57  173.78
   2  -2   2 2322.47  173.98
   2   2   2 1940.11  173.78
  -1   0   3 2607.24  207.38
   1   0   3 2628.34  207.48
   0   1   3 2552.14  201.98
   3   0   1 2559.54  201.08
  -3   0   1 2512.05  200.88
   0  -1   3 2568.14  202.08
   2  -1   3  310.37   31.20
  -2   1   3  308.07   30.80
   2   1   3  415.36   31.50
  -2  -1   3  400.96   31.10
  -1   2   3  281.77   30.40
  -3   1   2  289.97   28.90
   3  -1   2  304.07   29.50
   1  -2   3  308.47   30.80
   3   1   2  400.16   29.80
   1   2   3  405.06   30.90
  -1  -2   3  421.96   31.00
  -3  -1   2  391.36   29.30
  -3   0   3 9990.30  787.02
   0   3   3 9999.00  787.62
   3   0   3 9960.90  787.22
  -2   3   3 5025.90  413.06
  -3   2   3 5039.50  412.86
  -3   3   2 4922.31  412.76
   3  -2   3 4947.10  412.96
   2   3   3 5504.55  413.46
  -3  -2   3 5485.15  412.96
   3   2   3 5430.16  413.16
   3   3   2 5460.65  413.16
   0   0   4  358.26   32.10
   2   0   4  606.74   50.19
  -2   0   4  583.94   49.90
  -1   1   4 6993.50  561.94
   4  -1   1 7195.78  560.84
  -4   1   1 6922.81  560.64
   1  -1   4 7181.68  562.04
   4   1   1 6941.51  560.94
  -1  -1   4 7333.37  562.04
   1   1   4 7256.97  562.04
  -3   1   4   30.20   10.30
   3  -1   4   23.40   10.90
  -1   4   3    7.20   11.80
  -3  -1   4   22.50   10.30
   3   1   4   24.80   11.10
   1   4   3   27.70   13.30
   0   2   4  609.04   50.29
   4   0   2  576.74   48.40
   0  -2   4  606.34   50.29
  -4   0   2  583.84   47.80
   2  -2   4 4736.73  329.07
  -2   2   4 4675.13  328.87
  -4   2   2 4625.74  327.97
  -2  -2   4 3660.53  328.57
   2   2   4 3617.64  328.57
   4   2   2 3598.14  327.97
   4  -1   3   14.50    9.00
  -1   3   4    8.10   11.30
   1  -3   4   26.40   13.20
  -4   1   3   23.90    8.20
  -1  -3   4   29.10   12.70
   4   1   3   26.30    9.60
  -4  -1   3   37.10    8.60
   1   3   4   34.90   13.10
  -4   3   3 1290.97  104.39
  -3   3   4 1308.27  105.09
  -3   4   3 1294.77  105.09
   3  -3   4 1256.67  105.19
   4  -3   3 1291.67  103.39
   3   4   3 1321.97  105.59
   3   3   4 1325.87  105.59
   4   3   3 1273.27  104.89
  -4   0   4 2573.14  200.78
   0   4   4 2526.75  201.88
   4  -4   0 2395.26  199.98
   4   0   4 2614.84  201.28
   4  -4  -2  487.25   40.50
   2   4   4  454.65   44.40
  -4  -2   4  476.55   41.90
   4   2   4  492.75   43.10
  -4   4   4 6624.04  518.85
   4  -4   4 6449.55  517.55
   4  -4  -4 6417.56  517.35
   4   4   4 6757.32  519.25
  -1   0   5 1251.57  102.09
   1   0   5 1263.57  102.29
   3   0   5  744.53   62.19
   5  -3   0  745.63   59.09
  -3   0   5  691.73   61.09
   0  -1   5 1223.58   99.59
   5   0   1 1222.58   97.19
   0   1   5 1227.18   99.79
  -5   2   1  153.38   15.30
   2  -1   5  150.08   22.80
  -2   1   5  161.48   21.60
  -1   5   4 2017.00  159.78
   4  -1   5 2080.49  159.28
  -4   1   5 2037.80  158.78
   5  -4   1 2050.59  157.38
   4   1   5 1939.21  159.18
   1  -5  -4 1933.91  157.28
   5  -4  -1 1874.11  157.18
  -4  -1   5 1939.71  158.68
   1   5   4 1964.00  159.78
   5  -1   2  171.58   17.10
  -5   1   2  155.08   15.50
   1  -2   5  152.38   23.30
  -1   2   5  164.08   22.20
  -3   2   5  737.73   65.29
   3  -2   5  692.83   65.69
   2  -5   3  761.62   63.09
  -5   3   2  706.73   63.29
   5  -3   2  669.93   62.69
   2  -5  -3  852.91   62.69
  -3  -2   5  846.52   65.39
   5   3   2  832.62   64.29
   3   2   5  869.71   65.89
   0   3   5  760.42   63.29
   3  -5   0  739.73   59.79
  -5   0   3  714.23   59.89
   0  -3   5  769.12   63.29
   5   0   3  710.73   60.69
   5  -2   3  746.13   63.89
   3  -5   2  689.63   62.79
  -5   2   3  709.03   63.19
  -2   3   5  706.33   65.49
   2  -3   5  686.63   65.99
   3  -5  -2  824.92   62.69
  -2  -3   5  857.81   65.89
   5   2   3  876.81   64.39
   2   3   5  888.31   66.69
  -5   4   3 5412.46  411.66
   5  -4   3 5453.65  410.86
  -4   3   5 5520.35  412.16
  -3   5   4 5514.15  412.56
   4  -3   5 5421.56  410.76
   3  -5   4 5661.53  410.76
   4  -3   5 5464.35  412.46
   3  -5  -4 4900.11  410.46
   5  -4  -3 4765.62  410.46
   4   3   5 5033.80  412.26
   5   4   3 5131.89  412.06
   3   5   4 4473.85  412.26
  -4  -3   5 4875.41  411.96
  -1   4   5 2035.60  161.08
   1  -4   5 2138.29  161.48
   4  -5   1 2025.80  158.98
  -5   1   4 1989.10  159.48
   5  -1   4 2141.79  160.28
  -5  -1   4 1904.11  159.48
   1   4   5 2004.40  161.38
   4  -5  -1 1912.71  158.78
  -1  -4   5 1944.01  161.18
   5   1   4 1917.71  159.98
   3  -4   5 5782.12  422.26
   4  -5   3 5589.54  420.26
  -4   5   3 5526.95  421.66
   5  -3   4 5507.85  420.36
   5  -3   4 5665.53  421.56
  -3   4   5 5452.55  421.86
   3  -4   5 5548.25  420.16
  -5   3   4 5350.66  421.06
   4   5   3 5050.29  421.76
   3   4   5 4464.75  421.66
   4  -5  -3 4832.12  419.96
   5   3   4 5103.09  421.46
  -5   0   5  942.71   75.19
   0   5   5  931.21   77.89
   5  -5   0  859.61   73.79
   5   0   5  910.21   75.89
   5  -2   5 2319.97  217.58
  -5   2   5 2352.46  217.08
  -2   5   5 2313.87  218.08
   5  -5   2 2411.16  216.18
   2  -5   5 2445.16  215.88
   2   5   5 3124.99  219.18
   5  -5  -2 3047.99  216.18
   2  -5  -5 3166.68  216.18
  -5  -2   5 3048.69  217.58
   5   2   5 3069.49  218.18
  -5   4   5   86.99   17.20
  -5   5   4   84.29   16.40
  -4   5   5   75.89   19.00
   5  -4   5   87.99   13.10
   4  -5   5   79.59   12.70
   5  -5   4   93.99   12.90
   5  -4   5   93.79   18.30
   0  -6   0  269.77   25.60
   0   0   6  321.77   32.30
   2   0   6  438.76   43.00
   6  -2   0  469.45   37.60
   0  -6   2  440.36   37.80
   0  -6  -2  425.26   38.00
  -2   0   6  441.66   42.10
   6  -4   0 1575.74  128.29
   4   0   6 1668.43  130.89
   0   6   4 1582.44  131.59
  -4   0   6 1608.94  130.39
  -1  -6  -1 5106.09  407.26
   1  -6   1 4939.51  407.06
   1  -1   6 5223.38  409.16
  -1   1   6 5117.79  408.96
   1  -6  -1 5175.68  407.16
  -1  -6   1 5360.66  407.46
  -1  -1   6 5172.98  408.96
   1   1   6 5271.77  409.06
   6   1   1 5073.49  406.96
   3  -1   6 4566.34  332.47
   6  -3   1 4592.54  330.37
   1  -6   3 4280.17  330.07
  -3   1   6 4339.67  331.97
   1  -6  -3 3876.91  330.07
   6  -3  -1 4009.70  330.07
  -3  -1   6 3879.81  331.77
   3   1   6 3897.31  331.97
   1  -6   5  298.77   27.00
  -1   6   5  302.77   36.60
  -5   1   6  311.57   31.80
   5  -1   6  307.47   33.90
   6  -5   1  298.97   28.80
   6   0   2  415.36   36.30
   0   2   6  430.56   41.90
   2  -6   0  440.46   36.50
   0  -2   6  429.66   41.60
   2  -6   2 5468.35  401.46
  -6   2   2 5562.04  401.36
   2  -2   6 5684.63  403.66
  -2   2   6 5405.46  403.36
   2  -6  -2 4547.65  401.36
  -2  -2   6 4685.33  403.06
   2   2   6 4756.92  403.26
   6   2   2 4580.94  401.66
   6  -4   2 3438.06  270.07
  -6   4   2 3397.26  270.57
   2  -6   4 3342.57  269.77
   4  -2   6 3570.44  272.17
  -2   6   4 3385.96  272.27
  -4   2   6 3315.07  271.57
   6  -4  -2 3452.25  269.87
  -4  -2   6 3454.85  271.67
   4   2   6 3195.68  271.87
   6   4   2 3461.55  271.07
   2   6   4 3538.85  272.47
   2  -6  -4 3389.06  269.87
  -6   1   3 4218.58  321.67
  -1   3   6 4429.86  323.87
   6  -1   3 4421.16  322.27
   3  -6   1 4348.46  321.77
   1  -3   6 3922.61  323.67
   3  -6  -1 3792.42  321.57
  -1  -3   6 3856.91  323.47
   1   3   6 3824.92  323.57
   6   1   3 3815.72  322.17
  -3   3   6 5600.34  421.76
   3  -3   6 5656.93  419.76
  -6   3   3 5854.61  420.46
   6  -3   3 5692.43  420.06
   3  -6   3 5765.42  419.96
   3   3   6 4312.67  421.36
  -3  -3   6 4311.67  421.16
  -5   3   6 1142.09   85.39
  -3   6   5 1102.89   86.49
   3  -6   5 1180.38   82.49
   6  -5   3 1139.49   82.69
   5  -3   6 1154.98   86.09
  -6   5   3 1197.68   84.59
   6  -5  -3  866.71   82.09
   5   3   6  885.71   85.59
  -5  -3   6  912.91   84.89
   3   6   5  885.31   86.49
   6   5   3  864.21   84.99
   3  -6  -5  907.51   82.09
   4  -6   0 1649.63  127.89
  -6   0   4 1588.24  128.29
   0   4   6 1636.84  131.09
   0  -4   6 1535.75  130.79
   6   0   4 1600.44  128.99
   2  -4   6 3322.47  269.77
  -2   4   6 3405.86  271.87
   2  -4   6 3416.16  271.87
   6  -2   4 3373.26  270.57
  -6   2   4 3325.87  270.07
   4  -6   2 3343.07  269.57
   6   2   4 3493.75  270.77
   2   4   6 3592.94  272.27
  -2  -4   6 3401.16  271.87
   4  -6  -2 3406.76  269.57
  -4   6   4 4194.38  297.67
   4  -4   6 3989.40  297.67
   4  -6   4 4148.79  295.47
  -4   4   6 4210.68  297.67
   4  -4   6 3951.00  295.37
  -6   4   4 4159.58  296.57
   6  -4   4 3886.71  295.47
   6   4   4 3424.96  296.77
   4  -6  -4 3354.46  295.07
   6  -4  -4 3260.47  294.87
   4   4   6 3380.76  297.47
   4  -4  -6 3301.17  294.77
   4   6   4 3312.47  297.37
   6  -1   5  323.67   32.60
  -6   1   5  303.87   30.30
  -1   5   6  300.37   35.10
   5  -6   1  302.97   29.00
  -6   3   5 1172.38   80.29
  -3   5   6 1124.49   82.49
   6  -3   5 1188.28   81.09
   3   5   6  867.91   82.09
   3  -5  -6  909.81   77.79
   5   6   3  870.91   81.69
   6  -3  -5  835.12   77.19
   5  -6  -3  874.31   77.89
   6   3   5  890.11   80.59
  -6   5   5 1732.73  132.29
  -5   5   6 1750.92  132.99
  -5   6   5 1739.93  132.89
   5  -5   6 1740.73  130.19
   5  -6   5 1755.52  130.19
   6  -5   5 1772.22  130.39
   5  -6  -5 1536.15  129.69
   5  -5  -6 1492.85  129.49
   5   6   5 1518.95  133.29
   6  -5  -5 1503.75  129.49
   5   5   6 1501.25  133.09
   6   5   5 1479.25  132.69
  -6   0   6  230.98   26.70
   0   6   6  234.68   32.40
   6  -6   0  237.88   23.30
   6   0   6  188.38   28.80
   6  -6   2  714.53   58.99
  -6   2   6  658.83   60.79
  -2   6   6  642.84   63.59
   2  -6   6  685.83   58.19
   6  -2   6  652.63   62.19
   6  -6  -2  768.92   58.69
  -6  -2   6  777.02   61.29
   2   6   6  742.63   64.39
   6   2   6  727.23   62.29
  -6   4   6 2013.30  158.88
  -6   6   4 2004.10  158.98
  -4   6   6 1990.50  159.78
   6  -4   6 1893.91  156.88
   4  -6   6 2030.20  156.78
   6  -6   4 1928.11  156.98
   6  -4   6 1913.71  159.28
  -6   6   6 2065.49  157.98
   6  -6   6 2165.88  155.38
   6  -6  -6 1800.72  154.58
   6   6   6 1736.33  158.08
   0  -7  -1 7417.56  592.44
   0  -7   1 7371.26  592.34
   1   0   7 7788.82  594.64
   7   1   0 7200.38  591.74
  -1   0   7 7797.92  594.54
  -3   0   7  728.33   65.69
   0  -7   3  751.92   61.59
   3   0   7  757.52   66.69
   0  -7  -3  727.43   62.29
   7  -3   0  812.62   62.29
   0  -7   5  412.06   36.00
   0   7   5  435.76   45.60
   7  -5   0  444.06   37.40
  -5   0   7  422.76   41.60
   5   0   7  412.06   43.00
   0   1   7 7725.93  608.94
  -1  -7   0 7653.03  606.84
   0  -1   7 7919.71  609.04
   1  -7   0 7513.15  606.84
   7   0   1 7669.83  606.24
   2  -1   7 1234.68  114.09
  -7   2   1 1185.78  109.49
  -2   1   7 1245.88  113.69
   7  -2   1 1227.08  110.69
   1  -7   2 1191.08  110.49
   1  -7  -2 1536.55  110.89
  -2  -1   7 1606.04  114.09
   2   1   7 1531.65  114.59
   7  -2  -1 1538.35  110.69
   7   2   1 1497.65  110.59
  -1  -7   2 1466.45  110.49
  -1   7   4  272.57   33.90
   4  -1   7  278.77   32.20
   7  -4   1  276.67   24.40
  -4   1   7  235.58   30.40
   1  -7   4  270.87   22.70
   1   7   4  229.28   29.70
  -4  -1   7  208.78   29.70
   7  -4  -1  213.18   23.30
   1  -7  -4  205.78   23.80
  -1  -7   4  201.58   21.80
   4   1   7  205.38   31.30
   6  -1   7  438.06   52.39
  -1   7   6  487.55   54.39
   7  -6   1  475.05   48.50
  -6  -1   7  688.43   51.89
   1   7   6  675.13   54.89
   6   1   7  700.83   53.69
  -7   1   2 1165.08  108.49
  -1   2   7 1171.88  112.89
   7  -1   2 1251.17  109.29
   2  -7   1 1213.48  109.59
   1  -2   7 1263.47  113.19
   2  -7  -1 1535.15  109.79
  -1  -2   7 1534.95  113.59
   7  -1  -2 1539.85  109.49
   1   2   7 1578.14  113.59
   7   1   2 1501.75  109.79
  -3   2   7  522.05   51.99
  -7   3   2  551.94   46.80
   7  -3   2  518.55   47.50
   3  -2   7  606.64   53.09
   2  -7   3  529.35   47.10
   7  -3  -2  572.94   46.90
   2  -7  -3  568.74   47.20
  -3  -2   7  602.14   52.29
   3   2   7  577.94   52.49
  -2  -7   3  566.74   46.50
   7   3   2  589.34   48.40
  -5   2   7 1148.79   95.69
  -2   7   5 1117.89   97.19
   5  -2   7 1116.89   96.49
   2  -7   5 1190.88   92.59
   7  -5   2 1221.68   93.09
  -2  -7   5 1121.79   92.49
   2   7   5 1193.98   97.79
   2  -7  -5 1175.78   92.79
   7  -5  -2 1198.58   92.79
   5   2   7 1103.49   96.29
  -5  -2   7 1085.69   95.49
   7   5   2 1105.09   94.89
   3  -7   0  720.43   60.29
   7   0   3  751.32   60.79
   0  -3   7  737.83   64.59
  -7   0   3  713.83   59.39
   0   3   7  749.13   64.79
   7  -2   3  575.44   47.40
   2  -3   7  576.24   52.19
   3  -7   2  542.65   46.70
  -2   3   7  528.55   51.69
  -7   2   3  508.75   46.00
   7  -2  -3  520.05   45.80
   7   2   3  560.64   47.80
  -2  -3   7  637.84   52.29
   2   3   7  545.45   52.09
   3  -7  -2  580.24   46.60
  -4  -3   7  715.63   64.29
   3   7   4  772.02   66.69
   4   3   7  741.83   65.39
   3  -7  -4  740.13   60.29
   7   4   3  724.83   62.49
   7  -4  -3  708.93   59.89
   6   3   7  423.76   45.30
   7  -6  -3  439.56   39.20
  -6  -3   7  496.25   44.20
   6  -3  -7  453.35   38.00
   3   7   6  457.95   47.60
   3  -7  -6  449.46   39.40
   7   6   3  437.76   44.40
  -1   4   7  255.77   31.60
   4  -7   1  264.57   23.20
   1  -4   7  247.28   32.30
  -7   1   4  244.18   23.00
   7  -1   4  239.28   25.60
   7   1   4  173.78   25.50
  -1  -4   7  186.98   27.00
   1   4   7  234.58   29.10
  -7  -1   4  199.88   23.40
   4  -7  -1  210.88   23.50
  -3   4   7 1244.28  103.99
   3  -4   7 1278.47  104.39
   7  -3   4 1247.38  100.89
   3  -4   7 1198.98  100.09
  -7   3   4 1250.77  101.19
   4  -7   3 1283.97  100.59
   5  -4   7  612.64   59.89
   7  -5   4  702.13   56.09
  -7   5   4  642.74   57.39
   4  -7   5  679.83   55.39
  -4   7   5  678.33   60.69
  -5   4   7  632.14   59.49
   5  -4   7  675.33   55.29
   0   5   7  451.05   46.10
   7   0   5  447.16   41.20
   5  -7   0  441.36   38.60
   0  -5   7  420.76   44.50
  -7   0   5  434.96   39.40
  -7   2   5 1130.09   93.09
   7  -2   5 1155.78   94.19
   5  -7   2 1179.08   92.39
  -2   5   7 1075.79   96.39
   2  -5   7 1175.98   91.69
   2  -5   7 1098.59   96.49
   2   5   7 1157.98   97.09
   5  -7  -2 1184.28   92.29
   7   2   5 1103.09   94.19
   4  -5   7  632.94   60.09
  -5   7   4  645.64   59.09
   5  -7   4  688.43   55.09
   4  -5   7  664.33   54.49
  -7   4   5  635.34   56.69
   7  -4   5  673.13   55.29
  -4   5   7  629.84   59.49
   7  -6   5   57.29   12.20
   5  -7   6   43.00   11.60
  -7   6   5   28.60   15.60
  -6   5   7   26.80   15.60
  -5   7   6   35.70   18.60
   6  -5   7   52.59   13.00
   5   7   6   17.00   18.20
   7   6   5   12.90   17.50
   5  -7  -6   -2.70    9.80
   6   5   7    7.20   18.20
   6  -5  -7    7.50    9.00
   7  -6  -5    9.70    9.70
   6  -7   1  461.65   40.70
   1  -6   7  473.45   39.30
  -7   1   6  468.05   42.80
  -1   6   7  451.45   48.10
   7  -1   6  473.45   44.10
   7  -3   6  184.78   27.10
   3  -6   7  183.28   20.60
   6  -7   3  197.18   22.40
  -7   3   6  170.28   25.10
  -3   6   7  202.88   27.60
  -5   6   7   15.70   17.00
   7  -5   6   59.99   13.50
  -7   5   6   46.60   16.30
   5  -6   7   40.00   11.20
  -6   7   5   31.70   17.50
   6  -7   5   47.60   12.20
   7   5   6   21.70   17.60
   7  -5  -6    6.10    9.40
   5   6   7    1.50   19.90
   6  -7  -5   -0.40    9.90
   5  -6  -7    8.80   10.00
   6   7   5   -1.50   18.90
  -7   0   7  538.45   48.90
   0  -7   7  523.95   44.40
   0   7   7  521.15   53.59
   7  -7   0  545.55   46.50
   7   0   7  555.74   50.79
   7  -7   2 2610.54  190.78
  -7   2   7 2510.25  192.28
  -2   7   7 2455.05  194.28
   2  -7   7 2671.73  190.18
   7  -2   7 2515.75  192.98
   7  -7  -2 2253.87  190.38
  -7  -2   7 2229.08  191.88
   2   7   7 2102.09  193.58
   7   2   7 2169.08  192.68
  -7   4   7 2378.06  177.28
  -7   7   4 2406.76  177.38
  -4   7   7 2465.75  178.98
   7  -4   7 2362.56  175.28
   4  -7   7 2355.96  174.98
   7  -7   4 2394.06  175.38
   7  -4   7 2334.07  177.98
   4   7   7 2087.29  178.68
   7  -4  -7 1953.10  174.08
   4  -7  -7 2033.10  174.68
   7  -7  -4 1964.50  174.68
   7   4   7 1916.11  177.58
   7   7   4 1931.11  177.68
  -7   6   7 1224.28  112.29
  -7   7   6 1185.18  112.19
  -6   7   7 1203.38  112.89
   7  -6   7 1156.68  109.19
   6  -7   7 1180.98  109.19
   7  -7   6 1168.28  109.29
   7  -7  -6 1554.84  109.09
   6   7   7 1533.65  114.49
   7  -6  -7 1546.25  108.89
   6  -7  -7 1500.85  108.99
   7   6   7 1484.45  114.09
   7   7   6 1547.75  114.19
   0  -8   0 5615.84  443.36
   0   0   8 5614.94  445.86
   8   2   0  229.18   21.90
   0  -8   2  226.78   23.50
   2   0   8  276.77   33.20
   8  -2   0  224.48   24.00
   0  -8  -2  262.87   24.90
  -2   0   8  242.28   32.10
   4   0   8 3274.07  278.17
   8  -4   0 3606.64  275.57
  -4   0   8 3493.65  277.97
   0  -8   4 3531.85  275.27
  -6   0   8  345.57   38.40
   6   0   8  345.17   40.40
   8  -6   0  379.56   33.30
   0   8   6  335.27   43.20
   0  -8   6  366.36   31.60
   1  -8   1 1509.55  114.79
   1  -1   8 1504.75  118.79
  -1  -8  -1 1567.74  114.99
  -1   1   8 1492.65  118.59
   1  -8  -1 1415.06  114.79
   8   1   1 1325.37  113.79
   1   1   8 1409.06  118.89
   8  -1  -1 1370.16  114.59
  -1  -1   8 1368.56  118.39
  -1  -8   1 1387.76  114.59
  -8   3   1 4502.05  336.27
   8  -3   1 4690.53  337.07
  -3   1   8 4562.34  339.47
   1  -8   3 4565.54  336.77
   3  -1   8 4607.04  339.77
   8  -3  -1 4092.39  336.77
  -1  -8   3 3782.62  336.37
   3   1   8 3942.81  339.17
   1  -8  -3 4080.09  336.77
  -3  -1   8 4062.39  339.07
   8   3   1 3981.00  336.87
  -1   8   5  994.40   75.99
   1  -8   5  969.20   68.99
   8  -5   1  958.20   69.79
   5  -1   8  917.01   74.39
  -5   1   8  922.11   73.39
   1   8   5  742.23   75.09
  -1  -8   5  727.63   68.29
   5   1   8  721.03   73.79
   8  -5  -1  780.12   69.29
  -5  -1   8  739.53   72.79
   1  -8   7  227.68   24.60
  -1   8   7  247.88   37.60
   7  -1   8  253.77   31.60
  -7   1   8  224.08   31.10
   8  -7   1  253.67   27.20
  -7  -1   8  285.27   32.10
   7   1   8  263.17   34.00
   1   8   7  277.87   37.50
  -1  -8   7  269.17   23.80
   8  -7  -1  283.47   27.10
   0  -2   8  263.97   34.20
   8   0   2  225.18   22.40
   0   2   8  242.78   33.90
   2  -8   0  258.37   24.80
   8  -2  -2 2347.36  177.08
   2  -8  -2 2250.87  177.18
   8   2   2 2139.69  177.28
  -2  -2   8 2180.98  180.18
   2   2   8 2233.18  180.58
  -2  -8   2 2216.88  176.98
  -4  -2   8 1029.50   84.69
   8   4   2  982.70   81.89
   2  -8  -4  990.90   80.89
  -2  -8   4  968.70   79.99
   4   2   8 1009.20   85.59
   8  -4  -2  996.00   80.59
   2  -8   6  222.48   24.60
  -2   8   6  268.57   32.70
  -6   2   8  207.68   31.30
   8  -6   2  249.08   26.10
   6  -2   8  212.18   30.00
   8   6   2  244.88   31.00
  -6  -2   8  274.57   32.20
   8  -6  -2  277.57   25.60
  -2  -8   6  258.87   23.00
   2   8   6  263.37   36.40
   6   2   8  254.47   34.10
  -1   3   8 4478.95  341.37
   3  -8   1 4624.54  338.57
   8  -1   3 4621.34  338.67
   1  -3   8 4543.55  341.47
  -8   1   3 4405.56  337.87
  -1  -3   8 4048.09  340.97
   3  -8  -1 4170.28  338.47
   1   3   8 3857.61  340.97
   8   1   3 3951.60  338.67
   8  -1  -3 4095.29  338.07
   3  -3   8 1550.64  108.69
  -3   3   8 1495.95  107.99
  -8   3   3 1483.85  103.49
   8  -3   3 1534.15  104.09
   3  -8  -3 1143.79  103.49
   8  -3  -3 1103.99  103.09
   3   3   8 1089.99  107.49
  -3  -3   8 1140.49  107.09
   8   3   3 1091.39  104.39
   8  -5   3 2069.39  155.88
  -3   8   5 1948.51  159.08
  -5   3   8 2030.20  158.58
   5  -3   8 1983.70  158.98
   3  -8   5 2067.69  155.38
  -8   5   3 2004.70  156.28
   5   3   8 1861.51  158.78
   3   8   5 1856.61  159.38
   8   5   3 1792.62  156.98
   3  -8  -5 1967.60  155.38
  -5  -3   8 1860.81  158.08
   8  -5  -3 1914.11  155.18
  -3   8   7 1180.38  113.89
   8  -7   3 1268.97  110.09
   7  -3   8 1215.68  113.19
  -8   7   3 1314.07  111.59
  -7   3   8 1227.88  112.29
   3  -8   7 1299.27  109.39
  -7  -3   8 1482.75  112.99
   3   8   7 1557.54  115.59
   8   7   3 1402.36  112.99
   7  -3  -8 1466.85  108.59
   7   3   8 1457.15  113.89
   8  -7  -3 1468.75  109.69
   4  -8   0 3553.24  272.07
   0  -4   8 3463.45  275.07
  -8   0   4 3386.26  271.77
   8   0  -4 3268.27  271.97
   0   4   8 3423.76  274.97
   8   0   4 3514.25  272.67
   2  -4   8  611.94   50.69
  -8   2   4  608.14   51.39
  -2   4   8  591.14   57.69
   4  -8   2  634.34   52.09
   2  -4   8  581.24   58.09
   8  -2   4  648.84   52.79
   4  -8   4 2614.84  188.08
  -4   4   8 2620.84  191.38
  -4   8   4 2551.74  191.38
   8  -4   4 2543.35  188.28
   4  -4   8 2517.65  187.68
   4  -4   8 2500.55  191.48
  -8   4   4 2588.74  188.68
  -4  -4   8 2093.39  190.48
   4   4   8 2133.69  191.08
   4  -8  -4 2194.18  187.78
   4   8   4 2136.79  191.38
   8  -4  -4 2135.59  187.38
   8   4   4 2072.19  189.18
  -6   4   8  354.56   34.30
   6  -4   8  309.47   27.30
   6  -4   8  343.37   35.80
  -4   8   6  351.56   36.70
   4  -8   6  322.57   27.30
   6   4   8  255.57   33.00
   8   6   4  222.08   32.20
  -6  -4   8  209.88   33.20
   6  -4  -8  225.28   24.30
   4  -8  -6  241.08   26.40
   4   8   6  223.68   32.20
   8  -6  -4  225.08   25.90
   5  -8   1  991.30   69.99
  -8   1   5  925.21   69.99
   1  -5   8  963.50   68.49
   8  -1   5  966.00   71.39
   1  -5   8  900.21   75.49
  -1   5   8  926.31   75.29
   8   1   5  744.43   71.09
   5  -8  -1  798.32   69.59
  -8  -1   5  739.23   69.89
   1   5   8  710.33   73.79
  -1  -5   8  740.43   74.39
   8  -1  -5  745.43   68.19
   3  -5   8 2016.90  154.28
   8  -3   5 1979.10  156.18
  -8   3   5 1981.40  155.38
   3  -5   8 1932.81  158.58
   5  -8   3 2017.20  154.78
  -3   5   8 1958.60  158.18
  -3  -5   8 1850.01  157.98
   8   3   5 1772.62  156.18
   8  -3  -5 1934.51  153.98
   5  -8  -3 1972.70  154.58
   3   5   8 1878.61  158.28
  -5   5   8 1977.80  159.28
   5  -5   8 1944.11  155.78
   5  -5   8 1971.60  159.68
  -5   8   5 1945.11  159.28
  -8   5   5 1924.41  157.28
   5  -8   5 1988.40  156.08
   8  -5   5 1921.01  156.18
   8  -7   5 1019.80   83.59
  -5   8   7 1040.90   88.49
   7  -5   8  988.30   87.79
   5  -8   7 1036.50   83.39
  -7   5   8 1104.39   87.29
  -8   7   5 1040.40   86.19
   7  -5   8 1051.69   83.59
   5   8   7 1038.90   89.49
   5  -8  -7  980.50   82.89
   8  -7  -5  986.00   82.89
   7   5   8 1016.20   88.19
   8   7   5  986.40   87.29
   7  -5  -8  977.60   82.19
   6  -8   0  386.76   34.60
   0  -6   8  413.76   31.90
   8   0   6  337.17   37.80
  -8   0   6  337.27   35.40
   0   6   8  342.27   41.70
   6  -8   2  231.18   26.10
  -8   2   6  221.18   26.80
   8  -2   6  216.18   29.40
  -2   6   8  232.98   30.80
   2  -6   8  234.38   23.40
   6  -8  -2  262.67   25.60
   8  -2  -6  256.27   22.30
   8   2   6  269.17   30.50
   2   6   8  233.98   35.90
  -4   6   8  343.37   37.30
   4  -6   8  319.87   28.20
  -8   4   6  350.66   31.80
   6  -8   4  320.87   29.90
   8  -4   6  339.27   29.90
  -6   8   4  347.07   35.80
   8   4   6  214.58   34.10
   6   8   4  225.48   37.00
   4   6   8  234.78   33.60
   6  -8  -4  222.68   28.50
  -6   8   6  462.55   45.70
  -6   6   8  461.15   45.70
  -8   6   6  478.05   43.10
   6  -6   8  474.25   39.20
   8  -6   6  465.55   39.90
   6  -8   6  493.55   39.90
   6  -6  -8  417.76   37.90
   8   6   6  369.56   44.90
   6  -8  -6  384.06   38.50
   6   8   6  410.46   47.60
   8  -6  -6  417.36   38.10
   6   6   8  388.76   46.70
   7  -8   1  237.38   27.70
   1  -7   8  236.68   24.70
  -8   1   7  245.78   29.70
   8  -1   7  239.18   32.20
  -1   7   8  242.68   36.20
   8   1   7  290.17   33.00
  -1  -7   8  260.77   23.50
   7  -8  -1  315.17   27.50
  -8  -1   7  311.57   30.10
   1   7   8  280.67   37.80
  -8   3   7 1316.77  111.79
   7  -8   3 1232.68  110.19
   3  -7   8 1321.27  109.59
  -3   7   8 1263.67  114.59
   8  -3   7 1204.78  112.49
   8  -3  -7 1466.15  108.99
   8   3   7 1397.66  113.29
   7   8   3 1424.96  114.29
   7  -8  -3 1484.75  110.19
   3   7   8 1539.55  115.79
   7  -8   5 1062.79   84.19
   8  -5   7 1046.60   84.39
  -7   8   5 1050.09   87.59
  -8   5   7 1001.20   86.69
  -5   7   8 1070.59   89.19
   5  -7   8 1064.69   83.79
   8  -5  -7  957.10   82.79
   8   5   7  981.10   87.79
   5  -7  -8 1024.80   83.39
   7   8   5  999.50   88.69
   5   7   8 1011.80   89.79
   7  -8  -5 1033.80   83.69
  -8   7   7 1202.68  103.09
  -7   7   8 1190.68  104.09
  -7   8   7 1182.28  103.99
   7  -7   8 1256.07  100.09
   7  -8   7 1200.08  100.09
   8  -7   7 1196.38  100.09
   7  -8  -7 1262.27   99.39
   7  -7  -8 1251.57   99.19
   7   8   7 1272.27  105.29
   8  -7  -7 1288.57   99.29
   7   7   8 1206.68  104.99
   8   7   7 1206.48  104.69
  -8   0   8  453.15   41.60
   0  -8   8  418.66   35.80
   0   8   8  396.56   46.70
   8  -8   0  395.16   38.00
   8   0   8  425.36   43.80
   8  -2   8 1302.97  128.99
  -8   2   8 1367.26  128.19
   2  -8   8 1383.16  125.69
  -2   8   8 1350.46  130.59
   8  -8   2 1361.26  126.49
  -2  -8   8 1744.13  125.09
   8  -8  -2 1835.92  126.59
   2   8   8 1869.31  132.59
  -8  -2   8 1837.82  129.09
   8   2   8 1708.23  130.09
  -8   4   8  129.79   22.90
  -8   8   4  125.19   22.10
  -4   8   8  149.79   27.30
   4  -8   8  164.68   20.30
   8  -4   8  141.29   18.80
   8  -4   8  179.68   25.30
   8  -8   4  150.58   19.00
  -8   6   8  468.35   50.49
  -8   8   6  461.65   50.09
  -6   8   8  458.65   52.89
   8  -6   8  443.06   45.80
   6  -8   8  430.46   45.40
   8  -8   6  440.46   46.00
   8  -8  -6  612.54   45.20
   6   8   8  570.74   54.79
   8  -6  -8  584.14   44.30
   6  -8  -8  574.94   44.90
   8   6   8  541.35   52.89
   8   8   6  581.94   53.49
  -8   8   8  882.01   89.89
   8  -8   8  876.81   85.79
   8  -8  -8 1175.88   85.19
   8   8   8 1264.37   93.29
   0  -9   1 4628.74  369.16
   1   0   9 4809.32  372.16
   0  -9  -1 4550.24  369.16
  -1   0   9 4702.93  372.16
   3   0   9  189.78   27.30
   0  -9   3  177.68   20.70
   9   3   0  169.08   19.80
  -3   0   9  223.28   28.10
   9  -3   0  192.98   22.10
   0  -9   5  110.79   13.90
   9  -5   0  117.69   15.60
   0   9   5  147.39   25.80
   5   0   9   89.09   22.60
  -5   0   9  115.19   20.60
   0  -9   7  620.54   51.69
   0   9   7  662.63   61.59
   7   0   9  599.64   59.29
   9  -7   0  638.64   53.59
  -7   0   9  592.34   56.99
  -1  -9   0 4690.63  371.36
   1  -9   0 4724.43  371.46
   0  -1   9 4590.64  374.36
   0   1   9 4788.52  374.56
  -1  -9   2  882.31   71.79
   9   2   1  857.81   71.19
   1  -9  -2  859.61   72.29
   9  -2  -1  923.01   72.09
  -2  -1   9  895.71   77.49
   2   1   9  874.31   77.79
   9  -4   1   73.19   14.00
   1  -9   4  106.19   13.60
   4  -1   9   76.59   21.80
  -4   1   9   86.69   21.60
  -9   4   1   86.29   11.50
   4   1   9   96.09   22.30
   9   4   1   89.39   13.70
  -4  -1   9   88.79   21.10
  -1  -9   4   74.29   11.90
   1  -9  -4   66.99   13.90
   9  -4  -1   75.79   13.20
   9  -6   1 1349.27  117.49
  -1   9   6 1274.37  121.89
   6  -1   9 1250.27  121.19
  -6   1   9 1321.87  120.39
   1  -9   6 1300.87  116.69
  -1  -9   6 1583.84  116.49
   9  -6  -1 1621.14  117.49
   1   9   6 1598.64  122.99
  -6  -1   9 1671.63  121.09
   6   1   9 1611.44  121.79
  -8   1   9  845.12   75.19
   8  -1   9  739.63   76.29
  -1   9   8  803.92   78.99
   1  -9   8  835.42   70.69
   9  -8   1  847.42   72.29
  -1  -9   8  895.71   70.29
   1   9   8  970.50   79.69
   8   1   9  852.01   76.69
  -8  -1   9  911.01   75.49
   9  -8  -1  953.00   72.19
   2  -9  -1  879.61   71.69
   9   1   2  841.62   70.69
   1   2   9  870.71   77.19
  -1  -2   9  871.61   77.29
   9  -1  -2  910.71   71.29
   3  -2   9 1321.27  106.09
  -9   3   2 1314.87   99.99
   2  -9   3 1424.36  101.49
   9  -3   2 1433.46  101.89
  -3   2   9 1354.16  106.09
  -3  -2   9 1182.48  105.59
   9   3   2 1151.18  101.59
   2  -9  -3 1169.78  101.39
   3   2   9 1134.89  105.89
   9  -3  -2 1190.68  101.09
  -2  -9   3 1150.58  100.89
  -2   9   5  413.06   40.00
   9   5   2  280.37   31.80
  -2  -9   5  290.07   27.30
   9  -5  -2  301.37   28.80
   2  -9  -5  297.17   29.70
   2   9   5  294.97   39.50
  -5  -2   9  281.97   36.50
   5   2   9  287.97   37.70
   2  -9   7   56.99   12.40
  -2   9   7   51.09   22.30
   9  -7   2   46.40   14.90
   7  -2   9   48.80   22.40
  -7   2   9   53.99   19.30
   9   7   2   84.69   19.40
   9  -7  -2  102.29   15.40
   2   9   7   57.29   22.60
   7   2   9   82.29   22.70
  -7  -2   9   96.49   20.40
  -2  -9   7   76.69   10.70
   3  -9   0  189.08   21.40
   9   0   3  172.18   19.90
   0   3   9  187.28   27.90
   9   0  -3  175.18   19.40
   0  -3   9  192.38   27.70
   2  -3   9 1427.06  107.59
  -2   3   9 1324.07  106.69
   2  -3   9 1368.06  101.39
   3  -9   2 1389.66  102.19
  -9   2   3 1342.37  100.79
   9  -2  -3 1207.58  101.49
  -2  -3   9 1149.58  106.49
   3  -9  -2 1167.28  102.09
   2   3   9 1170.18  106.29
   9   2   3 1113.19  102.19
   9  -4   3  135.79   20.10
   3  -9   4  162.28   19.70
  -4   3   9  148.29   25.10
  -9   4   3  149.59   18.00
   4  -3   9  172.78   26.30
   4   3   9   67.49   24.00
   9  -6   3 1000.70   78.89
  -9   6   3  960.00   79.59
   3  -9   6  955.30   78.29
   6  -3   9  968.10   83.99
  -6   3   9  917.11   82.59
  -3   9   6  935.21   84.49
  -3   9   8  816.22   82.79
   3  -9   8  829.72   76.19
   9  -8   3  874.71   77.29
  -8   3   9  844.12   79.99
  -9   8   3  841.22   79.09
   8  -3   9  819.92   81.59
   8   3   9  989.80   82.29
   9   8   3 1047.30   81.69
   9  -8  -3 1071.69   76.99
   8  -3  -9  984.00   74.99
  -8  -3   9 1008.90   81.09
   3   9   8 1062.89   84.39
   1  -4   9   81.39   22.30
   4  -9   1   89.29   13.90
   1  -4   9   69.39   10.60
  -9   1   4   96.89   11.50
   9  -1   4   82.59   14.10
  -1   4   9  116.59   24.00
   9   1  -4   77.39   10.90
   1   4   9   63.99   21.40
  -1  -4   9   68.59   21.80
   9  -1  -4   79.59   11.20
   4  -9  -1   96.89   14.60
   9   1   4   88.99   14.60
   3  -4   9  134.99   24.90
   9  -3   4  137.09   17.50
  -9   3   4  150.68   17.60
   3  -4   9  134.89   17.10
  -3   4   9  142.79   24.20
   4  -9   3  141.99   19.80
   3   4   9   57.59   24.30
  -5   4   9  564.54   50.89
   5  -4   9  497.75   43.50
   4  -9   5  551.14   44.10
  -4   9   5  592.24   51.69
  -9   5   4  535.55   44.70
   9  -5   4  520.65   44.80
   5  -4   9  563.64   51.89
   5   4   9  448.96   51.29
   4  -9  -5  432.56   43.70
  -5  -4   9  455.75   49.90
   9   5   4  466.95   46.90
   4   9   5  496.35   52.39
   9  -5  -4  455.05   43.00
  -9   7   4  226.78   29.90
   7  -4   9  225.48   26.60
  -4   9   7  232.78   31.90
   7  -4   9  229.08   35.00
   9  -7   4  238.08   27.80
  -7   4   9  233.78   33.50
   4  -9   7  239.68   26.20
   7   4   9  348.57   36.70
   5  -9   0  113.39   16.00
  -9   0   5  127.29   15.10
   0   5   9  144.09   25.20
   9   0   5  123.69   17.80
   0  -5   9   98.29   23.10
   9   0  -5  106.69   14.30
   5  -9   2  491.95   42.30
   2  -5   9  468.05   49.70
  -2   5   9  470.35   49.70
  -9   2   5  456.55   41.60
   9  -2   5  479.85   43.60
   2  -5   9  486.15   40.30
   4  -5   9  493.95   42.10
   9  -4   5  518.65   43.70
   4  -5   9  539.75   50.69
   5  -9   4  529.85   43.20
  -4   5   9  574.64   50.99
  -9   4   5  504.95   43.50
  -4  -5   9  446.76   49.90
   5  -9  -4  466.55   42.60
   4   5   9  485.65   50.89
   9   4   5  449.76   45.90
   9  -4  -5  437.26   41.40
   5   9   4  411.26   50.49
   6  -5   9  195.58   22.70
   9  -6   5  207.38   23.80
   6  -5   9  191.78   28.30
  -6   5   9  222.78   32.20
  -5   9   6  237.58   29.20
  -9   6   5  205.68   26.10
   5  -9   6  173.08   23.00
   6   5   9  185.78   28.80
   6  -5  -9  190.38   20.00
   9  -6  -5  137.99   21.00
   5  -9  -6  151.28   22.20
   5   9   6  170.08   27.70
   9   6   5  181.18   25.40
  -5   9   8  630.54   58.29
  -9   8   5  617.24   53.99
   9  -8   5  635.44   51.09
   8  -5   9  565.04   50.49
   5  -9   8  623.14   49.99
  -8   5   9  612.24   55.19
   8  -5   9  598.34   56.89
   5  -9  -8  549.65   49.60
   8   5   9  491.95   56.69
   5   9   8  547.95   58.99
   9   8   5  522.65   55.99
   9  -8  -5  526.25   49.40
   8  -5  -9  543.75   48.00
   1  -6   9 1312.77  114.19
   6  -9   1 1294.27  115.29
  -1   6   9 1207.18  119.29
   1  -6   9 1332.57  119.79
  -9   1   6 1290.27  115.69
   1   6   9 1539.95  120.69
   9   1   6 1503.35  117.29
   9  -1  -6 1589.44  114.19
   6  -9  -1 1596.74  115.49
  -9  -1   6 1624.04  116.29
   6  -9   3  966.20   77.49
   9  -3   6  899.31   79.29
  -3   6   9  911.61   82.59
   3  -6   9  908.71   83.09
   3  -6   9  994.80   76.59
  -9   3   6  936.61   78.19
  -5   6   9  203.58   28.20
   6  -9   5  199.48   23.50
   9  -5   6  173.78   24.30
  -6   9   5  251.47   29.80
   5  -6   9  180.18   21.80
  -9   5   6  180.78   25.80
   9   5   6  159.68   24.70
   6  -9  -5  173.88   22.70
   5   6   9  160.88   27.50
   6   9   5  213.38   30.80
   9  -5  -6  168.28   20.70
  -9   7   6  594.84   60.99
   6  -9   7  604.44   57.89
  -6   9   7  597.94   63.79
   7  -6   9  608.94   57.99
   9  -7   6  596.34   58.29
  -7   6   9  629.34   63.69
   7   6   9  774.92   65.49
   6   9   7  781.12   66.39
   9   7   6  741.73   63.49
   7  -6  -9  793.32   56.79
   9  -7  -6  784.52   57.49
   7  -9   0  613.94   53.49
  -9   0   7  649.24   54.89
   0  -7   9  623.64   51.29
   0   7   9  628.04   61.29
   9   0   7  612.24   56.89
   2  -7   9   58.89   11.60
  -9   2   7   60.09   15.20
   7  -9   2   58.69   15.40
   9  -2   7   34.20   17.40
  -2   7   9   52.29   21.80
   7  -9  -2   73.89   14.20
   9   2   7   81.69   19.00
   2   7   9   95.09   25.00
   9  -2  -7   65.19   10.00
   9  -4   7  228.08   26.70
  -4   7   9  211.68   30.20
   9  -4   7  230.98   31.20
  -7   9   4  252.67   30.20
   4  -7   9  240.88   24.40
   7  -9   4  224.78   26.70
  -9   4   7  214.28   28.30
   6  -7   9  611.84   59.29
  -7   9   6  611.74   64.99
  -6   7   9  604.64   65.49
  -9   6   7  624.64   62.79
   7  -9   6  615.94   59.89
   9  -6   7  624.64   60.29
   7   9   6  826.02   67.89
   7  -9  -6  824.52   59.89
   9  -6  -7  777.42   58.89
   9   6   7  796.42   65.39
   6   7   9  754.02   67.59
   6  -7  -9  802.82   58.99
   9  -8   7   88.19   19.20
   8  -7   9  107.09   19.00
  -7   9   8   73.79   23.90
  -8   7   9   89.49   24.50
  -9   8   7  119.79   23.30
   7  -9   8  104.79   18.80
   9   8   7  178.08   26.20
   8   7   9  145.19   26.20
   7  -9  -8  175.38   20.80
   9  -8  -7  157.48   19.80
  -1   8   9  771.92   76.59
   1  -8   9  789.92   68.69
   9  -1   8  770.72   73.59
  -9   1   8  817.22   72.19
   8  -9   1  785.82   70.39
   9   1   8  875.71   74.29
   1   8   9  916.81   78.19
  -9  -1   8  899.21   72.39
   8  -9  -1  921.81   70.49
  -1  -8   9  888.61   68.19
  -9   3   8  831.62   78.09
   8  -9   3  856.11   76.49
   9  -3   8  828.22   79.59
  -3   8   9  836.82   82.89
   3  -8   9  830.82   75.29
   3   8   9 1067.79   84.39
   8  -9  -3 1034.10   76.29
   9   3   8 1038.70   80.59
   8   9   3  973.20   81.79
   9  -3  -8  961.70   74.39
  -9   5   8  597.54   53.69
  -8   9   5  597.74   54.99
  -5   8   9  599.44   57.59
   5  -8   9  631.34   49.40
   8  -9   5  610.34   50.49
   9  -5   8  603.24   50.79
   5   8   9  530.95   58.79
   8   9   5  521.05   56.79
   9  -5  -8  519.15   47.70
   8  -9  -5  516.35   49.20
   9   5   8  509.55   55.39
  -8   9   7   89.69   22.30
   9  -7   8   90.59   16.90
   8  -9   7  102.89   18.40
  -9   7   8   85.89   21.50
   7  -8   9   85.99   16.40
  -7   8   9   70.39   22.50
   8  -9  -7  160.78   20.20
  -9   0   9  979.90   82.89
   0  -9   9  952.30   78.39
   0   9   9  999.60   87.79
   9  -9   0  979.70   80.29
   9   0   9  944.31   84.49
   2  -9   9   68.19   12.90
  -9   2   9   30.50   18.20
   9  -2   9   31.30   19.60
  -2   9   9   81.39   27.30
   9  -9   2   61.69   15.50
  -2  -9   9  108.79   11.30
   9  -9  -2  121.59   16.80
  -9  -2   9  100.29   19.70
   9  -2  -9   93.19   12.40
   2   9   9   76.09   24.90
   9   2   9   92.99   22.10
  -9   4   9  638.84   56.39
  -9   9   4  629.74   56.29
  -4   9   9  633.74   61.29
   4  -9   9  566.94   51.29
   9  -4   9  568.74   52.49
   9  -4   9  578.74   57.09
   9  -9   4  586.54   52.79
  -9   6   9 2329.47  197.08
  -9   9   6 2309.17  197.08
  -6   9   9 2270.47  198.58
   9  -6   9 2294.77  194.28
   6  -9   9 2273.57  193.88
   9  -9   6 2184.28  194.18
   9  -9  -6 2420.36  193.88
   6   9   9 2715.43  200.38
   9  -6  -9 2517.55  193.28
   6  -9  -9 2537.95  193.78
   9   6   9 2667.33  198.88
   9   9   6 2707.13  198.98
  -9   8   9  812.62   83.09
  -9   9   8  826.12   82.69
  -8   9   9  861.01   83.99
   9  -8   9  830.22   78.09
   8  -9   9  817.62   77.89
   9  -9   8  839.92   78.29
   9  -9  -8 1022.40   77.39
   8   9   9 1063.39   86.49
   9  -8  -9 1006.90   77.09
   8  -9  -9  986.40   77.39
   9   8   9 1089.99   86.19
   9   9   8 1104.99   86.69
   0 -10   0 7699.03  603.94
   0   0  10 7603.14  606.94
  10   2   0  179.48   18.70
  10  -2   0  230.68   24.00
   2   0  10  249.97   30.90
  -2   0  10  229.88   30.50
   0 -10  -2  221.58   24.40
   0 -10   2  251.97   23.50
  10  -4   0 3230.08  249.28
   4   0  10 3103.19  252.97
   0 -10   4 3181.48  248.88
  10   4   0 3001.60  249.18
  -4   0  10 3183.28  252.57
   0  10   6  123.59   26.60
  -6   0  10  107.49   22.90
   6   0  10  124.19   25.00
   0 -10   6  131.59   15.40
  10  -6   0  121.39   17.90
  -8   0  10   60.09   20.60
  10  -8   0   54.59   14.40
   0 -10   8   65.39   11.60
   0  10   8   57.09   24.10
   8   0  10   82.19   23.00
  10  -1  -1 1289.67  107.49
   1 -10  -1 1372.56  107.79
   1   1  10 1338.47  112.79
  -1  -1  10 1315.97  112.69
  -1 -10   1 1359.06  107.59
  10  -3  -1  425.16   38.30
  -1 -10   3  434.96   37.70
   1 -10  -3  442.86   39.00
   3   1  10  445.66   46.80
  -3  -1  10  386.76   46.00
  10   3   1  427.46   37.10
  -5   1  10   -1.30   18.80
  -1  10   5   39.10   22.00
  10  -5   1   29.20   13.90
 -10   5   1   33.80   10.40
   5  -1  10   40.20   23.40
   1 -10   5   30.80   12.00
  10  -5  -1   82.09   13.70
   1  10   5   71.89   23.40
   5   1  10   88.09   23.80
  -5  -1  10   95.09   21.30
  -1  10   7   17.60   23.50
  10  -7   1   54.39   14.50
  -7   1  10   49.90   20.30
   7  -1  10   35.30   22.00
   1 -10   7   53.19   11.30
   1  10   7  127.29   25.60
  -9   1  10 1119.19   93.49
   9  -1  10 1086.59   94.99
   1 -10   9 1085.89   88.79
  10  -9   1 1029.30   90.19
  -1  10   9 1061.59   97.79
  10  -9  -1 1085.59   89.89
  -1 -10   9 1106.79   88.29
  -9  -1  10 1124.09   93.59
   1  10   9 1147.99   97.89
   9   1  10 1126.59   95.39
   2 -10   0  220.08   24.90
   0  -2  10  215.78   31.40
   0   2  10  281.47   33.50
  10  -2   2  170.38   21.10
  -2   2  10  154.48   25.60
   2  -2  10  141.39   25.40
   2 -10   2  161.38   17.70
  10   2   2  126.39   15.50
   2 -10  -2  140.19   17.30
  10  -2  -2  134.59   18.90
   2   2  10  108.99   25.20
  -2  -2  10  124.99   25.20
  -2 -10   2  137.99   16.90
   2 -10   4 1489.35  140.39
  -4   2  10 1555.24  144.59
   4  -2  10 1523.75  144.89
  10  -4   2 1545.75  140.89
  -2 -10   4 1919.81  140.39
  10  -4  -2 1929.31  140.79
   2 -10  -4 1923.91  140.89
  10   4   2 1811.82  141.29
  -4  -2  10 1941.01  145.19
   4   2  10 1926.61  145.59
   6  -2  10  259.37   37.10
   2 -10   6  251.97   25.80
  10  -6   2  246.28   27.80
 -10   6   2  220.18   26.50
  -2  10   6  225.18   33.10
  -6   2  10  253.47   31.50
  -6  -2  10  261.17   34.80
  10   6   2  225.68   30.00
   6   2  10  275.77   37.30
   2  10   6  246.38   33.60
  10  -6  -2  267.97   26.80
  -2 -10   6  246.38   24.20
  10  -8   2 1211.88  109.59
   8  -2  10 1245.28  113.89
  -8   2  10 1224.08  112.79
   2 -10   8 1231.78  108.59
 -10   8   2 1165.88  110.59
  -2  10   8 1217.58  115.19
  -2 -10   8 1469.45  107.99
  -8  -2  10 1524.25  113.49
   2  10   8 1582.44  116.69
  10   8   2 1450.45  112.89
   8   2  10 1447.96  114.79
  10  -8  -2 1453.65  109.39
   3 -10  -1  434.36   39.40
  10   1   3  431.16   38.40
  10  -1  -3  441.96   38.40
  -1  -3  10  462.25   48.40
   1   3  10  447.86   48.00
  10  -3   3  783.22   60.39
  -3   3  10  788.92   66.39
   3  -3  10  760.62   67.19
 -10   3   3  721.43   57.29
   3 -10   3  788.12   59.79
   3 -10  -3  653.83   59.39
  10  -3  -3  688.03   58.89
   3   3  10  658.63   66.29
  10   3   3  612.44   59.69
  -3  -3  10  668.03   65.99
   3 -10   5   97.29   15.10
 -10   5   3   98.89   14.00
  -3  10   5   74.19   23.20
  10  -5   3   76.79   15.60
   5  -3  10   95.89   24.80
  -5   3  10   75.29   21.90
  -5  -3  10   78.79   22.90
   5   3  10   76.29   22.90
   3 -10  -5   93.89   14.90
   3  10   5   91.69   25.60
  10   5   3   87.79   17.00
  10  -5  -3   75.79   13.70
   7  -3  10  151.28   27.10
   3 -10   7  162.28   20.80
  10  -7   3  168.98   20.30
 -10   7   3  164.58   20.60
  -7   3  10  155.28   26.80
  -3  10   7  158.68   29.10
  10   7   3  139.89   22.90
   3  10   7  114.89   28.20
  10  -7  -3  143.79   18.30
   7   3  10  113.49   25.30
  -7  -3  10  122.99   24.70
 -10   9   3  864.01   71.09
  10  -9   3  843.82   68.39
   3 -10   9  879.11   67.19
  -9   3  10  847.22   72.49
   9  -3  10  848.72   73.89
  -3  10   9  866.51   76.69
  -9  -3  10  781.62   72.19
  10  -9  -3  719.63   67.59
   9  -3 -10  771.32   65.29
   9   3  10  754.22   73.89
  10   9   3  741.43   73.09
   3  10   9  756.02   75.99
   4 -10   0 3266.77  251.47
   0   4  10 3068.59  254.97
  10   0  -4 3183.78  250.77
  10   0   4 3149.28  251.47
   0  -4  10 3156.08  255.17
 -10   2   4 1433.86  128.79
   2  -4  10 1538.35  134.59
   2  -4  10 1451.45  128.99
   4 -10   2 1501.95  129.99
  -2   4  10 1456.25  134.29
  10   2   4 1834.42  130.89
   2   4  10 1937.71  135.49
  -2  -4  10 1911.11  135.29
  10  -4   4  786.82   71.09
 -10   4   4  801.32   69.99
   4 -10   4  859.61   70.69
   4  -4  10  821.42   77.49
   4  -4  10  801.12   69.89
  -4   4  10  805.82   76.49
  10  -4  -4  924.81   70.19
   4 -10  -4  923.61   70.69
  -4  -4  10  881.61   76.19
  10   4   4  875.61   72.49
   4   4  10  927.01   77.59
   6  -4  10  300.37   29.60
  -6   4  10  297.17   39.00
 -10   6   4  269.17   31.00
   4 -10   6  315.37   29.80
  10  -6   4  294.37   30.20
   6  -4  10  273.87   39.80
  -4  10   6  294.07   40.80
   4 -10   8  879.91   72.79
 -10   8   4  868.41   75.59
  -8   4  10  892.51   78.19
   8  -4  10  897.21   73.49
   8  -4  10  845.22   78.89
  -4  10   8  882.01   80.89
  10  -8   4  879.21   73.69
  10  -1   5   32.20   13.30
  10   1  -5   32.60    9.00
  -1   5  10   40.90   23.20
   5 -10   1   18.60   12.60
 -10   1   5   36.60   10.10
   1  -5  10   40.50    9.10
   1  -5  10   17.20   20.80
   1   5  10   84.69   22.80
  -1  -5  10   91.89   22.80
  10   1   5   88.99   14.80
   3  -5  10   89.19   23.70
   5 -10   3   89.49   15.90
  10  -3   5   71.79   15.80
 -10   3   5   90.99   13.60
  -3   5  10   95.89   25.00
   3  -5  10   77.79   12.20
  10  -3  -5   73.49   12.40
   3   5  10   92.89   25.80
  10   3   5   82.09   17.20
  -3  -5  10   73.69   22.80
   5 -10  -3  115.39   16.20
   5  -5  10  779.52   71.99
 -10   5   5  752.62   65.99
  -5   5  10  781.52   71.59
   5  -5  10  781.62   64.79
   5 -10   5  768.92   65.39
  10  -5   5  809.22   66.29
  -5  10   5  803.12   71.99
  10  -7   5  753.12   68.89
  -7   5  10  761.62   74.19
   7  -5  10  793.82   68.39
  -5  10   7  702.73   74.69
   7  -5  10  757.42   74.99
   5 -10   7  749.73   68.19
 -10   7   5  764.02   70.39
   5  10   7  960.50   77.79
   5 -10  -7  881.81   68.39
   7   5  10  906.71   75.69
  10  -7  -5  935.91   68.19
  10   7   5  863.61   72.99
  -9   5  10  133.39   24.10
   9  -5  10  122.19   18.20
 -10   9   5  153.38   23.50
   9  -5  10  140.79   26.70
  10  -9   5  134.49   19.70
  -5  10   9  126.49   28.70
   5 -10   9  153.68   17.70
  10  -9  -5   76.49   17.10
   9   5  10   75.49   25.30
  10   9   5   62.09   23.20
   5  10   9   59.49   26.80
   9  -5 -10   96.79   14.20
   0  -6  10  132.39   26.50
   0   6  10  138.09   27.10
  10   0   6  103.09   18.70
 -10   0   6  137.29   16.60
   0  -6  10   94.79   14.20
  10   0  -6  122.79   15.20
   6 -10   0  160.08   18.70
 -10   2   6  218.48   25.90
   2  -6  10  216.58   32.60
  10  -2   6  207.08   28.60
   6 -10   2  235.58   27.30
   2  -6  10  253.67   24.10
  -2   6  10  266.47   34.30
  10   2  -6  250.77   22.50
  10   2   6  220.58   30.00
   6 -10  -2  265.47   27.20
  -2  -6  10  294.27   34.90
   2   6  10  264.97   38.80
  10  -2  -6  258.47   23.60
  -6  10   4  307.07   39.20
   6 -10   4  314.57   31.10
 -10   4   6  267.67   30.80
  -4   6  10  316.97   40.60
   4  -6  10  288.77   28.50
   4  -6  10  287.57   42.00
  10  -4   6  317.47   31.50
  -6   6  10  139.09   26.20
   6  -6  10  160.48   29.40
  10  -6   6  141.99   19.40
  -6  10   6  132.39   25.20
   6  -6  10  163.88   20.90
 -10   6   6  160.28   21.20
   6 -10   6  153.98   18.80
   6 -10  -6  133.29   19.10
  10  -6  -6  143.79   17.70
   6  10   6  144.89   30.00
  10   6   6  108.39   23.00
   6   6  10  117.09   26.30
  -6  10   8  150.28   29.10
  10  -8   6  143.29   21.40
  -8   6  10  170.38   28.10
 -10   8   6  140.99   23.90
   6 -10   8  187.28   21.40
   8  -6  10  173.48   24.00
   7 -10  -1  160.58   19.40
  -1  -7  10  110.29   14.50
   1   7  10  134.39   26.40
  10  -1  -7  147.39   15.50
  10   1   7  128.29   21.50
   3  -7  10  153.58   18.80
   7 -10   3  174.28   21.80
  10  -3   7  163.38   22.50
  -3   7  10  168.08   29.20
 -10   3   7  153.98   22.50
   3   7  10  107.09   26.10
  10   3   7  141.09   22.60
  10  -3  -7  104.29   16.60
   7 -10  -3  113.19   17.70
   5  -7  10  778.52   68.29
  -7  10   5  759.02   74.19
 -10   5   7  748.63   70.69
   7 -10   5  771.72   69.19
  10  -5   7  759.72   69.39
  -5   7  10  686.63   75.49
  10  -5  -7  917.21   67.89
  10   5   7  883.61   73.19
   5   7  10  956.10   77.69
   7  10   5  935.71   76.89
   7 -10  -5  892.21   68.99
  -7  10   7 2033.80  188.28
  10  -7   7 2150.48  184.78
 -10   7   7 2102.99  186.48
  -7   7  10 2039.00  188.58
   7  -7  10 2096.69  184.28
   7 -10   7 2050.69  184.38
   7 -10  -7 2450.15  184.48
   7   7  10 2577.34  190.38
   7  -7 -10 2626.04  183.98
  10   7   7 2546.45  188.78
   7  10   7 2547.25  190.28
  10  -7  -7 2496.55  184.08
  10  -9  -7  180.88   24.80
   9   7  10  220.88   34.00
   7 -10  -9  170.78   25.40
   7  10   9  213.58   35.50
  10   9   7  220.28   33.20
   9  -7 -10  175.58   22.80
   0  -8  10   66.49   10.40
   8 -10   0   68.89   15.70
   0   8  10   39.50   22.00
 -10   0   8   60.99   16.60
  10   0   8   72.49   19.90
   2  -8  10 1205.28  105.39
  -2   8  10 1169.18  112.09
 -10   2   8 1196.48  107.79
  10  -2   8 1145.59  109.09
   8 -10   2 1177.78  106.59
   8 -10  -2 1508.15  106.79
  10   2   8 1416.66  110.09
   2   8  10 1489.05  113.09
  -2  -8  10 1345.67  104.69
  10  -2  -8 1456.45  104.89
  10  -4   8  893.41   75.79
  -4   8  10  858.91   78.99
  10  -4   8  858.01   72.59
   8 -10   4  834.92   72.19
  -8  10   4  883.51   76.59
   4  -8  10  838.62   70.99
 -10   4   8  856.31   73.99
  -6   8  10  191.38   30.80
 -10   6   8  176.08   24.10
  10  -6   8  135.99   19.70
  -8  10   6  155.08   26.50
   6  -8  10  143.69   19.10
   8 -10   6  114.89   19.10
   6   8  10   62.39   27.80
  -8   8  10  435.26   49.70
 -10   8   8  450.15   46.80
  -8  10   8  467.05   50.09
  10  -8   8  467.15   41.80
   8 -10   8  485.15   41.30
   8  -8  10  456.05   41.00
   8   8  10  389.96   51.99
   8 -10  -8  372.46   39.70
   8  10   8  380.16   51.99
   8  -8 -10  395.26   39.20
  10   8   8  365.86   49.20
  10  -8  -8  422.96   39.40
 -10   1   9 1072.69   91.79
   9 -10   1 1042.10   89.69
  10  -1   9 1088.29   93.49
   1  -9  10 1050.99   88.09
  -1   9  10 1022.10   96.29
  10   1   9 1120.29   93.89
 -10  -1   9 1108.29   91.69
   9 -10  -1 1102.59   89.59
  -1  -9  10 1095.29   87.59
   1   9  10 1229.18   98.29
   3  -9  10  877.31   67.59
 -10   3   9  892.21   71.69
   9 -10   3  857.81   69.29
  10  -3   9  857.71   73.29
  -3   9  10  829.52   77.59
  -9  10   3  850.61   72.89
   9  10   3  787.12   75.19
   9 -10  -3  741.33   68.39
   3   9  10  790.82   77.89
  10   3   9  748.13   73.39
  10  -3  -9  743.43   66.09
  10  -5   9  110.99   18.70
  -5   9  10  111.79   26.60
  -9  10   5  153.58   25.60
   9 -10   5  143.09   19.80
   5  -9  10  156.68   18.30
 -10   5   9  130.59   22.70
   9 -10  -5   86.89   17.90
  10  -5  -9  101.29   14.90
  10   5   9   54.29   24.50
   5   9  10   58.99   25.60
   9  10   5  112.29   28.00
  -9  10   7   74.09   23.80
  10  -7   9   60.09   17.40
   9 -10   7   71.49   17.70
  -7   9  10   62.59   25.60
   7  -9  10   93.29   17.10
 -10   7   9  100.99   22.40
   7   9  10  175.48   28.80
   9  10   7  160.18   27.60
 -10   9   9  243.18   36.40
  -9   9  10  243.68   36.90
  -9  10   9  276.07   38.40
   9  -9  10  208.38   32.50
   9 -10   9  213.18   32.70
  10  -9   9  222.58   33.00
   9 -10  -9  329.37   31.10
   9  -9 -10  315.97   30.30
   9  10   9  349.07   47.20
  10  -9  -9  332.57   30.90
   9   9  10  341.87   47.00
  10   9   9  339.97   45.70
 -10   0  10   54.99   19.60
   0 -10  10   57.39   11.40
   0  10  10   56.99   26.50
  10 -10   0   42.60   15.30
  10   0  10   42.70   21.60
   2 -10  10  889.81   73.79
 -10   2  10  884.91   78.19
  10  -2  10  862.21   80.39
  -2  10  10  892.31   83.79
  10 -10   2  861.31   75.19
  -2 -10  10  892.91   72.59
  10 -10  -2  945.31   75.39
 -10  -2  10  912.71   78.69
  10  -2 -10  884.71   72.19
   2  10  10  951.20   85.09
  10   2  10  898.21   80.69
 -10   4  10 1492.75  127.39
 -10  10   4 1527.15  127.69
  -4  10  10 1508.15  131.29
   4 -10  10 1520.45  123.79
  10  -4  10 1597.84  124.99
  10  -4  10 1516.75  128.69
  10 -10   4 1495.95  124.59
  10  -4 -10 1520.65  122.59
   4  10  10 1648.64  132.69
  10 -10  -4 1433.06  124.09
  10   4  10 1574.94  129.49
  10  10   4 1606.44  129.59
 -10   6  10 1297.67  110.49
 -10  10   6 1297.67  110.49
  -6  10  10 1244.18  113.19
   6 -10  10 1327.77  106.19
  10  -6  10 1305.47  106.99
  10 -10   6 1252.57  106.79
  10 -10  -6 1203.68  105.99
  10  -6 -10 1301.97  104.99
   6  10  10 1356.16  114.99
  10   6  10 1355.36  112.69
  10  10   6 1388.06  112.69
  10 -10  -8  428.86   41.60
   8  10  10  415.46   54.59
  10  -8 -10  434.66   40.60
   8 -10 -10  426.66   41.60
  10   8  10  499.55   54.79
  10  10   8  483.85   54.09
 -10  10  10  608.74   67.29
  10 -10  10  530.45   59.89
  10 -10 -10  769.92   59.29
  10  10  10  852.21   72.49
  11  -1   0  103.89   16.30
   0 -11   1   95.99   15.10
   1   0  11  127.69   26.70
  -1   0  11  100.39   25.10
   0 -11  -1   79.19   15.40
  11  -3   0  513.15   43.70
  -3   0  11  518.25   51.79
   0 -11   3  492.95   42.80
   3   0  11  483.45   52.89
  11   3   0  465.55   40.80
  -5   0  11   14.60   20.20
  11  -5   0   24.10   12.70
  11   5   0   23.10   11.40
   0  11   5   28.00   23.60
   5   0  11   16.30   21.90
   0 -11   5   18.20   10.80
   0 -11   7 1197.98   97.59
  -7   0  11 1180.18  102.99
   0  11   7 1224.58  106.39
   7   0  11 1276.27  104.49
  11  -7   0 1171.48   98.59
   9   0  11  759.62   70.29
   0  11   9  714.43   72.39
  11  -9   0  739.23   63.29
   0 -11   9  720.63   61.19
  -9   0  11  748.03   67.59
   0  -1  11  103.09   26.80
   1 -11   0  104.79   16.40
  -1 -11   0   93.69   15.60
   0   1  11   99.09   26.20
  11  -2   1 3739.33  312.97
  -2   1  11 3601.24  316.27
   2  -1  11 3645.44  316.37
   1 -11   2 3468.35  312.57
  -1 -11   2 4146.69  312.77
   1 -11  -2 4167.08  312.97
  11   2   1 3925.61  311.57
  11  -2  -1 4318.87  312.97
   2   1  11 4182.28  316.97
  -2  -1  11 4300.67  317.17
   1 -11   4  262.77   30.80
  -4   1  11  250.57   40.40
   4  -1  11  261.17   37.70
  11  -4   1  271.27   32.00
  11  -4  -1  360.26   31.60
  -1 -11   4  353.96   30.40
   4   1  11  331.57   41.50
  -4  -1  11  381.36   41.60
  11   4   1  351.66   30.30
   1 -11  -4  358.86   32.50
   1 -11   6  123.99   15.20
   6  -1  11  136.29   26.90
  -1  11   6   93.59   25.90
  11  -6   1  135.49   17.80
  -6   1  11   78.69   22.30
 -11   6   1  107.99   14.60
  -1 -11   6   81.59   13.80
   1  11   6   49.40   25.50
   6   1  11   73.39   23.70
  11  -6  -1   75.99   15.50
  -6  -1  11   72.79   23.10
  11   6   1   79.49   16.60
  -1  11   8   36.90   25.10
   8  -1  11   39.40   21.70
  11  -8   1   47.50   14.90
  -8   1  11   54.39   20.60
   1 -11   8   46.60   12.10
  -8  -1  11   12.90   20.80
  11   8   1   25.70   17.80
  -1 -11   8   13.50   10.30
   8   1  11   11.30   22.80
   1  11   8   15.80   24.60
  11  -8  -1   25.10   14.00
  10  -1  11 1637.24  136.99
 -10   1  11 1605.24  135.39
  11 -10   1 1598.74  132.29
   1 -11  10 1632.04  130.99
  -1  11  10 1659.43  139.99
  -1 -11  10 1599.44  130.59
   1  11  10 1629.14  139.39
  11 -10  -1 1601.34  132.29
 -10  -1  11 1689.33  135.59
  10   1  11 1692.63  137.49
  -1   2  11 3600.14  320.27
   1  -2  11 3672.83  320.57
   2 -11   1 3714.83  316.77
  11   1   2 4043.00  315.67
   1   2  11 4351.06  321.07
  11  -1  -2 4414.86  316.87
  -1  -2  11 4076.99  320.77
   2 -11  -1 4111.19  316.97
  11  -3   2  121.39   16.80
   3  -2  11  107.79   25.00
  -3   2  11  120.89   26.00
  -3  -2  11   78.39   24.60
  11  -3  -2   75.59   13.90
   3   2  11   53.09   24.70
  11   3   2   68.09   12.30
  -2 -11   3   60.99   12.80
   2 -11  -3   50.09   14.10
  11  -5   2  116.59   17.50
   5  -2  11   95.49   24.60
 -11   5   2  110.29   13.00
  -5   2  11   95.39   23.80
   2 -11   5  143.09   16.90
  -2  11   5   98.49   26.20
  11  -5  -2   83.39   15.60
  -2 -11   5   98.69   14.40
   2  11   5  125.09   29.10
  11   5   2   87.09   16.60
   5   2  11   90.29   25.40
   2 -11  -5  115.19   16.90
  -5  -2  11  100.29   25.50
 -11   7   2 1072.69  101.79
   2 -11   7 1105.19  101.09
   7  -2  11 1133.09  107.29
  -7   2  11 1098.99  105.99
  11  -7   2 1140.99  102.09
  -2  11   7 1103.19  107.69
   2  11   7 1511.55  109.89
  11   7   2 1386.76  104.39
   7   2  11 1379.46  108.39
  -2 -11   7 1372.16  100.79
  11  -7  -2 1361.96  101.89
  -7  -2  11 1402.86  106.89
   9  -2  11  255.37   34.00
   2 -11   9  220.18   25.70
  11  -9   2  237.48   28.30
 -11   9   2  232.18   30.90
  -9   2  11  262.27   35.90
  -2  11   9  222.48   34.90
   0  -3  11  499.45   52.99
   3 -11   0  506.85   44.20
  11   0  -3  521.85   42.80
  11   0   3  477.95   41.50
   0   3  11  473.45   53.39
   2  -3  11   72.69   23.80
  -2   3  11   83.99   23.90
   2  -3  11  101.89   12.00
   3 -11   2  115.79   15.20
  -2  -3  11   77.69   24.70
  11   2   3   69.09   13.00
   2   3  11   63.39   24.50
  11  -2  -3   68.49   12.70
   3 -11  -2   76.69   15.70
 -11   4   3   78.79   10.00
  11  -4   3  100.69   16.20
   4  -3  11  117.69   25.80
   3 -11   4   70.19   14.60
  -4   3  11   73.59   22.90
   3 -11  -4   73.99   14.50
   4   3  11   93.19   25.10
  11   4   3   65.29   14.90
  -4  -3  11   71.19   23.70
  11  -4  -3   61.09   13.40
   6  -3  11  696.03   75.99
  11  -6   3  743.33   69.59
  -6   3  11  757.72   74.89
  -3  11   6  691.53   75.99
 -11   6   3  689.93   68.49
   3 -11   6  747.43   68.69
  -6  -3  11  908.01   75.19
  11   6   3  887.41   71.69
   6   3  11  897.01   77.09
   3 -11  -6  978.40   69.59
  11  -6  -3  949.80   68.99
   3  11   6 1003.90   78.09
  11  -8   3  564.64   54.99
   8  -3  11  557.44   62.29
   3 -11   8  545.95   53.69
  -8   3  11  585.74   60.29
 -11   8   3  583.74   55.89
  -3  11   8  539.75   64.09
  -8  -3  11  760.72   61.09
   8   3  11  806.42   63.69
  11   8   3  785.12   59.79
  11 -10   3  936.01   77.39
 -11  10   3  947.91   79.89
  10  -3  11  929.71   82.89
 -10   3  11  897.11   81.09
   3 -11  10  900.31   75.69
  -3  11  10  947.81   86.69
  10  -3 -11  918.91   73.79
  11 -10  -3  853.41   76.59
  11  10   3  888.61   81.99
   3  11  10  927.01   86.89
  10   3  11  898.11   83.29
  11   1  -4  289.57   27.80
  -1   4  11  242.48   35.50
  11  -1   4  233.08   28.10
   1  -4  11  271.37   37.60
   1  -4  11  271.07   26.60
   4 -11   1  253.47   30.20
   1   4  11  350.06   40.50
  11  -1  -4  366.56   28.40
   4 -11  -1  354.56   30.90
  -1  -4  11  331.47   40.70
  11   1   4  346.37   29.40
   4 -11   3   77.49   14.80
   3  -4  11   80.79   12.20
 -11   3   4   75.49   10.00
  -3   4  11   84.19   23.70
  11  -3   4  101.59   17.50
   3  -4  11   64.59   25.80
   4 -11  -3   72.09   16.00
  -3  -4  11   65.89   24.40
  11   3   4   76.09   15.30
   3   4  11   79.29   25.70
  11  -3  -4   82.19   13.30
   4 -11   5  636.44   49.50
 -11   5   4  614.94   48.20
  -5   4  11  661.33   57.89
   5  -4  11  607.14   58.69
  -4  11   5  615.64   58.59
   5  -4  11  622.14   48.60
  11  -5   4  623.74   50.09
  11  -5  -4  515.05   48.40
  11   5   4  465.15   50.89
   4  11   5  494.95   59.09
   4 -11  -5  478.35   49.10
   5   4  11  494.05   57.29
  -5  -4  11  484.85   55.79
  -7   4  11  484.95   50.09
   7  -4  11  490.95   41.20
  11  -7   4  490.25   41.70
 -11   7   4  472.75   42.40
  -4  11   7  436.76   51.19
   7  -4  11  518.65   50.89
   4 -11   7  495.05   41.00
   4  11   7  442.16   53.59
  11  -7  -4  347.77   40.20
  11   7   4  395.46   45.50
   7   4  11  424.96   51.29
   4 -11  -7  422.06   41.40
  -7  -4  11  369.66   48.60
   4 -11   9   91.59   15.70
 -11   9   4   84.99   19.50
  11  -9   4   90.79   17.60
   9  -4  11  100.89   25.50
  -4  11   9  110.39   29.30
   9  -4  11  107.69   18.20
  -9   4  11   90.89   23.10
   4  11   9   71.49   28.70
  11   9   4   78.19   23.60
   9   4  11   64.89   27.70
  11  -9  -4   63.09   16.70
   5 -11   0   18.90   13.10
   0   5  11   20.60   23.30
  11   0   5   16.80   12.30
  11   0  -5   19.70    9.40
   0  -5  11   46.30   23.50
   2  -5  11  108.79   13.30
  -2   5  11  121.89   27.00
 -11   2   5  107.79   13.00
   5 -11   2  130.59   18.00
   2  -5  11  116.59   26.40
  11   2  -5  108.09   13.30
   2   5  11   99.29   25.70
  11   2   5   81.49   17.00
  -2  -5  11  106.19   25.40
   5 -11  -2  100.69   16.50
  11  -2  -5  106.49   14.60
  11  -4   5  646.04   51.29
   4  -5  11  637.84   49.20
 -11   4   5  632.94   49.30
   4  -5  11  662.73   59.59
   5 -11   4  646.54   50.79
  -4   5  11  609.84   58.99
  -4  -5  11  529.85   57.99
   5 -11  -4  501.65   49.99
  11   4   5  481.95   52.19
  11  -4  -5  498.25   48.80
   4   5  11  487.35   58.49
  -5  11   6  367.96   46.40
  11  -6   5  338.07   36.60
   6  -5  11  329.57   35.10
   5 -11   6  345.37   35.70
   6  -5  11  351.36   45.90
 -11   6   5  318.87   35.90
  -6   5  11  274.47   45.00
  -6  -5  11  446.66   46.00
   6   5  11  399.16   47.50
  11   6   5  413.16   40.80
   5  11   6  439.16   48.60
  11  -6  -5  417.46   34.90
   5 -11  -6  426.46   36.10
   8  -5  11 2095.19  177.98
 -11   8   5 2021.00  179.48
  -5  11   8 2067.09  183.08
  -8   5  11 2092.69  182.08
   5 -11   8 2068.99  177.68
   8  -5  11 2020.40  182.58
  11  -8   5 2090.79  178.48
   5  11   8 2444.66  184.68
  11  -8  -5 2328.27  177.88
   8   5  11 2603.34  184.28
  11   8   5 2535.65  182.08
   5 -11  -8 2368.36  178.08
  10  -5  11 1778.42  149.99
 -11  10   5 1806.62  147.79
  -5  11  10 1886.21  152.18
   5 -11  10 1799.12  144.29
  10  -5  11 1827.02  145.19
 -10   5  11 1765.12  148.69
  11 -10   5 1791.42  145.09
  10   5  11 1742.93  150.38
  11  10   5 1773.32  149.39
  11 -10  -5 1674.83  144.39
   5  11  10 1833.92  152.98
  10  -5 -11 1826.22  143.19
  11   1  -6  103.89   12.70
   6 -11   1  123.79   18.10
   1  -6  11   92.89   25.90
   1  -6  11  109.19   14.70
 -11   1   6  103.79   14.40
  11  -1   6  112.49   17.80
  -1   6  11  127.49   27.70
  11  -1  -6   96.59   13.10
  11   1   6   91.29   17.70
  -1  -6  11   51.19   24.90
   6 -11  -1  103.19   17.40
   1   6  11   95.69   25.90
  11   3  -6  748.33   62.79
  -3   6  11  658.13   72.29
  11  -3   6  705.83   65.59
   6 -11   3  723.73   65.39
   3  -6  11  705.63   73.09
 -11   3   6  696.23   64.39
   3  -6  11  718.43   63.59
   6 -11  -3  934.21   65.69
  11   3   6  865.51   67.59
  -3  -6  11  939.81   73.89
   3   6  11  902.21   74.19
  -6  11   5  334.37   44.80
   6 -11   5  316.37   35.70
   5  -6  11  332.27   34.00
  -5   6  11  349.27   45.20
   5  -6  11  340.57   46.30
  11  -5   6  351.26   37.10
 -11   5   6  304.67   35.30
  11  -5  -6  392.26   33.90
   6 -11  -5  419.26   35.80
  11   5   6  404.66   40.50
   5   6  11  463.85   47.90
   6  11   5  435.66   47.50
   6 -11   7   75.39   15.60
   7  -6  11   32.40   23.50
  11  -7   6   29.20   15.00
  -6  11   7   41.50   22.90
  -7   6  11   42.40   23.00
 -11   7   6   43.60   16.30
   7  -6  11   49.80   14.20
   6  11   7   -0.70   24.00
   7   6  11    5.50   25.00
  11  -7  -6   10.60   13.40
  11   7   6    0.00   19.70
   6 -11  -7   14.60   13.20
  11  -9   6  261.37   32.30
  -6  11   9  319.87   39.80
 -11   9   6  288.47   36.10
   9  -6  11  279.87   31.50
  -9   6  11  293.87   41.00
   6 -11   9  253.47   30.60
  11   9   6  283.47   40.00
   6  11   9  239.78   37.50
   9  -6 -11  278.57   27.30
   6 -11  -9  252.57   31.00
   9   6  11  274.07   37.90
  11  -9  -6  243.38   30.00
  11   0  -7 1176.08   93.79
   0  -7  11 1129.49   93.59
   7 -11   0 1148.19   95.79
   0   7  11 1211.38  102.09
 -11   0   7 1202.08   95.89
  11   0   7 1163.58   97.49
  11   2  -7 1080.19   93.29
  11  -2   7 1050.99   96.99
   2  -7  11 1089.39   93.99
  -2   7  11 1121.89  101.89
 -11   2   7 1054.59   95.49
   7 -11   2 1040.10   95.39
  11   2   7 1322.07   98.19
  11  -2  -7 1375.26   94.09
   7 -11  -2 1376.56   95.89
   4  -7  11  463.95   39.90
  11   4  -7  463.65   37.20
   7 -11   4  452.45   41.80
  -7  11   4  491.75   49.80
 -11   4   7  460.05   41.70
  11  -4   7  515.15   42.50
  -4   7  11  448.16   51.89
   7  11   4  404.46   51.89
   7 -11  -4  389.56   40.70
  11   4   7  378.86   45.20
  11  -4  -7  411.96   38.80
   4   7  11  420.66   51.19
  11  -6   7   41.60   16.10
  -6   7  11   36.10   22.90
   7 -11   6   45.90   15.00
  -7  11   6   34.50   21.70
 -11   6   7   46.00   16.40
   6  -7  11   38.20   13.30
   7  11   6    3.40   25.90
   6   7  11   16.70   24.10
   7 -11  -6    0.60   13.30
  11   6   7   18.20   19.80
  11  -6  -7    5.60   11.50
 -11   8   7 1182.18  106.19
   7 -11   8 1091.89  103.39
  -7  11   8 1094.09  109.39
  -8   7  11 1182.48  109.49
   8  -7  11 1159.68  103.39
  11  -8   7 1088.19  103.79
   7 -11  -8 1431.06  103.69
  11  -8  -7 1473.15  103.29
   8   7  11 1552.74  112.09
   7  11   8 1466.55  112.49
  11 -10   7 1600.74  127.49
 -10   7  11 1617.34  131.89
   7 -11  10 1620.24  126.79
 -11  10   7 1630.14  130.79
  10  -7  11 1583.84  127.29
  -7  11  10 1677.03  134.29
  10  -7 -11 1508.85  125.59
  11  10   7 1442.26  132.69
  10   7  11 1541.65  133.39
  11 -10  -7 1459.45  126.29
   7  11  10 1458.55  134.89
   8 -11   1   46.20   14.90
   1  -8  11   58.89   10.30
  11  -1   8   69.29   18.60
  -1   8  11   18.40   23.20
 -11   1   8   61.09   15.30
   1   8  11   13.00   24.90
  11  -1  -8   18.00    8.70
  -1  -8  11   22.20    8.00
   8 -11  -1   22.50   15.20
  11   1   8   18.20   17.30
  -3   8  11  562.64   63.19
 -11   3   8  548.65   54.69
  11  -3   8  570.94   56.89
   3  -8  11  564.34   51.99
   8 -11   3  557.14   53.59
   3   8  11  807.02   64.09
   8 -11  -3  762.92   54.29
   8 -11   5 2054.99  178.78
 -11   5   8 2019.20  180.08
   5  -8  11 2005.30  178.18
  -5   8  11 2092.09  183.88
  -8  11   5 2023.70  182.38
  11  -5   8 2055.89  179.18
   8 -11  -5 2323.27  178.78
   5   8  11 2537.45  185.68
  11   5   8 2466.35  182.68
  11  -5  -8 2496.25  177.88
   8  11   5 2559.04  184.88
   7  -8  11 1155.18  101.59
 -11   7   8 1167.58  104.39
  11  -7   8 1099.79  102.19
  -7   8  11 1135.99  108.19
  -8  11   7 1135.79  107.29
   8 -11   7 1072.99  101.89
   8 -11  -7 1460.25  101.99
   7   8  11 1463.45  110.39
  11  -7  -8 1483.15  101.29
   9  -8  11  231.28   33.30
  11  -9   8  250.97   34.40
  -8  11   9  251.97   37.70
 -11   9   8  242.88   38.90
  -9   8  11  289.87   38.50
   8 -11   9  267.07   33.30
   9  -8 -11  339.87   31.20
   9   8  11  380.06   47.80
  11   9   8  342.77   45.30
   8 -11  -9  340.47   33.00
   8  11   9  365.36   48.50
  11  -9  -8  312.97   32.20
   0  -9  11  722.73   59.89
   0   9  11  740.73   72.39
   9 -11   0  717.13   62.79
  11   0   9  733.93   66.89
 -11   0   9  742.03   64.19
  -2   9  11  270.37   46.10
  -2  -9  11  410.56   34.40
  11   2   9  433.36   45.00
  11  -2  -9  408.86   35.00
   9 -11  -2  437.76   39.60
   2   9  11  461.55   52.39
  11  -4   9   78.59   17.80
   9 -11   4   92.39   17.50
  -4   9  11  130.59   30.60
   4  -9  11   92.19   14.80
 -11   4   9   86.89   19.80
  -9  11   4  104.89   24.00
   9  11   4   52.19   25.60
   4   9  11   80.19   29.00
  11  -4  -9   80.19   13.00
  11   4   9   56.89   22.50
   9 -11  -4   63.19   17.60
  -9  11   6  286.27   36.40
   9 -11   6  263.87   31.40
  11  -6   9  246.08   32.40
   6  -9  11  257.37   29.70
 -11   6   9  260.57   35.90
  -6   9  11  312.67   38.90
  11  -6  -9  262.77   27.70
  11   6   9  263.07   39.80
   9 -11  -6  265.57   30.80
   6   9  11  266.27   38.70
   9  11   6  245.18   36.30
 -11   8   9  246.08   38.70
  -8   9  11  302.17   45.60
   8  -9  11  274.57   33.10
   9 -11   8  244.18   33.50
  11  -8   9  262.57   34.50
  -9  11   8  303.17   40.00
   8   9  11  343.67   48.50
  11  -8  -9  318.97   30.90
   9 -11  -8  353.66   33.00
   9  11   8  339.47   48.10
  11   8   9  334.57   45.00
  10  -9  11  900.11   71.89
  -9  11  10  919.01   80.09
   9 -11  10  899.61   71.69
 -11  10   9  922.41   77.89
 -10   9  11  877.71   78.89
  11 -10   9  888.41   72.29
  10  -9 -11  736.33   69.79
   9 -11 -10  724.93   70.59
  11 -10  -9  765.92   70.09
  11  10   9  790.52   80.09
   9  11  10  756.02   81.89
  10   9  11  808.82   81.09
   1 -10  11 1628.94  129.89
 -11   1  10 1628.74  133.59
  10 -11   1 1629.84  131.49
  -1  10  11 1641.34  138.59
  11  -1  10 1618.24  135.29
  11   1  10 1686.03  135.49
 -11  -1  10 1591.04  133.59
   1  10  11 1595.94  138.69
  10 -11  -1 1629.24  131.49
  -1 -10  11 1570.74  129.39
   3 -10  11  932.21   75.59
  10 -11   3  867.81   77.29
 -11   3  10  930.31   79.99
  -3  10  11  989.10   86.49
 -10  11   3  876.71   81.39
  11  -3  10  919.81   81.39
  10 -11  -3  887.01   76.99
   3  10  11  923.41   86.89
  11  -3 -10  937.31   74.29
  11   3  10  878.11   82.39
  10  11   3  935.81   83.79
  11  -5  10 1794.42  142.99
 -10  11   5 1792.82  146.29
  -5  10  11 1802.32  149.29
 -11   5  10 1802.02  145.19
   5 -10  11 1764.42  141.89
  10 -11   5 1706.33  142.49
  10  11   5 1787.62  147.99
   5  10  11 1714.93  149.39
  10 -11  -5 1705.43  142.19
  11   5  10 1783.22  147.29
  11  -5 -10 1721.03  140.69
 -11   7  10 1638.64  128.99
  -7  10  11 1664.43  132.19
   7 -10  11 1605.44  124.69
  10 -11   7 1536.15  125.19
  11  -7  10 1596.84  125.49
 -10  11   7 1578.94  129.59
  11   7  10 1502.15  130.49
   7  10  11 1446.96  132.99
  11  -7 -10 1410.26  123.39
  10 -11  -7 1394.76  124.49
  10  11   7 1512.15  131.59
  -9  10  11  916.41   80.79
  10 -11   9  924.21   72.39
 -11   9  10  840.52   77.39
 -10  11   9  893.31   79.49
  11  -9  10  921.21   72.79
   9 -10  11  908.81   72.19
  11   9  10  825.02   80.79
  11  -9 -10  765.72   70.39
  10 -11  -9  716.33   70.79
   9 -10 -11  779.22   70.79
  10  11   9  788.92   81.79
   9  10  11  743.53   81.99
 -11   0  11  687.83   62.79
   0 -11  11  667.33   56.39
   0  11  11  679.03   71.79
  11 -11   0  651.93   59.09
  11   0  11  687.13   66.09
 -11   2  11 3094.49  225.98
  11  -2  11 3168.68  227.48
  -2  11  11 3212.68  230.68
   2 -11  11 3195.38  222.18
  11 -11   2 3027.80  223.18
  11 -11  -2 2489.05  222.78
  -2 -11  11 2488.65  221.08
  11  -2 -11 2554.34  220.88
   2  11  11 2539.35  229.08
  11   2  11 2513.25  226.78
  11  11   2 2474.45  226.68
 -11   4  11 3253.47  243.78
 -11  11   4 3114.09  243.38
  -4  11  11 3201.78  247.08
   4 -11  11 3113.49  239.88
  11  -4  11 3194.78  240.98
  11  -4  11 3287.97  244.98
  11 -11   4 3053.59  240.78
  11  -4 -11 2793.62  238.78
   4  11  11 2809.52  246.68
  11 -11  -4 2726.23  240.18
  11   4  11 2836.12  244.58
  11  11   4 2794.12  244.58
 -11   6  11  482.15   50.99
 -11  11   6  479.85   50.89
  -6  11  11  489.05   56.99
   6 -11  11  509.05   43.60
  11  -6  11  484.85   45.40
  11 -11   6  492.75   45.50
  11 -11  -6  412.96   44.00
  11  -6 -11  441.36   41.00
   6  11  11  390.16   56.69
  11   6  11  404.16   54.79
  11  11   6  409.16   53.69
 -11   8  11  891.91   78.39
 -11  11   8  942.01   78.29
  -8  11  11  919.11   81.89
   8 -11  11  931.91   71.79
  11  -8  11  889.11   72.49
  11 -11   8  871.61   72.89
  11 -11  -8  703.73   70.69
  11  -8 -11  747.43   69.89
   8  11  11  759.92   82.79
  11   8  11  754.92   80.09
  11  11   8  780.72   81.19
 -11  10  11 1541.85  142.69
 -11  11  10 1553.24  142.89
 -10  11  11 1638.04  144.39
  11 -10  11 1763.82  138.09
  10 -11  11 1700.13  137.89
  11 -11  10 1720.03  138.19
  11 -11 -10 1727.13  137.09
  10  11  11 1709.93  146.49
  11 -10 -11 1691.13  136.79
  10 -11 -11 1756.42  136.99
  11  10  11 1692.13  145.79
  11  11  10 1693.83  145.89
   0 -12   0 3662.93  293.57
   0   0  12 3743.63  298.17
   2   0  12  109.49   27.60
  12  -2   0  115.69   17.10
   0 -12  -2  125.89   18.40
   0 -12   2  142.39   18.30
  -2   0  12  134.79   28.50
  12  -4   0  845.02   71.09
   0 -12   4  865.51   70.49
  12   4   0  833.72   69.39
   4   0  12  831.12   78.39
  -4   0  12  880.01   78.29
   0 -12   6    6.30   11.70
   6   0  12   28.60   23.00
 -12   6   0   17.30    9.50
   0  12   6    3.60   24.70
  12   6   0    7.00   12.30
  -6   0  12    6.10   21.20
  12  -6   0   14.90   14.00
  12  -8   0  123.39   19.10
  -8   0  12  139.09   26.90
   0 -12   8   99.99   15.60
   0  12   8  124.49   32.90
   8   0  12  108.69   27.20
   0  12  10 1861.01  155.38
  12 -10   0 1760.72  147.19
   0 -12  10 1794.92  145.59
 -10   0  12 1910.51  151.08
  10   0  12 1784.62  152.38
   1  -1  12 1582.44  129.19
  -1   1  12 1537.95  128.69
   1 -12   1 1459.25  122.49
  -1 -12   1 1461.65  122.39
   1   1  12 1598.44  128.99
  12  -1  -1 1473.45  122.39
  -1  -1  12 1560.04  128.89
   1 -12  -1 1538.05  122.79
   1 -12   3  150.88   21.80
   3  -1  12  129.69   32.00
  12  -3  -1  245.68   24.80
   1 -12  -3  216.98   25.80
  -1 -12   3  216.58   23.90
   3   1  12  256.67   33.60
  12   3   1  204.68   19.70
  -3  -1  12  212.58   30.10
  12   5  -1 1235.08  112.89
  -5   1  12 1267.57  118.39
   1 -12   5 1250.37  112.69
  12  -5   1 1214.68  113.09
  -1  12   5 1256.67  119.49
   5  -1  12 1207.98  119.19
  12  -5  -1 1553.64  113.49
   5   1  12 1697.93  120.39
  -1 -12   5 1655.73  112.79
  -5  -1  12 1669.03  119.69
  -7   1  12  248.38   33.80
 -12   7   1  209.68   25.80
  -1  12   7  246.78   38.00
   1 -12   7  210.98   26.50
  12  -7   1  200.28   29.00
   7  -1  12  179.58   32.40
  12   7   1  290.47   30.90
   1  12   7  358.46   45.90
  -7  -1  12  327.67   38.90
   7   1  12  357.96   42.70
  -1  12   9  646.44   66.89
   9  -1  12  666.33   63.99
  -9   1  12  670.23   61.49
  12  -9   1  625.94   55.59
   1 -12   9  642.44   53.19
  -1 -12   9  594.74   52.29
  -9  -1  12  599.34   61.39
   9   1  12  576.64   63.49
   1  12   9  579.34   67.49
  12  -9  -1  571.84   54.79
  12   9   1  653.43   59.69
   1 -12  11  152.78   21.90
  11  -1  12  154.68   30.70
  12 -11   1  137.09   22.10
 -11   1  12  189.88   28.30
  -1  12  11  132.79   34.80
 -11  -1  12  188.28   28.80
  -1 -12  11  167.78   20.30
   1  12  11  131.99   34.00
  11   1  12  176.18   30.70
  12 -11  -1  169.48   22.40
   0   2  12  126.19   27.80
   2 -12   0  127.99   17.90
   0  -2  12   96.19   26.20
  12   0  -2  119.09   15.80
  -2   2  12 1821.02  144.59
   2 -12   2 1821.32  138.99
   2  -2  12 1837.12  144.99
  12  -2   2 1827.92  139.29
  -2  -2  12 1641.94  144.19
  12  -2  -2 1659.23  138.49
  12   2   2 1588.04  137.09
   2   2  12 1719.03  144.49
   2 -12  -2 1666.73  138.89
  -4   2  12  704.23   69.69
   2 -12   4  744.53   61.49
  12  -4   2  721.53   62.09
   4  -2  12  719.03   70.29
  -2 -12   4  705.53   60.99
   2 -12  -4  739.43   61.89
   4   2  12  745.63   70.79
  12   4   2  709.63   61.09
  -4  -2  12  738.03   69.59
  12  -4  -2  758.22   61.39
   2 -12   6   15.60   12.20
  12  -6   2   17.90   15.00
   6  -2  12   14.50   25.00
  -6   2  12   40.90   22.20
 -12   6   2   15.60    9.30
  -2  12   6   -0.20   24.00
  12  -6  -2   10.20   13.00
   6   2  12   33.90   25.30
  12   6   2   19.80   14.70
   2  12   6   14.70   25.90
  -2 -12   6    5.80   11.30
  -6  -2  12   21.80   21.60
   2 -12   8  180.78   24.90
   8  -2  12  241.58   35.40
  12  -8   2  216.28   25.60
  -8   2  12  212.28   31.80
  -2  12   8  166.08   33.70
 -12   8   2  182.58   25.80
   2  12   8  173.18   33.50
  -2 -12   8  200.58   22.90
   8   2  12  248.68   35.00
  12  -8  -2  188.68   26.40
  -8  -2  12  250.57   33.30
  12   8   2  209.68   27.70
 -12  10   2  857.71   74.09
  -2  12  10  929.11   82.69
  10  -2  12  892.41   79.39
  12 -10   2  885.41   72.59
 -10   2  12  906.51   77.19
   2 -12  10  840.52   70.39
 -10  -2  12  818.42   77.19
  -2 -12  10  829.82   69.39
   2  12  10  811.32   83.59
  12  10   2  771.02   76.59
  10   2  12  819.72   79.79
  12 -10  -2  787.72   71.79
   1  -3  12  143.59   33.10
  -1   3  12  137.59   32.70
  -1  -3  12  277.07   35.30
  12  -1  -3  226.28   24.50
  12   1   3  221.38   21.10
   3 -12  -1  232.38   26.00
   1   3  12  287.57   36.00
   3  -3  12 2037.00  170.48
  -3   3  12 2053.59  176.58
  12  -3   3 2083.09  171.68
   3 -12   3 1947.61  171.28
   3  -3  12 2060.09  176.78
   3   3  12 2289.47  177.08
  12  -3  -3 2349.17  171.18
  -3  -3  12 2201.38  176.38
  12   3   3 2162.78  171.18
   3 -12  -3 2246.28  171.48
   3 -12   5  817.92   75.39
   5  -3  12  862.11   83.39
  -5   3  12  854.71   82.49
  -3  12   5  817.82   83.29
  12  -5   3  906.11   76.29
  12   5   3 1148.19   77.29
   3 -12   7  364.16   38.80
  12  -7   3  361.86   40.70
   7  -3  12  347.97   49.50
  -7   3  12  380.66   48.20
  -3  12   7  399.56   52.99
 -12   7   3  370.46   38.40
  12   7   3  509.95   43.70
   3  12   7  576.54   55.29
   7   3  12  515.05   51.89
  -7  -3  12  499.15   48.80
 -12   9   3 2765.32  228.08
  -9   3  12 2829.52  230.88
  -3  12   9 2854.41  232.98
  12  -9   3 2704.83  227.08
   3 -12   9 2936.91  226.58
   9  -3  12 2867.61  231.78
  -9  -3  12 2863.41  231.08
  12   9   3 2904.81  230.18
   9   3  12 2922.51  232.18
  12  -9  -3 2677.33  226.68
   3  12   9 2986.70  233.98
  -3  12  11  153.98   37.20
 -11   3  12  126.19   26.00
 -12  11   3  123.59   24.30
  12 -11   3  117.89   21.30
  11  -3  12  104.49   26.80
   3 -12  11  160.38   18.90
  11  -3  12  124.09   21.60
  12  11   3  115.69   28.80
   3  12  11  104.79   36.80
  12 -11  -3  119.69   20.40
  11   3  12  104.49   28.40
   0   4  12  866.61   79.39
   4 -12   0  863.91   71.59
  12   0  -4  859.61   70.39
   0  -4  12  893.81   79.09
  12   0   4  815.72   69.89
   2  -4  12  693.13   58.69
   4 -12   2  729.03   61.19
  -2   4  12  706.53   69.39
   2  -4  12  700.03   69.59
   2   4  12  721.03   69.99
   4 -12  -2  754.02   61.09
  12   2   4  714.13   60.09
  -2  -4  12  708.13   69.19
  12  -2  -4  701.03   59.49
  12  -4   4   71.09   16.30
  -4   4  12   86.09   25.50
   4 -12   4   63.09   14.80
   4  -4  12   57.79   12.70
 -12   4   4   68.99   10.10
   4  -4  12   69.49   26.50
  12  -4  -4   78.59   14.00
   4 -12  -4   82.99   16.80
   4   4  12   98.79   29.00
  -4  -4  12  100.89   27.30
  12   4   4   69.19   16.00
  12  -6   4  525.65   52.59
   6  -4  12  549.05   61.69
 -12   6   4  536.15   50.19
   6  -4  12  514.25   50.79
  -4  12   6  552.04   61.59
   4 -12   6  564.84   51.59
  -6   4  12  581.04   60.59
   4  12   6  652.53   62.89
  12   6   4  622.24   54.59
  12  -6  -4  634.54   51.29
  -6  -4  12  652.63   59.99
   4 -12  -6  661.43   52.09
   6   4  12  672.53   62.59
   4 -12   8  760.42   68.99
   8  -4  12  747.73   76.59
  -8   4  12  766.22   76.19
  12  -8   4  716.63   70.39
  -4  12   8  837.22   79.19
 -12   8   4  787.92   70.29
   8  -4  12  795.42   69.39
   8   4  12 1038.10   79.69
  12  -8  -4  974.50   69.49
   4 -12  10  597.54   49.50
  12 -10   4  567.14   51.39
 -12  10   4  571.64   53.19
 -10   4  12  595.14   58.09
  10  -4  12  592.84   59.39
  10  -4  12  573.84   51.19
  -4  12  10  616.64   63.69
  10   4  12  378.76   59.19
   4  12  10  379.66   62.79
  12  -1   5 1192.18  103.89
  12   1  -5 1218.38  102.99
  -1   5  12 1197.08  110.79
   5 -12   1 1158.58  104.09
   1  -5  12 1202.18  110.59
   1  -5  12 1212.28  102.49
  -1  -5  12 1628.44  111.99
   1   5  12 1604.64  112.09
   3  -5  12  855.91   81.79
  12  -3   5  895.91   74.99
   3  -5  12  836.02   72.49
  -3   5  12  907.11   82.39
 -12   3   5  804.42   71.49
   5 -12   3  865.61   74.19
  12   3   5 1086.09   75.49
  12  -5   5  520.15   48.50
  -5  12   5  515.25   57.39
  -5   5  12  533.65   57.39
   5  -5  12  567.84   46.50
 -12   5   5  532.45   45.80
   5 -12   5  549.74   47.90
   5  -5  12  536.35   57.69
  12   5   5  503.25   50.19
   5 -12  -5  502.15   47.70
   5   5  12  498.85   57.49
   5  12   5  551.54   59.69
  12  -5  -5  527.45   46.50
  -5  -5  12  550.14   57.09
  12  -7   5  140.89   21.80
   7  -5  12  159.38   20.80
 -12   7   5  150.58   21.40
  -5  12   7  168.38   32.00
   7  -5  12  145.19   31.80
   5 -12   7  149.69   21.50
  -7   5  12  120.19   29.10
   7   5  12  228.68   34.10
  12  -7  -5  214.58   23.70
   5  12   7  163.68   33.20
   5 -12  -7  216.08   25.50
  -5  12   9 1793.92  149.88
 -12   9   5 1770.62  144.49
  12  -9   5 1805.72  143.49
   9  -5  12 1782.72  142.99
   9  -5  12 1793.82  148.79
  -9   5  12 1828.42  148.19
   5 -12   9 1795.72  142.49
   9   5  12 1759.92  149.19
   5  12   9 1703.83  150.28
  12   9   5 1709.83  146.79
  12  -9  -5 1667.63  142.39
  11  -5  12  341.57   36.60
  12 -11   5  351.46   36.40
   5 -12  11  319.27   33.00
 -11   5  12  318.57   42.60
  -5  12  11  369.96   46.20
 -12  11   5  328.17   40.20
  11   5  12  215.98   41.00
  12  11   5  222.88   38.50
   6 -12   0    9.20   13.70
  12   0  -6   20.30    9.70
   0  -6  12   20.50   25.30
  12   0   6    2.40   13.40
   0  -6  12   12.00    7.50
   0   6  12   12.10   23.00
   2  -6  12   22.10    9.80
   2  -6  12    1.90   23.90
  12   2  -6    9.50    9.20
  -2   6  12   -0.50   23.70
 -12   2   6   16.30    8.90
   6 -12   2   13.40   13.80
   6 -12  -2   14.40   14.30
  12   2   6   28.40   14.90
  -2  -6  12   19.80   23.80
  12  -2  -6   15.50   10.50
   2   6  12   22.40   23.80
   4  -6  12  509.35   49.50
  -4   6  12  512.05   61.19
 -12   4   6  531.95   49.70
  12  -4   6  551.14   52.79
   6 -12   4  528.85   51.39
   4  -6  12  554.14   61.99
  -4  -6  12  650.23   61.19
  12  -4  -6  663.53   49.90
  12   4   6  594.74   54.19
   4   6  12  706.23   61.89
   6 -12  -4  660.03   51.69
   6 -12   6 1442.86  129.19
  12  -6   6 1452.65  129.79
   6  -6  12 1445.96  128.69
 -12   6   6 1393.06  129.29
   6  -6  12 1445.86  135.59
  -6  12   6 1513.15  135.29
  -6   6  12 1498.45  135.29
   6 -12  -6 1807.82  129.69
   6   6  12 1801.52  136.59
  12   6   6 1885.91  133.09
   6  12   6 1897.61  137.89
  12  -6  -6 1695.03  128.79
  -8   6  12 1153.48  104.89
   8  -6  12 1174.78   98.19
 -12   8   6 1110.39   99.59
  12  -8   6 1147.49   98.89
   6 -12   8 1180.88   97.99
   8  -6  12 1229.68  106.09
  -6  12   8 1115.19  105.59
   8   6  12 1195.08  105.99
   6  12   8 1311.37  107.89
  12   8   6 1295.37  103.19
  12  -8  -6 1229.38   97.79
   6 -12  -8 1187.28   98.09
 -12  10   6 1335.87  108.79
  10  -6  12 1377.36  106.19
  12 -10   6 1171.58  105.89
 -10   6  12 1388.66  111.99
  -6  12  10 1399.36  115.19
   6 -12  10 1322.67  105.29
   6  12  10 1178.28  114.89
  12 -10  -6 1222.38  105.19
  10   6  12 1238.18  113.29
  12  10   6 1193.48  111.29
  12   1  -7  196.28   21.50
   7 -12   1  224.88   27.60
   1  -7  12  212.88   21.60
  12  -1   7  175.58   28.20
  -1   7  12  231.48   35.10
   1   7  12  338.37   42.10
  -3   7  12  405.06   51.69
  12   3  -7  358.76   34.80
 -12   3   7  351.86   37.40
  12  -3   7  354.96   40.60
   3  -7  12  368.26   36.30
   7 -12   3  348.77   38.70
  12   3   7  482.25   43.00
   3   7  12  506.35   53.09
  12  -3  -7  480.25   36.30
   7 -12  -3  503.25   39.90
  -5   7  12  120.09   30.00
  -7  12   5  159.98   30.40
 -12   5   7  165.88   21.60
  12  -5   7  144.49   22.40
   7 -12   5  153.08   22.20
   5  -7  12  148.29   19.60
  12  -5  -7  207.58   22.20
  12   5   7  245.58   27.70
   7  12   5  198.38   32.20
   5   7  12  154.68   31.20
   7 -12  -5  212.88   26.00
  12  -7   7   72.19   18.50
   7  -7  12  105.19   17.60
  -7  12   7   79.09   26.80
  -7   7  12   65.69   27.50
 -12   7   7   85.79   19.00
   7 -12   7   69.29   17.80
  12   7   7  170.38   26.20
   7  12   7  190.18   32.40
  -9   7  12  359.86   47.00
  12  -9   7  341.27   38.10
   9  -7  12  337.47   36.00
  -7  12   9  323.27   49.20
 -12   9   7  369.46   39.80
   7 -12   9  356.86   35.80
   7  12   9  211.88   43.40
 -11   7  12    3.70   23.40
 -12  11   7   -0.70   20.20
   7 -12  11    5.00   16.50
  12 -11   7   18.00   19.50
  11  -7  12    9.70   18.20
  -7  12  11   -8.40   25.40
   7  12  11   10.60   30.50
  12 -11  -7   14.40   16.90
  12  11   7    3.70   25.20
  11   7  12   11.60   28.30
  11  -7 -12   12.30   13.00
  12   0   8  128.39   21.70
  12   0  -8   97.69   14.80
   0   8  12  100.19   28.30
   0  -8  12  107.39   13.00
   8 -12   0  122.19   19.80
   2  -8  12  176.88   21.40
   8 -12   2  213.78   27.10
  -2   8  12  157.78   31.90
  12  -2   8  194.18   29.00
  12   2  -8  175.38   18.70
 -12   2   8  189.28   24.90
  12  -2  -8  192.78   20.50
   8 -12  -2  190.88   23.50
  12   2   8  223.58   31.20
   2   8  12  177.78   32.60
  12  -4   8  745.33   69.99
   4  -8  12  761.82   67.99
   8 -12   4  709.53   69.49
 -12   4   8  766.62   69.69
  -4   8  12  791.52   78.69
  -8  12   4  765.52   76.49
   8 -12  -4 1018.70   69.89
   8  12   4 1058.19   79.79
  12  -6   8 1185.98   97.79
  -8  12   6 1201.68  103.59
  12   6  -8 1100.19   94.19
 -12   6   8 1106.59   98.19
  -6   8  12 1161.68  104.79
   8 -12   6 1119.29   97.09
   6  -8  12 1190.48   96.39
  12  -6  -8 1245.38   95.79
  12   6   8 1218.98  101.59
   8  12   6 1107.79  104.59
   8 -12  -6 1230.68   96.99
   6   8  12 1248.98  106.09
   8  -8  12 1882.31  136.99
  -8  12   8 1852.21  143.69
  -8   8  12 1849.02  143.99
 -12   8   8 1829.92  139.39
   8 -12   8 1847.92  137.19
  12  -8   8 1835.32  137.49
  12  -8  -8 1453.35  135.79
   8 -12  -8 1415.86  136.29
   8  12   8 1497.45  143.89
  12   8   8 1543.55  141.69
   8   8  12 1555.54  144.09
  12 -10   8  215.78   29.00
  10  -8  12  265.97   32.00
   8 -12  10  228.08   31.60
 -12  10   8  225.98   33.00
 -10   8  12  209.08   35.70
  -8  12  10  304.37   41.20
  10   8  12  317.67   43.00
   8 -12 -10  219.88   31.20
  12  10   8  230.28   35.70
  12 -10  -8  263.97   30.20
   8  12  10  320.17   44.10
   9 -12   1  577.04   54.39
   1  -9  12  621.54   50.99
 -12   1   9  629.74   54.79
  12  -1   9  634.54   58.09
  -1   9  12  669.53   66.29
   1   9  12  606.04   65.39
  12  -1  -9  573.44   50.19
   9 -12  -1  607.84   53.99
  12   1   9  643.14   58.69
  -1  -9  12  579.54   50.09
  12  -3   9 2762.02  224.68
  12  -3   9 2724.83  226.48
 -12   3   9 2864.31  225.18
   9 -12   3 2689.53  224.18
   3  -9  12 2763.52  223.08
  -3   9  12 2780.42  230.08
   9  12   3 2894.71  229.58
   3   9  12 3000.90  230.98
   9 -12  -3 2767.52  224.08
  12   3   9 2826.62  227.08
  12  -3  -9 2827.32  222.68
  -9  12   5 1832.62  147.09
   5  -9  12 1836.42  141.29
 -12   5   9 1711.33  143.39
  12  -5   9 1773.42  142.79
   9 -12   5 1683.83  141.99
  -5   9  12 1873.61  149.69
  12   5   9 1722.23  146.09
   9 -12  -5 1679.83  141.79
   5   9  12 1730.73  149.59
  12  -5  -9 1707.23  140.59
   9  12   5 1784.42  148.69
   9 -12   7  336.07   37.80
   7  -9  12  345.67   36.20
 -12   7   9  339.07   40.30
  -9  12   7  387.76   47.80
  -7   9  12  351.56   50.49
  12  -7   9  351.36   38.60
  -9  12   9 1124.99   97.19
  12  -9   9 1098.79   89.89
   9 -12   9 1144.59   89.39
   9  -9  12 1155.38   89.39
 -12   9   9 1094.49   92.89
  -9   9  12 1115.49   97.49
   9 -12  -9  942.01   88.29
  12   9   9 1043.50   96.49
  12  -9  -9  959.40   87.79
   9  12   9 1032.70   98.79
   9   9  12  965.30   98.69
  -9  12  11  238.68   38.40
   9 -12  11  176.38   25.90
 -11   9  12  133.69   32.80
  12 -11   9  154.18   25.20
 -12  11   9  183.08   31.90
  11  -9  12  189.88   25.90
  12  11   9  200.68   38.30
  12 -11  -9  204.78   24.90
   9  12  11  170.78   40.10
  11   9  12  189.18   36.90
   0 -10  12 1792.72  144.39
 -12   0  10 1827.02  147.99
  10 -12   0 1746.93  146.49
  12   0  10 1871.31  150.08
   0  10  12 1823.62  154.38
  -2  10  12  890.41   82.39
  12  -2  10  916.31   76.09
 -12   2  10  900.81   73.59
  10 -12   2  859.21   71.79
   2 -10  12  906.51   69.49
  10 -12  -2  762.02   71.19
  12   2  10  785.62   76.19
   2  10  12  821.42   82.69
  12  -2 -10  797.42   68.09
  -2 -10  12  783.82   67.89
 -12   4  10  566.14   52.09
  12  -4  10  603.64   51.09
   4 -10  12  605.64   47.80
  -4  10  12  611.94   62.59
 -10  12   4  571.04   56.69
  10 -12   4  574.44   49.99
   4  10  12  405.36   61.79
  10  12   4  368.66   58.29
  12   4  10  372.46   55.29
  12  -6  10 1358.56  104.79
  -6  10  12 1337.07  112.69
  10 -12   6 1235.78  103.89
   6 -10  12 1324.87  103.19
 -12   6  10 1313.67  106.49
 -10  12   6 1306.37  108.99
   6  10  12 1178.28  112.99
  12  -6 -10 1162.18  101.79
  10 -12  -6 1183.18  103.49
  12   6  10 1221.18  109.79
  10  12   6 1200.58  111.29
 -12   8  10  230.28   33.20
 -10  12   8  272.67   37.30
  10 -12   8  208.88   32.00
  12  -8  10  211.88   32.10
   8 -10  12  236.08   31.10
  -8  10  12  301.17   41.10
  12  -8 -10  240.68   28.30
  12   8  10  308.37   39.90
  10 -12  -8  256.97   31.20
   8  10  12  220.08   38.40
  10  12   8  212.68   37.10
 -10  12  10 1744.43  142.09
  10 -12  10 1745.13  135.19
  10 -10  12 1750.42  135.19
 -12  10  10 1691.33  139.49
 -10  10  12 1722.93  142.09
  12 -10  10 1763.62  135.79
  10  12  10 1596.54  143.59
  10 -12 -10 1510.45  134.39
  12  10  10 1539.05  142.39
  12 -10 -10 1538.75  133.89
  10  10  12 1551.34  143.19
  11 -12   1  144.69   22.50
  12  -1  11  140.09   28.20
 -12   1  11  133.79   25.20
   1 -11  12  142.89   18.10
  -1  11  12  201.68   38.50
  -1 -11  12  139.49   18.60
  12   1  11  197.48   29.90
 -12  -1  11  207.18   27.20
   1  11  12  135.69   33.30
  11 -12  -1  182.28   23.00
   3 -11  12  120.69   17.10
 -11  12   3  131.19   26.00
 -12   3  11  124.49   23.60
  12  -3  11  122.69   26.10
  -3  11  12  111.79   31.00
  11 -12   3  128.79   20.80
  12  -3  11  129.99   21.30
  12  -3 -11  110.29   14.50
  11 -12  -3  101.19   19.80
   3  11  12  100.09   32.60
  12   3  11   65.49   25.60
  11  12   3  124.49   29.30
  -5  11  12  275.47   38.60
 -11  12   5  302.47   39.00
 -12   5  11  311.97   36.20
  11  12   5  201.08   34.90
  12   5  11  204.18   34.80
   5  11  12  161.28   36.40
  11 -12  -5  178.58   25.10
  12  -5 -11  189.98   24.00
 -11  12   7    6.00   23.30
 -12   7  11   -3.90   20.50
  -7  11  12    9.80   30.00
   7 -11  12    1.70   15.30
  11 -12   7   15.70   17.80
  12  -7  11    2.80   18.40
   7  11  12   23.50   31.80
  11  12   7   17.70   26.60
  12  -7 -11    8.70   13.00
  11 -12  -7   21.10   16.80
  12   7  11   -5.30   25.10
   9 -11  12  143.99   23.40
 -12   9  11  142.19   30.00
 -11  12   9  163.68   32.90
  -9  11  12  158.68   34.70
  11 -12   9  199.88   26.30
  12  -9  11  163.08   26.10
   9  11  12  235.58   43.00
  12   9  11  171.78   35.10
  11  12   9  196.68   37.10
  12  -9 -11  176.68   22.10
  11 -12  -9  198.18   24.50
 -12  11  11 1081.79   95.89
 -11  11  12 1129.29   97.69
 -11  12  11 1077.29   97.19
  12 -11  11 1142.89   90.19
  11 -12  11 1062.79   89.49
  11 -11  12 1108.69   89.59
  11  11  12  923.01  100.09
  11  12  11  974.90  100.19
  12 -11 -11  999.70   87.79
  11 -12 -11  986.00   88.19
  12  11  11  982.70   99.69
 -12   0  12  896.11   79.69
   0 -12  12  875.11   73.19
   0  12  12  915.81   88.39
  12 -12   0  897.01   76.39
  12   0  12  878.21   82.19
 -12   2  12 1031.50   89.19
 -12  12   2 1009.20   89.39
  -2  12  12 1077.29   96.59
   2 -12  12 1040.90   83.69
  12  -2  12 1032.60   91.79
  12 -12   2 1010.90   85.59
  12 -12  -2 1000.60   85.69
   2  12  12 1009.60   97.29
  12   2  12  953.70   92.09
  12  12   2  980.90   92.29
 -12   4  12  144.09   26.10
 -12  12   4  123.29   25.70
  -4  12  12   99.09   31.50
   4 -12  12  132.89   19.00
  12  -4  12  166.98   23.60
  12  -4  12  139.69   29.90
  12 -12   4  164.28   23.40
  12  -4 -12  102.39   14.70
   4  12  12  126.89   37.00
  12 -12  -4   79.29   19.40
  12   4  12   55.99   27.00
  12  12   4   72.99   27.80
 -12   6  12  849.12   72.59
 -12  12   6  839.92   72.59
  -6  12  12  819.22   79.49
   6 -12  12  852.21   66.09
  12  -6  12  873.61   68.09
  12 -12   6  862.11   68.19
  12  -6 -12  618.54   63.69
   6  12  12  599.04   79.39
  12   6  12  644.14   75.59
  12  12   6  626.04   74.99
 -12   8  12   23.60   24.70
 -12  12   8   23.70   23.70
  -8  12  12   25.10   31.30
   8 -12  12   44.20   18.40
  12  -8  12   30.10   18.70
  12 -12   8   14.60   18.10
  12 -12  -8   18.80   16.90
  12  -8 -12   10.80   14.20
   8  12  12   29.30   29.90
  12   8  12   -7.00   30.00
  12  12   8   36.10   29.90
 -12  10  12 2402.36  195.78
 -12  12  10 2379.66  195.48
 -10  12  12 2510.35  197.58
  10 -12  12 2260.97  190.18
  12 -10  12 2385.66  190.68
  12 -12  10 2270.17  190.38
  12 -12 -10 2366.86  189.78
  12 -10 -12 2323.67  189.18
  10  12  12 2349.96  199.68
  12  10  12 2346.67  197.98
  12  12  10 2356.66  198.28
 -12  12  12 1620.24  136.59
  12 -12  12 1516.05  129.29
   1   0  13  656.53   66.09
  -1   0  13  664.13   65.99
   0 -13  -1  643.74   57.19
   0 -13   1  666.23   56.69
  13  -1   0  665.53   56.99
  13  -3   0 2172.38  169.28
   0 -13   3 2015.10  168.68
   3   0  13 2125.59  174.98
  -3   0  13 2134.99  174.78
   0 -13   5    9.20   12.20
  13  -5   0   12.70   13.70
  -5   0  13   16.10   23.70
   5   0  13   38.70   26.90
  13   5   0    6.20   10.20
  -7   0  13 1465.15  126.99
  13  -7   0 1489.05  121.79
  13   7   0 1482.75  122.39
   0 -13   7 1526.65  120.69
 -13   7   0 1444.76  120.19
   0  13   7 1554.24  130.39
   7   0  13 1513.95  128.69
   9   0  13    6.40   23.50
  13  -9   0   16.60   16.70
  13   9   0    5.20   18.40
   0  13   9   17.60   28.90
   0 -13   9   19.60   12.40
  -9   0  13   14.90   24.50
   0  13  11   17.40   33.40
  11   0  13   13.80   27.00
   0 -13  11   16.30   12.40
 -11   0  13   27.20   22.40
  13 -11   0   48.10   18.80
   0   1  13  666.53   64.19
   0  -1  13  651.73   64.39
  13   0  -1  617.54   54.69
   1 -13   0  629.54   54.99
   2  -1  13  655.63   71.29
  13  -2   1  625.24   61.59
  -2   1  13  625.44   70.39
   1 -13   2  640.84   61.39
  13  -2  -1  760.62   61.39
   1 -13  -2  799.62   61.99
  -2  -1  13  811.52   70.89
   2   1  13  805.62   71.99
  -1 -13   2  778.82   61.49
   4  -1  13  211.48   32.90
   1 -13   4  192.68   24.20
  13   4  -1  180.28   18.50
  13  -4   1  174.08   25.60
  -4   1  13  211.38   33.30
  -1  13   6  228.08   35.50
   6  -1  13  207.38   32.10
  13  -6   1  230.78   27.00
  13   6  -1  241.88   25.50
  -6   1  13  268.27   34.50
   1 -13   6  228.88   25.30
  -1 -13   6  149.59   23.70
  -6  -1  13  224.18   34.40
   6   1  13  167.48   32.30
   1  13   6  175.08   34.70
  13   6   1  161.88   22.60
  13  -6  -1  140.29   22.30
   1 -13   8  739.53   65.69
   8  -1  13  711.63   75.79
  13  -8   1  707.13   67.19
 -13   8   1  698.83   65.49
  -8   1  13  751.62   73.49
  -1  13   8  786.62   78.89
  -8  -1  13  800.22   74.29
  13  -8  -1  800.92   66.89
   1  13   8  883.91   79.89
   8   1  13  850.61   76.59
  13   8   1  838.32   69.39
  -1 -13   8  839.52   65.29
  -1  13  10  276.77   42.20
  13 -10   1  232.28   32.50
 -10   1  13  282.77   40.90
  10  -1  13  305.37   40.60
 -13  10   1  244.08   33.10
   1 -13  10  234.08   29.60
  -1 -13  10  288.07   28.40
  13 -10  -1  313.47   33.30
 -10  -1  13  322.67   41.70
   1  13  10  229.88   40.30
  10   1  13  313.67   45.80
  13  10   1  308.07   39.30
  13 -12   1  388.76   38.70
   1 -13  12  426.66   35.20
  -1  13  12  512.15   57.89
 -12   1  13  417.06   45.70
  12  -1  13  412.36   48.50
 -13  12   1  430.56   42.50
  12   1  13  281.87   41.90
  13 -12  -1  288.77   38.20
 -12  -1  13  312.47   45.30
   1  13  12  269.77   46.50
  13  12   1  295.97   47.00
  -1 -13  12  287.87   32.70
   2 -13   1  595.34   61.29
   1  -2  13  671.73   70.99
  -1   2  13  624.14   70.49
   2 -13  -1  783.62   61.89
  -1  -2  13  760.42   71.39
   1   2  13  806.12   71.99
  13  -1  -2  812.62   61.29
   2 -13   3  788.42   78.79
  13  -3   2  863.61   79.39
   3  -2  13  797.12   86.89
  -3   2  13  779.12   86.39
  13   3   2  962.60   76.79
   3   2  13 1050.19   87.99
  13  -3  -2 1119.19   78.99
   2 -13  -3 1087.79   79.69
  -3  -2  13 1084.79   87.69
  13  -5   2  117.99   18.80
  -2  13   5   98.59   28.80
   2 -13   5  125.09   17.00
  -5   2  13  101.29   26.70
   5  -2  13  159.58   31.40
   2  13   5   83.99   31.00
  -2 -13   5   98.79   16.70
  -5  -2  13   83.49   25.80
  13  -5  -2  105.59   17.80
   5   2  13   75.29   27.40
  13   5   2   91.59   16.60
   2 -13   7 1137.69  102.19
  13  -7   2 1142.09  103.49
  -2  13   7 1285.17  111.59
  -7   2  13 1134.39  108.69
 -13   7   2 1119.59  101.29
   7  -2  13 1144.99  110.39
   2  13   7 1442.96  112.79
  13   7   2 1365.06  104.89
  13  -7  -2 1277.17  102.99
  -7  -2  13 1380.56  109.79
   7   2  13 1429.06  110.99
  -2 -13   7 1325.77  101.89
   9  -2  13  201.98   32.30
  -9   2  13  223.18   31.30
  13  -9   2  213.18   27.90
 -13   9   2  192.08   24.40
  -2  13   9  156.78   33.00
  -2 -13   9  106.69   17.10
   2  13   9  130.49   35.20
  -9  -2  13  120.39   29.20
  13  -9  -2  114.29   20.90
  13   9   2  108.49   24.80
   9   2  13   94.29   31.00
  -2  13  11  693.73   69.89
  11  -2  13  632.34   63.59
 -13  11   2  646.64   55.89
 -11   2  13  666.03   60.99
  13 -11   2  695.23   54.79
   2 -13  11  675.93   51.99
  13  11   2  517.15   59.99
  11   2  13  455.45   62.79
   2  13  11  438.56   68.19
 -11  -2  13  465.35   59.99
  13 -11  -2  480.55   53.29
   0  -3  13 2028.20  165.28
   0   3  13 2151.28  173.08
   0  -3  13 2095.79  172.98
   3 -13   0 2069.79  166.88
  13   0  -3 2084.19  166.38
   3 -13   2  820.12   76.39
   2  -3  13  790.42   74.39
  -2   3  13  771.82   84.29
  13  -2   3  806.52   76.69
   2  -3  13  814.72   84.49
   2   3  13 1064.79   86.39
  13  -2  -3 1050.49   75.99
  -2  -3  13 1019.20   84.69
   3 -13  -2 1057.29   76.99
  13   2   3  987.30   74.19
   4  -3  13  577.14   49.90
  -4   3  13  588.74   61.19
  13  -4   3  586.84   52.79
   3 -13   4  568.94   51.49
   4  -3  13  561.94   62.29
  13  -4  -3  598.54   50.99
   4   3  13  633.44   63.19
  13   4   3  559.74   50.49
  -4  -3  13  579.64   60.79
   3 -13  -4  584.94   52.19
  13  -6   3  934.41   84.79
  -6   3  13  932.31   91.29
   6  -3  13  974.70   92.29
   3 -13   6  928.51   83.99
  -3  13   6  945.31   92.99
 -13   6   3  897.91   81.49
   6   3  13 1101.69   92.99
  -6  -3  13 1158.88   91.89
  13   6   3 1113.69   85.79
   3  13   6 1238.18   95.59
  13  -6  -3 1071.59   84.09
 -13   8   3  456.35   43.90
   3 -13   8  490.35   44.60
   8  -3  13  506.95   57.09
  13  -8   3  455.25   46.10
  -3  13   8  489.45   59.49
  -8   3  13  469.15   54.99
   3  13   8  544.05   60.59
  13  -8  -3  470.15   44.90
  -8  -3  13  492.85   54.49
   8   3  13  508.35   57.19
  13   8   3  507.45   49.80
  13 -10   3 1124.79   91.29
 -10   3  13 1126.09   96.99
  10  -3  13 1113.69   91.39
   3 -13  10 1100.39   89.89
 -13  10   3 1022.90   91.79
  10  -3  13 1051.79   97.99
  -3  13  10 1126.39  101.99
  13  10   3 1082.69   95.49
   3  13  10 1110.99  102.59
  13 -10  -3 1019.10   90.79
  10   3  13 1109.09   99.09
 -10  -3  13 1107.19   96.89
  -3  13  12 1210.88  105.39
  12  -3  13 1065.79   99.29
 -12   3  13 1126.69   97.69
  12  -3  13 1205.28   94.29
  13 -12   3 1072.49   93.79
   3 -13  12 1150.18   91.59
 -13  12   3 1082.79   95.79
  13 -12  -3 1072.09   93.29
   3  13  12 1088.79  106.29
  13  12   3 1102.19   99.69
  12   3  13 1030.90  100.69
   4 -13   1  174.98   26.30
  13   1  -4  203.38   23.10
  -1   4  13  192.28   33.60
   1  -4  13  234.18   36.30
   1  -4  13  200.98   20.10
  -3   4  13  606.94   62.89
   3  -4  13  546.85   62.99
   3  -4  13  568.24   49.60
  13  -3   4  607.44   53.09
   4 -13   3  628.44   52.19
   3   4  13  612.34   62.89
  13  -3  -4  597.44   50.69
  13   3   4  546.15   50.69
  -3  -4  13  579.44   61.39
   4 -13  -3  582.64   52.29
   5  -4  13  765.92   87.59
  13  -5   4  850.31   79.59
   4 -13   5  789.62   78.79
  -4  13   5  831.32   88.09
   5  -4  13  809.72   77.69
  -5   4  13  850.91   87.09
   4 -13  -5 1060.99   79.49
  -5  -4  13 1050.89   86.99
  13   5   4 1087.09   80.59
  13  -5  -4 1086.99   78.79
   5   4  13 1061.79   88.89
   4  13   5 1165.78   90.19
  -4  13   7 2264.57  189.68
  13  -7   4 2146.79  183.28
   7  -4  13 2188.08  182.58
   7  -4  13 2190.88  188.78
 -13   7   4 2079.09  182.08
  -7   4  13 2100.59  187.88
   4 -13   7 2172.68  182.58
  -7  -4  13 2537.85  188.78
   4  13   7 2616.84  191.18
   7   4  13 2250.37  188.88
  13   7   4 2505.05  185.38
  13  -7  -4 2400.16  182.68
   9  -4  13  232.38   31.60
 -13   9   4  229.38   31.20
   4 -13   9  242.58   30.20
  -9   4  13  246.68   36.30
  13  -9   4  238.48   32.60
  -4  13   9  304.97   44.20
   9  -4  13  284.87   39.10
   9   4  13  345.17   47.00
  13   9   4  327.77   39.30
  13  -9  -4  286.67   31.50
   4  13   9  292.37   41.20
   4 -13  11  921.71   73.09
  11  -4  13  877.51   82.39
  13 -11   4  907.21   74.99
 -13  11   4  874.51   76.39
 -11   4  13  886.81   80.29
  -4  13  11  910.71   86.79
  11  -4  13  909.71   74.69
   4  13  11  807.02   87.49
  13  11   4  803.12   80.09
  13 -11  -4  757.42   73.79
  11   4  13  776.12   82.49
  13   0  -5   19.10   10.80
  13   0   5   13.80   10.70
   0   5  13    5.60   24.50
   5 -13   0   24.70   14.30
   0  -5  13   34.40   27.00
   0  -5  13   18.30    7.60
   2  -5  13  128.29   14.00
   2  -5  13  101.99   28.10
  -2   5  13  118.19   29.30
  13   2  -5  122.69   14.80
   5 -13   2  115.29   18.70
  -2  -5  13   59.09   26.50
   2   5  13   80.69   28.70
   5 -13  -2  101.89   18.70
  13   2   5   92.49   16.60
  13  -2  -5   85.19   15.00
   4  -5  13  759.12   86.39
  -4   5  13  804.02   86.59
  13  -4   5  833.02   79.19
   4  -5  13  821.32   76.79
   5 -13   4  757.22   78.19
  13  -4  -5 1074.29   77.59
  13   4   5 1062.09   79.59
  -4  -5  13 1109.09   87.19
   4   5  13 1158.38   89.29
   5 -13  -4 1046.60   78.69
   6  -5  13  459.15   44.60
   5 -13   6  444.36   45.70
  -6   5  13  473.65   56.59
 -13   6   5  444.86   42.90
   6  -5  13  429.86   56.39
  13  -6   5  436.96   46.90
  -5  13   6  422.06   57.29
  -6  -5  13  561.54   57.49
  13  -6  -5  553.84   44.80
  13   6   5  577.54   49.50
   6   5  13  564.74   58.99
   5 -13  -6  541.35   46.30
   5  13   6  612.54   61.09
  -5  13   8  476.25   56.79
  13  -8   5  480.95   44.80
  -8   5  13  460.45   54.29
   5 -13   8  454.55   42.60
 -13   8   5  466.75   42.50
   8  -5  13  503.65   42.90
   8  -5  13  451.55   54.89
   8   5  13  407.76   55.39
   5  13   8  380.06   56.69
  13   8   5  400.86   48.40
  13  -8  -5  389.26   42.20
 -10   5  13   39.80   25.30
   5 -13  10    9.60   15.20
  10  -5  13    4.30   15.70
 -13  10   5   12.60   16.70
  -5  13  10   -0.50   31.30
  10  -5  13    9.10   25.10
  13 -10   5    8.00   17.50
  13  10   5   12.00   22.60
   5  13  10   -1.20   29.60
  13 -10  -5   11.70   15.70
  10   5  13    2.00   25.70
 -13  12   5  356.26   44.70
  13 -12   5  402.86   42.30
  -5  13  12  435.06   53.49
 -12   5  13  385.46   47.90
   5 -13  12  420.56   38.90
  12  -5  13  383.36   41.70
  12   5  13  352.66   53.39
   5  13  12  330.77   50.19
  13  12   5  401.36   51.39
  13 -12  -5  329.67   40.10
  13   1  -6  252.67   22.30
  -1   6  13  286.57   38.20
   1  -6  13  249.48   36.80
   1  -6  13  208.28   21.00
   6 -13   1  223.18   27.70
  13  -1   6  229.58   25.60
  -1  -6  13  152.28   34.90
   1   6  13  149.39   33.90
  13  -1  -6  155.28   22.80
  13   1   6  158.38   25.90
   6 -13  -1  200.28   24.90
  -3   6  13  948.91   92.89
   6 -13   3  934.61   84.69
   3  -6  13  816.82   92.89
  13   3  -6  952.60   82.69
  13  -3   6  974.50   85.89
   3  -6  13  941.11   82.99
   6 -13  -3 1122.69   85.39
  -3  -6  13 1234.28   94.59
  13  -3  -6 1129.09   83.59
   3   6  13 1114.19   93.59
  13   3   6 1094.89   86.19
  -6  13   5  461.35   57.09
   5  -6  13  463.35   58.19
  -5   6  13  435.16   57.19
   5  -6  13  433.86   43.90
  13  -5   6  463.25   47.40
 -13   5   6  445.66   42.90
   6 -13   5  421.76   46.00
  13   5   6  556.44   49.10
   6 -13  -5  557.64   46.20
  13  -5  -6  565.64   44.30
   5   6  13  646.84   59.99
   6  13   5  598.64   60.49
  -7   6  13  789.22   74.19
 -13   7   6  767.92   63.89
   7  -6  13  777.12   63.69
  -6  13   7  737.83   74.39
  13  -7   6  767.52   64.99
   6 -13   7  762.32   64.39
   7  -6  13  790.32   75.29
   7   6  13  675.13   74.49
  13   7   6  726.33   68.59
  13  -7  -6  691.53   63.29
   6 -13  -7  686.73   64.49
   6  13   7  724.73   76.39
 -13   9   6  204.78   24.90
  -9   6  13  198.88   34.30
  -6  13   9  186.08   34.90
   9  -6  13  207.78   27.40
   6 -13   9  205.28   27.30
  13  -9   6  202.38   25.20
   6  13   9   98.99   33.80
   9   6  13  100.39   31.70
  13   9   6  113.49   28.10
  13  -9  -6  149.69   22.00
  -6  13  11  257.67   41.70
 -11   6  13  247.08   34.30
  13 -11   6  173.68   25.00
  11  -6  13  186.38   24.60
 -13  11   6  208.78   28.30
   6 -13  11  205.08   28.10
  13  11   6  139.19   31.70
  13 -11  -6  133.19   23.10
   6  13  11  191.08   42.40
  11   6  13  133.99   34.70
   0  -7  13 1423.26  116.69
   7 -13   0 1466.65  119.29
  13   0  -7 1537.55  117.39
  13   0   7 1434.76  119.99
   0   7  13 1429.36  126.69
   0  -7  13 1482.15  126.39
   2  -7  13 1150.18  109.09
   2  -7  13 1102.89   98.59
  13   2  -7 1108.59   98.29
  -2   7  13 1175.58  108.79
   7 -13   2 1078.19  100.39
  13  -2  -7 1364.66   99.09
  13   2   7 1339.67  102.39
   7 -13  -2 1374.26  101.19
   2   7  13 1365.76  109.59
   7 -13   4 2083.09  182.58
  13   4  -7 2218.48  180.88
   4  -7  13 2198.28  181.68
  13  -4   7 2174.78  183.28
  -4   7  13 2139.29  188.88
   4  -7  13 2181.38  189.08
 -13   4   7 2081.19  181.78
   7 -13  -4 2496.05  182.98
   4   7  13 2524.65  189.48
   7  13   4 2250.67  189.18
  13   4   7 2455.45  184.98
  13  -4  -7 2528.95  181.68
  -6   7  13  702.63   73.49
  -7  13   6  773.82   73.49
   7 -13   6  766.02   63.79
  13  -6   7  785.92   64.99
   6  -7  13  794.12   62.39
 -13   6   7  743.93   62.79
   7 -13  -6  680.73   63.39
   7  13   6  725.63   74.99
  13  -6  -7  658.13   61.89
  13   6   7  675.63   67.19
   6   7  13  717.13   73.79
  -8   7  13  541.95   63.99
  -7  13   8  579.94   65.19
  13  -8   7  638.04   55.59
   7 -13   8  596.44   53.99
   8  -7  13  595.04   53.59
 -13   8   7  581.64   54.79
  13  -8  -7  593.94   52.69
   7 -13  -8  591.34   54.39
   7  13   8  619.64   66.99
  13   8   7  583.54   60.99
   8   7  13  626.24   66.79
  10  -7  13   52.79   18.10
  -7  13  10   29.40   30.40
   7 -13  10   43.30   17.70
  13 -10   7   63.39   20.70
 -10   7  13   54.89   27.80
 -13  10   7   30.00   19.20
  10   7  13   70.39   32.00
  13 -10  -7   19.30   16.30
   7  13  10   43.20   33.20
  13  10   7   37.90   25.20
 -13  12   7  108.59   25.60
  -7  13  12  128.49   37.70
  13 -12   7   77.29   21.40
   7 -13  12  108.09   20.20
 -12   7  13  118.39   28.00
  12  -7  13   68.19   20.30
  13  12   7  103.19   31.30
  13 -12  -7  144.99   22.20
   7  13  12   71.29   33.60
  12   7  13  118.99   31.90
   8 -13   1  669.43   64.79
   1  -8  13  692.33   61.59
  13   1  -8  711.83   61.39
  -1   8  13  699.53   76.19
  13  -1   8  681.53   66.09
   1   8  13  822.52   75.99
  13   1   8  811.72   67.29
  13  -1  -8  794.12   61.89
  -1  -8  13  793.82   60.79
   8 -13  -1  847.42   65.29
 -13   3   8  453.15   42.90
  -3   8  13  489.45   57.59
  13   3  -8  464.15   40.10
  13  -3   8  452.85   46.40
   8 -13   3  465.55   45.60
   3  -8  13  464.45   42.20
  13  -3  -8  485.05   41.80
   8 -13  -3  504.95   45.20
   3   8  13  547.95   59.89
  13   3   8  477.35   48.40
   5  -8  13  509.75   42.20
  13   5  -8  476.75   38.60
   8 -13   5  483.25   44.40
  -8  13   5  467.55   54.59
 -13   5   8  481.75   43.00
  13  -5   8  489.55   45.50
  -5   8  13  514.65   57.29
  13   5   8  428.56   48.50
   8 -13  -5  410.86   44.00
  13  -5  -8  379.36   40.90
   8  13   5  368.06   56.09
   5   8  13  419.56   57.99
  13  -7   8  634.74   55.49
  -8  13   7  543.75   64.19
   7  -8  13  620.84   53.69
 -13   7   8  574.14   54.89
  -7   8  13  591.14   65.39
   8 -13   7  579.54   54.09
   8 -13  -7  599.64   54.19
   7   8  13  635.44   66.19
   8  13   7  628.34   66.69
  13  -7  -8  574.04   52.29
  13   7   8  585.84   60.29
  -9   8  13  397.46   50.09
  -8  13   9  410.46   51.99
   9  -8  13  373.16   37.50
   8 -13   9  398.86   37.90
 -13   9   8  365.06   39.90
  13  -9   8  386.36   40.10
   8 -13  -9  298.37   37.40
  13   9   8  327.57   47.60
  13  -9  -8  329.27   36.10
   9   8  13  251.57   43.60
   8  13   9  239.48   43.70
  13 -11   8  661.33   55.89
  11  -8  13  639.44   54.49
 -11   8  13  660.23   64.89
   8 -13  11  578.54   53.79
  -8  13  11  652.33   67.79
 -13  11   8  571.64   58.39
   8  13  11  546.45   68.99
  11   8  13  512.35   66.89
  13 -11  -8  492.05   53.19
  13  11   8  465.45   63.99
  13   0  -9   17.30    9.20
   0   9  13   27.90   28.30
   9 -13   0   16.00   15.40
  13   0   9   18.60   18.60
   0  -9  13   19.90    8.70
   2  -9  13  178.88   20.40
  13  -2   9  193.08   25.70
   9 -13   2  211.18   24.20
 -13   2   9  192.48   23.80
  -2   9  13  158.88   34.10
   9 -13  -2  131.69   22.40
  13   2   9  106.39   24.50
   2   9  13  108.09   33.00
  13  -2  -9  122.79   16.90
  13  -4   9  222.38   33.90
   9 -13   4  224.18   32.10
  -4   9  13  235.18   39.40
   4  -9  13  240.28   28.70
 -13   4   9  219.98   30.30
  -9  13   4  244.88   35.90
   9  13   4  357.16   43.40
   4   9  13  252.37   39.60
   9 -13  -4  324.87   32.50
  13   4   9  311.47   38.30
  13  -4  -9  301.37   27.30
   6  -9  13  190.48   25.70
  -9  13   6  159.38   31.50
  13  -6   9  175.38   24.40
 -13   6   9  194.88   24.60
   9 -13   6  169.28   23.00
  -6   9  13  209.68   34.60
   9  13   6  145.99   34.10
  13  -6  -9  155.98   23.00
   6   9  13  144.59   34.30
   9 -13  -6  145.49   23.70
  13   6   9  171.48   30.20
   9 -13   8  356.86   38.60
  13  -8   9  387.76   40.40
 -13   8   9  376.36   41.10
   8  -9  13  401.16   38.00
  -8   9  13  379.16   52.49
  -9  13   8  386.96   50.79
  13  -8  -9  316.07   35.90
   9  13   8  353.36   48.60
  13   8   9  329.17   47.50
   9 -13  -8  296.27   37.70
   8   9  13  403.46   51.49
  -9  13  10  525.65   67.99
   9 -13  10  608.14   57.59
 -13  10   9  592.54   61.29
  13 -10   9  641.04   59.29
 -10   9  13  603.34   68.39
  10  -9  13  609.54   57.99
  13  10   9  707.73   68.59
   9 -13 -10  680.43   57.49
   9  13  10  693.13   72.99
  10   9  13  681.13   72.39
  13 -10  -9  626.04   56.59
  13 -12   9  354.06   44.20
 -13  12   9  387.76   49.10
   9 -13  12  430.56   43.30
 -12   9  13  429.56   54.29
  -9  13  12  441.36   59.09
  12  -9  13  416.06   44.80
  13 -12  -9  421.86   42.70
  13  12   9  397.36   57.49
  12   9  13  424.66   58.99
   9  13  12  341.17   51.69
  10 -13   1  259.67   32.90
  -1  10  13  233.28   39.90
 -13   1  10  256.47   31.60
   1 -10  13  233.88   26.40
  13  -1  10  291.07   35.00
  -1 -10  13  263.07   25.00
  13   1  10  300.57   38.50
  13  -1 -10  267.87   25.10
  10 -13  -1  304.27   33.10
   1  10  13  326.87   45.20
 -13   3  10 1028.60   88.69
  13  -3  10 1065.89   88.89
   3 -10  13 1043.80   86.09
 -10  13   3 1049.00   94.19
  10 -13   3 1044.00   88.19
  13  -3  10 1040.60   91.49
  -3  10  13 1090.49   98.99
  10 -13  -3 1104.09   88.29
  13  -3 -10 1033.60   85.19
  13   3  10 1036.80   92.69
   3  10  13 1021.30   98.19
  10  13   3 1026.90   96.59
  -5  10  13    5.90   27.80
 -13   5  10   21.80   17.10
 -10  13   5    5.70   24.50
   5 -10  13   27.30   14.70
  13  -5  10    9.10   18.70
  10 -13   5   24.50   18.20
  13  -5 -10    2.30   12.00
  10 -13  -5   26.80   16.30
   5  10  13   35.50   31.30
  13   5  10   19.30   23.20
  10  13   5    5.90   26.60
  13  -7  10   51.99   20.70
 -13   7  10   35.20   19.30
 -10  13   7   56.89   26.80
   7 -10  13   47.90   15.90
  10 -13   7   61.09   19.20
  -7  10  13   62.89   30.10
  13   7  10   16.40   24.40
  13  -7 -10   34.80   14.60
  10  13   7   58.39   28.60
  10 -13  -7   30.00   16.80
   7  10  13   45.70   34.40
  10 -13   9  572.24   57.69
 -10  13   9  606.84   67.49
  -9  10  13  603.04   69.09
  13  -9  10  627.24   59.29
   9 -10  13  602.34   57.09
 -13   9  10  560.74   61.29
  10 -13  -9  644.34   56.89
  13   9  10  699.83   67.79
   9  10  13  670.23   72.29
  10  13   9  700.33   71.39
  13  -9 -10  656.33   55.89
 -11  10  13  526.75   63.89
 -13  11  10  487.85   58.29
  10 -13  11  530.35   52.79
  11 -10  13  505.75   52.79
 -10  13  11  539.95   64.89
  13 -11  10  580.14   54.59
  13 -11 -10  575.04   51.59
  10  13  11  575.54   69.09
  11  10  13  590.34   68.69
  13  11  10  586.74   65.79
  13   0  11   17.40   22.40
   0 -11  13   31.80   10.70
   0  11  13   32.60   33.20
  11 -13   0   21.90   18.80
 -13   2  11  637.44   54.39
  13  -2  11  650.83   58.39
   2 -11  13  663.03   49.50
  -2  11  13  705.33   68.69
  11 -13   2  682.73   52.99
   2  11  13  476.05   67.49
  11  13   2  477.15   62.39
  13   2  11  455.85   58.39
  11 -13  -2  492.25   52.39
  13  -2 -11  460.85   47.10
  13  -4  11  864.81   72.99
   4 -11  13  885.31   70.09
  -4  11  13  869.21   83.89
 -11  13   4  862.91   78.19
  11 -13   4  872.11   72.49
 -13   4  11  892.21   74.09
  13   4  11  700.03   77.79
  13  -4 -11  780.82   68.49
   4  11  13  791.12   85.09
  11 -13  -4  784.42   71.89
  11  13   4  818.32   81.09
   6 -11  13  197.48   27.00
  13  -6  11  237.38   31.30
 -13   6  11  222.18   28.70
 -11  13   6  248.98   34.20
  11 -13   6  186.08   25.00
  -6  11  13  192.48   36.10
  13  -6 -11  166.38   20.90
  11  13   6  118.49   33.20
  13   6  11  140.09   32.30
   6  11  13  141.59   37.30
  11 -13  -6  176.08   26.00
   8 -11  13  614.84   52.49
 -11  13   8  658.93   62.89
  11 -13   8  621.24   53.99
  -8  11  13  641.04   67.19
 -13   8  11  583.34   57.69
  13  -8  11  623.64   54.09
  11 -13  -8  473.15   52.29
   8  11  13  466.65   67.99
  13   8  11  494.65   63.99
  13  -8 -11  497.95   49.80
  11  13   8  487.25   65.29
  13 -10  11  524.55   54.39
  10 -11  13  552.44   52.79
 -13  10  11  482.85   57.99
 -11  13  10  479.15   62.79
 -10  11  13  518.95   65.29
  11 -13  10  518.55   53.29
  13  10  11  566.44   65.49
  11  13  10  627.24   68.79
  13 -10 -11  605.04   50.99
  10  11  13  605.64   69.89
  11 -13 -10  565.04   52.29
 -13  12  11  440.26   55.89
 -11  13  12  469.55   60.69
 -12  11  13  480.15   59.39
  12 -11  13  491.85   49.30
  13 -12  11  468.75   49.60
  11 -13  12  436.16   48.10
  13 -12 -11  473.55   46.50
  12  11  13  467.25   65.59
  13  12  11  420.46   64.79
  11  13  12  468.55   66.79
  -1  12  13  440.56   56.59
  13  -1  12  416.26   47.30
   1 -12  13  378.46   33.90
 -13   1  12  412.46   41.40
  12 -13   1  410.46   39.10
  12 -13  -1  292.27   39.10
  13   1  12  328.67   47.30
  -1 -12  13  276.77   31.90
   1  12  13  375.66   52.49
  13  -3  12 1184.68   93.29
 -12  13   3 1080.39   96.59
   3 -12  13 1140.89   90.29
  -3  12  13 1135.39  103.79
  12 -13   3 1080.69   92.19
 -13   3  12 1117.39   94.59
  13  -3  12 1076.39   97.59
  12  13   3 1035.50   99.79
  13  -3 -12 1102.09   88.39
  13   3  12 1020.40   98.29
  12 -13  -3 1083.39   91.99
   3  12  13 1040.00  103.29
 -13   5  12  377.56   44.30
  12 -13   5  365.06   40.90
  13  -5  12  397.66   42.10
 -12  13   5  374.06   46.70
  -5  12  13  415.46   52.39
   5 -12  13  415.66   38.30
   5  12  13  358.66   51.49
  13  -5 -12  349.07   35.20
  12  13   5  378.26   52.59
  12 -13  -5  355.26   40.70
  13   5  12  370.86   50.89
   7 -12  13   92.79   19.30
  12 -13   7   99.69   21.60
 -13   7  12  113.99   25.90
 -12  13   7  146.99   30.00
  13  -7  12   95.09   22.20
  -7  12  13   67.89   35.70
  13   7  12   73.39   30.20
   7  12  13  128.09   39.30
  12 -13  -7  134.39   22.60
  13  -7 -12  130.59   18.10
  12  13   7  122.19   34.30
  12 -13   9  471.85   45.30
  13  -9  12  418.26   46.10
 -12  13   9  413.66   53.59
  -9  12  13  432.26   59.19
   9 -12  13  421.36   43.50
 -13   9  12  387.76   50.89
  12  13   9  383.36   58.59
  13  -9 -12  392.86   40.90
  13   9  12  387.36   59.19
   9  12  13  422.16   57.19
  12 -13  -9  392.96   43.10
  12 -13  11  489.05   49.70
  11 -12  13  472.15   49.10
  13 -11  12  521.95   50.39
 -13  11  12  497.15   56.99
 -12  13  11  443.06   59.59
 -11  12  13  455.15   61.19
  13 -11 -12  466.15   46.70
  11  12  13  381.86   57.59
  12 -13 -11  485.45   47.70
  13  11  12  503.15   64.29
  12  13  11  470.75   60.79
 -13   0  13 1624.94  136.29
   0 -13  13 1592.84  130.69
   0  13  13 1690.63  143.69
  13 -13   0 1631.84  133.29
  13   0  13 1609.34  138.89
 -13   2  13  144.19   27.50
 -13  13   2  146.09   27.50
  -2  13  13  165.88   37.20
   2 -13  13  142.29   19.70
  13  -2  13  123.59   29.70
  13 -13   2  114.29   22.90
   2  13  13  225.18   39.00
  13   2  13  241.28   33.80
 -13   4  13  230.58   31.30
 -13  13   4  220.58   30.80
  -4  13  13  248.08   44.20
   4 -13  13  197.58   26.70
  13  -4  13  186.28   26.30
  13 -13   4  231.08   27.80
   4  13  13   85.99   36.80
  13   4  13  137.99   34.40
  13  13   4  105.19   33.50
 -13   6  13  128.49   27.10
 -13  13   6  133.69   27.60
  -6  13  13  126.09   34.50
   6 -13  13  162.68   22.00
  13  -6  13  128.09   23.80
  13 -13   6  136.19   23.20
  13 -13  -6   80.69   22.30
   6  13  13   49.90   37.40
  13   6  13   59.49   31.60
  13  13   6   35.40   30.10
 -13   8  13  380.46   49.70
 -13  13   8  358.66   49.00
  -8  13  13  407.56   59.49
   8 -13  13  382.46   40.90
  13  -8  13  392.26   44.10
  13 -13   8  364.36   44.20
  13 -13  -8  416.76   42.40
   8  13  13  351.76   52.49
  13   8  13  429.76   57.79
  13  13   8  429.06   57.79
 -13  10  13  132.79   32.20
 -13  13  10  140.99   31.20
 -10  13  13  174.38   39.00
  10 -13  13  121.29   23.30
  13 -10  13  147.79   25.40
  13 -13  10  155.78   26.40
  10  13  13   65.49   41.40
  13  10  13   51.49   37.40
  13  13  10   23.00   34.90
 -13  12  13 1043.60   98.39
 -13  13  12 1046.00   97.89
 -12  13  13 1132.79  100.89
  12 -13  13 1084.49   90.29
  13 -12  13 1011.40   90.29
  13 -13  12 1058.89   90.79
  12  13  13  935.11  104.69
  13  12  13  989.90  104.09
  13  13  12  973.00  103.79
   0 -14   0 1062.79   88.59
   0   0  14 1089.69   97.49
   0 -14   2  213.88   27.30
   2   0  14  229.78   35.60
  14  -2   0  211.98   27.90
  -2   0  14  233.88   35.00
   0 -14   4  142.39   20.20
   4   0  14  177.88   35.40
  -4   0  14  170.58   33.50
  14  -4   0  194.18   22.70
   0  14   6  836.62   80.89
  -6   0  14  830.72   77.09
   0 -14   6  780.32   67.09
  14   6   0  771.52   66.99
  14  -6   0  769.42   68.39
   6   0  14  834.82   78.79
   0 -14   8  102.59   17.40
  14  -8   0  105.79   20.10
  14   8   0   96.09   19.90
   8   0  14  100.69   31.40
  -8   0  14   93.19   27.90
 -14   8   0  107.39   15.20
   0  14   8   81.89   33.50
 -14  10   0   67.29   17.20
  14 -10   0   62.19   18.70
  14  10   0   89.69   22.80
 -10   0  14  101.89   29.00
   0 -14  10   76.59   15.70
  10   0  14   76.59   29.80
   0  14  10   69.59   32.40
  12   0  14   80.49   29.50
 -12   0  14  130.59   28.90
   0  14  12  140.19   41.10
  14  12   0  112.99   29.30
   0 -14  12  128.49   17.70
  14 -12   0  150.18   23.80
   1  -1  14 2318.47  206.88
   1 -14   1 2234.98  201.18
  -1   1  14 2389.16  207.28
  14  -1   1 2346.67  201.58
   1   1  14 2763.52  207.98
  14  -1  -1 2683.53  201.48
   1 -14  -1 2733.43  201.78
  -1  -1  14 2725.53  207.58
  14  -3   1   42.60   16.60
   1 -14   3   38.10   15.10
  -3   1  14   29.50   25.90
   3  -1  14   54.59   26.60
  -1 -14   3   17.30   14.00
   3   1  14   -7.40   25.40
  -3  -1  14   26.90   25.50
  14  -3  -1   13.60   15.20
  14   5  -1 1385.16  116.89
   1 -14   5 1401.96  118.39
  14  -5   1 1442.26  119.19
  -5   1  14 1410.56  125.49
   5  -1  14 1305.17  125.89
  14   5   1 1424.26  117.49
  14  -5  -1 1557.44  118.99
  -1 -14   5 1528.55  118.29
   5   1  14 1543.75  127.09
  -5  -1  14 1608.94  126.29
  -1  14   7   97.29   32.60
   7  -1  14  141.79   32.00
  -7   1  14  165.78   30.90
  14  -7   1  135.89   20.70
   1 -14   7  167.38   19.60
  14   7  -1  139.79   19.80
   1  14   7   85.19   32.20
  -1 -14   7   94.89   17.10
  14  -7  -1  100.29   19.70
  -7  -1  14  100.39   29.20
  14   7   1  113.59   20.00
 -14   7  -1  105.59   14.30
   7   1  14   92.29   31.00
   9  -1  14  507.55   55.49
   1 -14   9  491.95   40.30
 -14   9   1  447.06   40.10
  14  -9   1  465.45   43.70
  -1  14   9  501.75   60.89
  14   9  -1  512.35   45.70
  -9   1  14  474.35   53.49
   1  14   9  405.26   54.19
   9   1  14  382.46   54.99
  -9  -1  14  331.87   51.19
  14  -9  -1  359.46   42.80
  14   9   1  359.36   45.30
  -1 -14   9  336.67   39.20
 -14  11   1 1092.19   92.39
 -11   1  14 1074.09   97.79
   1 -14  11 1090.89   89.89
  -1  14  11 1163.78  105.39
  14 -11   1 1112.09   92.39
  11  -1  14 1056.89   99.79
  -1 -14  11 1104.89   89.49
  14  11   1 1090.29   96.59
  11   1  14 1056.59   99.99
 -11  -1  14 1025.90   97.19
  14 -11  -1 1103.09   92.09
   1  14  11 1139.29  105.09
 -13   1  14  626.74   60.39
 -14  13   1  631.44   57.79
   1 -14  13  643.04   51.49
  13  -1  14  627.44   65.69
  14 -13   1  658.53   55.29
  -1  14  13  681.23   72.29
  14 -13  -1  494.35   55.19
  -1 -14  13  488.25   50.19
  14  13   1  529.25   62.89
   1  14  13  517.65   72.09
  13   1  14  568.44   65.39
   0  -2  14  245.48   36.90
   0  -2  14  198.48   20.10
   0   2  14  243.08   37.60
  14   0  -2  194.48   25.60
   2 -14   0  213.58   27.70
  -2   2  14 2647.24  195.38
  14  -2   2 2563.64  189.18
   2  -2  14 2666.63  195.88
   2 -14   2 2586.64  188.88
   2   2  14 2157.18  194.18
   2 -14  -2 2113.49  188.58
  14  -2  -2 2072.39  188.28
  -2  -2  14 2095.29  194.18
   2 -14   4 1402.96  124.99
  -4   2  14 1457.55  132.29
  14  -4   2 1429.76  125.59
  14  -4  -2 1613.24  125.19
  -4  -2  14 1636.94  132.19
   2 -14  -4 1635.14  125.69
   4   2  14 1634.84  133.29
  14   4   2 1558.84  123.59
  -6   2  14  451.35   55.19
   2 -14   6  474.25   43.10
  14   6  -2  457.25   42.00
   6  -2  14  460.75   56.49
  -2  14   6  461.35   58.59
  14  -6   2  423.76   43.70
   2 -14   8  181.08   26.20
   8  -2  14  163.88   34.10
  14  -8   2  158.28   23.90
 -14   8   2  156.38   21.00
  -8   2  14  150.98   31.60
  -2  14   8  152.48   35.60
  14  -8  -2  236.08   28.40
   2  14   8  213.58   36.90
  14   8   2  266.47   31.50
   8   2  14  236.48   34.90
   2 -14  10   42.10   15.40
  14 -10   2   21.80   19.50
 -14  10   2   28.50   15.00
  10  -2  14   40.60   29.30
 -10   2  14   42.90   26.30
  -2  14  10   21.70   34.40
  14  10   2  103.09   24.40
   2  14  10   84.99   32.80
  14 -10  -2   95.39   19.90
  10   2  14   79.69   31.30
 -10  -2  14   67.09   26.10
 -14  12   2  539.65   52.79
  12  -2  14  564.54   62.39
  14 -12   2  577.04   52.79
 -12   2  14  569.94   59.29
  -2  14  12  630.24   70.59
   2 -14  12  558.04   49.20
  12   2  14  497.25   62.39
  14 -12  -2  481.45   51.89
  14  12   2  517.35   59.09
   2  14  12  492.95   69.79
   1  -3  14   49.80   28.90
  -1   3  14   30.30   27.70
  14   1  -3   39.20   12.90
   1  -3  14   45.10    9.40
   3 -14   1   45.70   15.70
   1   3  14   10.70   28.60
  -1  -3  14   19.20   27.40
   3 -14  -1   -3.10   14.80
  14  -1  -3   15.60   13.00
  -3   3  14  202.28   36.70
  14  -3   3  202.58   31.40
   3 -14   3  208.38   30.40
   3  -3  14  194.08   25.70
   3  -3  14  258.27   40.80
  14   3   3  287.77   24.30
  14  -3  -3  281.87   28.70
   3 -14  -3  293.67   31.20
   3   3  14  294.27   39.80
  -3  -3  14  320.37   39.90
  -5   3  14  847.42   85.69
   5  -3  14  817.82   87.19
  14  -5   3  807.32   77.89
   3 -14   5  815.02   77.09
  -3  14   5  872.71   88.59
   5  -3  14  810.52   76.09
   3 -14  -5 1007.70   78.29
   3  14   5 1025.10   88.89
   5   3  14 1029.40   87.59
  14   5   3  968.40   76.99
  14  -5  -3 1029.60   77.39
  -5  -3  14 1091.39   86.99
  -3  14   7  102.99   31.10
   3 -14   7  123.59   17.90
  -7   3  14  135.89   32.20
   7  -3  14   91.79   17.50
 -14   7   3   93.29   13.20
  14  -7   3  135.39   22.10
   7  -3  14  128.29   33.70
  14   7   3  104.09   20.40
   3  14   7   91.59   31.90
   7   3  14   84.19   29.60
  -7  -3  14   74.79   27.00
  14  -7  -3   74.69   17.70
  -9   3  14   62.79   26.10
   3 -14   9  103.89   18.00
  -3  14   9   60.89   34.30
   9  -3  14   87.19   18.70
   9  -3  14   79.19   31.90
 -14   9   3   85.99   15.80
  14  -9   3  114.49   21.40
  14   9   3  104.29   23.80
   3  14   9   89.19   32.40
  -9  -3  14   96.49   29.00
  14  -9  -3   79.29   18.30
   9   3  14   54.09   29.20
  -3  14  11   95.79   35.40
 -11   3  14   66.69   26.40
 -14  11   3   72.19   19.30
  11  -3  14   67.49   29.50
  11  -3  14   88.89   21.50
   3 -14  11   80.29   18.00
  14 -11   3   67.99   21.20
  14  11   3   92.99   26.40
   3  14  11   97.89   34.70
  14 -11  -3   91.99   19.40
  11   3  14   94.99   32.10
  -3  14  13  241.68   44.90
   3 -14  13  308.87   32.70
 -14  13   3  266.07   38.70
 -13   3  14  313.17   42.90
  14 -13   3  286.37   37.70
  13  -3  14  317.07   37.70
  13  -3  14  296.37   40.90
  13   3  14  303.17   43.00
   3  14  13  226.48   45.20
  14  13   3  311.17   42.10
  14 -13  -3  255.67   35.90
  14   0  -4  153.18   18.50
   4 -14   0  139.59   20.90
   0  -4  14  145.39   16.10
   0  -4  14  162.68   33.30
   0   4  14  185.58   34.50
  14  -2   4 1391.36  122.79
   4 -14   2 1397.06  122.59
   2  -4  14 1481.15  130.49
   2  -4  14 1405.16  120.59
  -2   4  14 1339.17  129.89
  14   2  -4 1395.06  121.29
  14  -2  -4 1625.64  121.79
  14   2   4 1613.64  120.79
  -2  -4  14 1625.94  130.39
   2   4  14 1662.33  130.59
   4 -14  -2 1658.03  122.79
   4  -4  14 2195.98  193.08
   4 -14   4 2161.48  194.08
   4  -4  14 2131.19  200.08
  14  -4   4 2222.28  194.48
  -4   4  14 2267.07  200.18
  14   4   4 2567.44  194.28
  14  -4  -4 2641.64  193.88
   4   4  14 2756.22  201.48
  -4  -4  14 2669.93  200.78
   4 -14  -4 2671.03  194.58
   6  -4  14  208.18   26.30
  -4  14   6  289.27   40.50
  -6   4  14  258.27   38.60
   4 -14   6  204.18   28.70
  14  -6   4  205.88   30.10
   6  -4  14  235.08   39.30
  14   6   4  185.48   29.20
   4 -14  -6  232.08   29.30
   6   4  14  258.17   40.30
   4  14   6  196.98   37.50
  -6  -4  14  201.78   33.90
  14  -6  -4  190.58   27.40
  -4  14   8  336.37   43.90
  -8   4  14  346.27   45.30
   8  -4  14  313.67   30.90
 -14   8   4  270.17   27.10
  14  -8   4  261.37   34.00
   4 -14   8  313.17   31.40
   8  -4  14  227.08   37.30
  14  -8  -4  186.18   27.20
  14   8   4  262.97   32.70
  -8  -4  14  211.68   37.70
   8   4  14  197.68   38.10
   4  14   8  226.68   41.50
 -10   4  14  611.84   60.29
  10  -4  14  586.94   51.19
 -14  10   4  541.15   50.19
  10  -4  14  610.14   62.09
   4 -14  10  594.34   49.60
  14 -10   4  568.34   51.89
  -4  14  10  505.75   65.59
  14 -10  -4  472.65   50.39
  10   4  14  519.65   62.99
  14  10   4  416.06   56.09
   4  14  10  474.75   66.89
   4 -14  12  137.59   21.20
 -12   4  14  147.29   31.40
  12  -4  14  110.39   23.10
  12  -4  14  125.09   32.90
  -4  14  12   61.29   34.50
 -14  12   4  134.89   24.50
  14 -12   4  118.19   23.40
   4  14  12  197.08   42.30
  12   4  14  232.18   39.70
  14  12   4  210.78   33.20
  14 -12  -4  201.28   24.50
  14   1  -5 1440.06  119.69
   5 -14   1 1388.46  120.89
  -1   5  14 1499.45  129.09
   1  -5  14 1416.16  118.79
   1  -5  14 1421.76  128.09
   5 -14  -1 1590.24  121.49
   1   5  14 1600.94  129.09
  -1  -5  14 1498.55  128.09
  14   1   5 1461.75  119.59
  14  -1  -5 1577.44  119.99
   3  -5  14  798.42   74.69
  14  -3   5  795.82   77.69
  -3   5  14  843.72   86.89
   5 -14   3  833.22   76.99
   3  -5  14  813.72   85.49
  14   3  -5  803.12   74.99
   5 -14  -3 1055.49   77.69
  14  -3  -5 1011.30   75.89
  -3  -5  14 1034.90   86.19
  14   3   5 1068.39   76.89
   3   5  14 1058.89   88.29
   5  -5  14  383.76   35.00
   5  -5  14  384.86   51.29
   5 -14   5  393.56   37.60
  -5  14   5  407.26   53.79
  -5   5  14  392.86   51.89
  14  -5   5  397.16   38.90
   5  14   5  381.66   53.49
  14  -5  -5  308.27   35.30
  14   5   5  318.97   37.70
  -5  -5  14  326.17   44.00
   5 -14  -5  329.17   37.90
   5   5  14  364.16   52.69
   5 -14   7  144.19   21.90
   7  -5  14  103.29   19.00
   7  -5  14  113.59   32.00
 -14   7   5  125.29   17.00
  -7   5  14  156.28   34.10
  14  -7   5  134.09   23.60
  -5  14   7  116.19   32.80
  -7  -5  14  176.08   32.90
   7   5  14  171.58   35.30
   5  14   7  224.78   40.10
  14  -7  -5  188.18   21.00
   5 -14  -7  151.78   22.10
  14   7   5  193.98   26.10
 -14   9   5  461.15   44.20
   9  -5  14  453.55   58.39
   5 -14   9  474.65   45.20
  -5  14   9  513.35   61.89
   9  -5  14  486.35   45.70
  -9   5  14  506.45   56.79
  14  -9   5  491.75   47.70
   9   5  14  473.05   58.89
  14  -9  -5  430.66   45.10
   5  14   9  476.25   62.69
  14   9   5  442.06   51.49
  11  -5  14  433.56   55.39
  14 -11   5  476.95   44.70
  -5  14  11  443.46   60.79
   5 -14  11  481.85   41.50
 -14  11   5  433.36   43.70
  11  -5  14  434.36   43.50
 -11   5  14  506.25   53.49
   5  14  11  390.66   55.29
  14 -11  -5  322.47   42.20
  11   5  14  277.27   48.00
  14  11   5  331.67   50.79
   5 -14  13   64.09   18.10
 -13   5  14   45.30   25.10
  -5  14  13   96.09   35.20
  13  -5  14   43.80   20.30
 -14  13   5   73.59   22.70
  14 -13   5   63.89   21.60
  13   5  14   56.59   31.00
  14  13   5   45.30   30.50
  14 -13  -5   57.89   19.10
   5  14  13   39.20   38.50
   0  -6  14  724.13   62.29
  14   0   6  749.62   64.99
   0  -6  14  817.12   78.09
   0   6  14  818.92   78.19
   6 -14   0  754.22   66.29
  14   0  -6  816.72   64.19
  -2   6  14  439.96   57.79
   6 -14   2  468.45   44.80
   2  -6  14  468.55   56.59
   2  -6  14  427.96   40.10
  14   2  -6  500.45   40.90
  -4   6  14  180.28   35.40
   4  -6  14  209.38   24.50
   6 -14   4  212.58   28.70
   4  -6  14  223.88   38.80
  14  -4   6  245.68   27.90
  14   4  -6  217.98   23.40
  -4  -6  14  234.68   38.40
   4   6  14  188.08   36.10
   6 -14  -4  214.38   29.20
  14  -4  -6  203.98   25.50
  14   4   6  194.08   29.30
 -14   6   6  381.16   37.90
   6  -6  14  408.26   56.99
  14  -6   6  472.25   44.60
  -6  14   6  390.36   55.69
   6 -14   6  468.55   42.90
   6  -6  14  462.95   40.70
  -6   6  14  421.86   55.59
  14   6   6  412.96   45.40
   6  14   6  467.85   58.09
  14  -6  -6  426.26   40.60
   6   6  14  458.45   57.19
   6 -14  -6  460.55   43.10
   8  -6  14  156.08   34.90
 -14   8   6  170.58   25.40
  -6  14   8  146.59   35.80
   6 -14   8  230.48   26.60
   8  -6  14  163.28   23.30
  14  -8   6  233.38   27.90
  -8   6  14  211.18   37.80
  14  -8  -6  223.58   27.60
   6 -14  -8  217.38   30.00
   8   6  14  214.38   40.00
   6  14   8  237.68   42.10
  14   8   6  256.17   31.90
   6 -14  10  537.95   49.50
  10  -6  14  551.94   50.29
  -6  14  10  550.74   65.29
 -10   6  14  538.35   60.19
 -14  10   6  528.15   50.49
  14 -10   6  531.95   51.99
  14 -10  -6  500.65   49.30
   6  14  10  499.45   66.39
  10   6  14  521.95   63.89
  14  10   6  492.55   57.99
 -14  12   6   83.09   22.50
  -6  14  12  101.29   37.10
  14 -12   6  119.49   23.60
 -12   6  14   78.79   28.50
  12  -6  14   79.49   20.40
   6 -14  12  102.09   20.10
  14  12   6   75.89   30.50
   6  14  12   97.89   38.90
  14 -12  -6   62.19   20.90
  12   6  14   54.69   33.90
   1  -7  14  107.19   32.30
  -1   7  14  147.89   35.50
  14   1  -7  149.29   18.60
   7 -14   1  130.69   20.10
  14  -1   7  152.18   20.00
   1  -7  14  146.59   16.20
  14  -1  -7  105.29   16.00
   1   7  14   72.59   31.60
   7 -14  -1   86.59   19.70
  14   1   7  105.19   19.70
   7 -14   3   93.19   18.80
  14   3  -7  130.09   14.80
   3  -7  14   68.39   30.20
  -3   7  14  113.99   31.70
   3  -7  14  105.89   15.40
  14  -3   7  115.59   20.50
  14   3   7  114.49   21.00
  14  -3  -7   99.99   15.90
   7 -14  -3   89.39   20.10
   3   7  14   90.09   31.70
 -14   5   7  114.49   18.10
   7 -14   5   97.09   20.50
  14   5  -7  119.89   18.30
  -5   7  14  102.09   33.00
  -7  14   5  201.08   36.00
  14  -5   7  112.39   22.30
   5  -7  14  118.59   32.60
   5  -7  14  128.69   19.00
   7  14   5  179.88   33.60
  14   5   7  195.08   25.30
   5   7  14  212.38   38.30
  14  -5  -7  169.88   22.00
   7 -14  -5  198.48   23.60
  -7   7  14  141.99   35.10
   7 -14   7  192.28   23.20
  -7  14   7  125.39   30.80
   7  -7  14  127.59   18.80
 -14   7   7  149.69   18.90
  14  -7   7  154.98   23.40
  14   7   7   99.59   24.90
   7 -14  -7   97.89   22.10
   7   7  14   94.39   34.50
  14  -7  -7   93.59   18.40
   7  14   7  112.39   34.80
  -7  14   9   11.70   30.10
 -14   9   7    9.10   15.50
  14  -9   7  -14.70   18.70
  -9   7  14    8.60   29.30
   9  -7  14    7.20   16.60
   7 -14   9    4.30   16.10
  14   9   7    0.00   24.30
  14  -9  -7    3.50   14.80
   9   7  14   -3.80   30.50
   7  14   9   12.20   29.80
 -14  11   7   75.09   20.60
 -11   7  14   45.20   28.10
  -7  14  11   81.79   33.20
   7 -14  11   83.79   19.30
  11  -7  14   74.19   19.90
  14 -11   7   67.99   22.20
   7  14  11   37.20   37.80
  11   7  14   15.20   31.50
  14 -11  -7   41.70   18.80
  14  11   7   27.00   26.90
 -14  13   7   -6.70   20.80
  14 -13   7    4.90   21.10
   7 -14  13   23.50   17.40
  -7  14  13   25.80   32.70
  13  -7  14    2.30   19.60
 -13   7  14   14.10   25.30
   7  14  13   12.90   38.20
  14  13   7   33.60   30.00
  14 -13  -7   18.60   18.50
  13   7  14   15.40   31.00
   0   8  14   53.49   29.70
   0  -8  14  101.09   12.10
  14   0  -8   99.59   13.90
  14   0   8   83.19   19.70
   8 -14   0   98.49   19.60
   2  -8  14  154.08   21.30
   8 -14   2  208.98   25.60
  14   2  -8  167.78   20.50
  -2   8  14  139.69   34.40
   2   8  14  211.08   36.10
   8 -14  -2  243.48   28.40
  14   2   8  242.38   30.90
  14   4  -8  306.77   25.70
   8 -14   4  302.87   32.90
   4  -8  14  303.27   29.10
 -14   4   8  289.47   27.80
  -8  14   4  344.37   47.40
  -4   8  14  265.37   40.30
  14  -4   8  331.57   34.70
  14   4   8  242.38   32.60
   8 -14  -4  209.88   32.90
   4   8  14  200.98   40.80
   8  14   4  169.98   38.00
  14  -4  -8  219.38   28.40
   6  -8  14  188.48   26.80
  -8  14   6  165.68   34.50
   8 -14   6  179.58   24.90
  -6   8  14  193.38   35.90
  14  -6   8  166.68   25.90
  14   6  -8  174.88   20.30
 -14   6   8  180.08   23.20
  14   6   8  255.47   31.30
  14  -6  -8  232.18   25.60
   8  14   6  252.77   41.70
   8 -14  -6  229.88   26.30
   6   8  14  201.78   39.30
   8  -8  14  229.18   30.70
 -14   8   8  233.88   30.10
  -8   8  14  292.47   40.70
  -8  14   8  215.68   36.90
  14  -8   8  229.58   32.60
   8 -14   8  278.37   32.00
  14   8   8  203.38   33.30
   8  14   8  227.68   42.30
   8   8  14  158.88   37.00
   8 -14  -8  205.38   27.90
  14  -8  -8  197.18   28.70
  10  -8  14  119.09   22.00
 -14  10   8  138.29   24.80
  -8  14  10  162.68   36.80
  14 -10   8  193.48   26.50
 -10   8  14  148.49   34.60
   8 -14  10  168.08   25.00
   8  14  10  132.09   36.20
  10   8  14  140.09   38.50
  14 -10  -8  181.28   23.70
  14  10   8  161.78   32.80
 -14  12   8   15.70   20.80
 -12   8  14   11.60   27.60
   8 -14  12   30.30   19.30
  12  -8  14   13.30   18.80
  14 -12   8   20.40   19.90
  -8  14  12   -2.10   29.50
  14 -12  -8   51.99   20.20
  12   8  14   -7.10   30.90
  14  12   8   36.70   29.60
   8  14  12   11.60   32.50
   9 -14   1  471.05   41.90
  14  -1   9  439.86   43.30
  14   1  -9  467.65   35.30
  -1   9  14  511.05   59.19
   1  -9  14  457.35   36.10
  14  -1  -9  353.36   35.80
   1   9  14  378.96   55.39
   9 -14  -1  353.16   40.90
  14   1   9  375.06   44.10
  -1  -9  14  336.27   34.30
  14   3  -9   82.79   11.50
  -3   9  14   46.00   29.90
 -14   3   9   83.19   15.50
  14  -3   9   87.29   21.70
   9 -14   3   79.19   20.60
   3  -9  14   89.69   14.90
  14  -3  -9   83.49   14.40
   9  14   3  132.49   34.10
   3   9  14  114.39   35.80
  14   3   9   94.69   23.10
   9 -14  -3   84.89   20.40
 -14   5   9  477.85   43.50
  -5   9  14  481.65   59.99
  14  -5   9  491.55   47.60
   9 -14   5  456.95   46.00
   5  -9  14  470.85   42.70
  -9  14   5  498.95   56.49
   9 -14  -5  464.95   45.60
  14   5   9  420.76   50.49
   5   9  14  457.05   61.09
   9  14   5  467.75   59.19
  14  -5  -9  416.16   41.80
   7  -9  14   -3.90   14.80
   9 -14   7   23.10   17.50
 -14   7   9   -0.20   14.50
  -9  14   7  -11.80   25.80
  14  -7   9   -5.20   18.10
  -7   9  14   -9.50   27.10
   9 -14  -7  -19.10   17.70
  14  -7  -9   -2.20   14.30
   7   9  14   -2.60   29.80
  14   7   9   13.30   24.50
   9  14   7    1.00   28.50
  -9   9  14   40.90   32.10
 -14   9   9   21.60   18.60
  -9  14   9   40.20   28.50
   9  -9  14   38.40   17.70
   9 -14   9   32.00   17.90
  14  -9   9   14.30   19.90
  14   9   9   90.99   28.10
  14  -9  -9   76.29   17.30
   9  14   9  112.19   37.90
   9   9  14   96.59   35.00
   9 -14  -9  100.99   19.70
 -11   9  14  311.67   43.00
  14 -11   9  275.27   38.70
   9 -14  11  292.27   35.20
  -9  14  11  265.37   42.50
 -14  11   9  257.67   38.50
  11  -9  14  303.17   36.90
  11   9  14  297.07   48.00
   9  14  11  290.57   48.80
  14 -11  -9  233.58   33.70
  14  11   9  233.68   40.90
  14 -13   9  441.96   49.40
  -9  14  13  451.05   64.19
 -13   9  14  447.26   56.79
  13  -9  14  419.46   48.80
 -14  13   9  442.66   52.49
   9 -14  13  413.36   46.10
  13   9  14  498.65   64.49
  14  13   9  484.25   62.89
  14 -13  -9  428.56   46.80
   9  14  13  529.65   70.19
  14   0 -10   85.59   11.60
  14   0  10   47.00   21.90
  10 -14   0   74.29   19.80
   0 -10  14   82.79   12.10
   0  10  14   63.49   32.80
  10 -14   2   52.89   19.60
  -2  10  14   28.60   32.20
  14  -2  10   35.70   20.80
 -14   2  10   35.80   15.30
   2 -10  14   25.30   11.80
  14   2  10   95.39   23.10
   2  10  14   71.79   33.40
  -4  10  14  568.24   65.39
  14  -4  10  593.64   51.39
  10 -14   4  564.74   49.60
 -14   4  10  563.14   48.50
   4 -10  14  558.64   46.50
 -10  14   4  565.94   59.39
  14   4  10  412.86   54.19
  10  14   4  460.35   61.29
  10 -14  -4  462.95   49.40
  14  -4 -10  446.46   45.00
   4  10  14  483.15   65.19
 -14   6  10  558.44   49.99
  -6  10  14  514.85   63.49
  14  -6  10  542.95   51.89
  10 -14   6  513.25   50.29
 -10  14   6  517.55   60.19
   6 -10  14  541.15   47.90
  10 -14  -6  494.45   49.40
  14  -6 -10  501.25   46.30
  10  14   6  522.65   62.99
  14   6  10  508.55   56.79
   6  10  14  418.56   64.19
  10 -14   8  158.58   24.60
  -8  10  14  165.28   37.10
  14  -8  10  181.78   26.60
   8 -10  14  196.78   24.90
 -14   8  10  156.58   26.00
 -10  14   8  133.29   32.70
  10  14   8  162.08   38.80
   8  10  14  179.38   40.50
  14  -8 -10  186.38   22.40
  10 -14  -8  147.69   24.30
  14   8  10  178.48   34.40
 -10  10  14  104.09   34.10
 -10  14  10   45.10   29.60
  10 -10  14   62.89   20.40
  10 -14  10   40.50   19.00
 -14  10  10   55.49   22.40
  14 -10  10   56.69   21.60
  10  14  10   45.60   37.50
  14  10  10   52.69   31.10
  10 -14 -10   44.60   19.00
  14 -10 -10   40.30   18.20
  10  10  14   21.20   32.40
 -12  10  14  471.75   61.39
  14 -12  10  470.45   49.70
  10 -14  12  431.76   48.10
 -14  12  10  470.05   53.09
  12 -10  14  437.96   49.30
 -10  14  12  444.16   62.79
  14 -12 -10  482.85   47.40
  14  12  10  479.85   63.89
  12  10  14  524.85   67.89
  10  14  12  495.95   69.19
  -1  11  14 1116.39  103.49
  14  -1  11 1102.19   95.19
   1 -11  14 1099.29   88.69
  11 -14   1 1128.79   91.79
  -1 -11  14 1040.70   87.79
  11 -14  -1 1055.89   91.79
  14   1  11 1023.50   95.79
   1  11  14 1094.59  104.19
  14  -1 -11 1140.99   88.79
  11 -14   3   61.29   20.10
   3 -11  14   82.69   15.50
  14  -3  11   88.09   22.90
  -3  11  14   68.89   33.00
 -11  14   3   47.90   26.60
 -14   3  11   75.59   19.30
  11  14   3  116.69   33.70
  14   3  11  103.09   25.90
  14  -3 -11  105.89   13.90
  11 -14  -3   97.89   20.40
   3  11  14   95.19   33.80
 -14   5  11  449.16   42.40
  11 -14   5  477.35   42.90
 -11  14   5  470.25   51.79
  14  -5  11  485.45   44.50
   5 -11  14  483.55   39.20
  -5  11  14  478.85   60.59
  14  -5 -11  326.27   36.70
  14   5  11  312.57   49.20
   5  11  14  281.57   49.40
  11  14   5  293.87   48.30
  11 -14  -5  330.17   41.60
 -14   7  11   59.89   20.70
 -11  14   7   66.69   27.70
  14  -7  11   38.30   19.70
  11 -14   7   60.29   19.60
   7 -11  14   79.39   18.00
  -7  11  14   66.89   33.60
  11 -14  -7   26.40   18.90
  14   7  11   47.90   28.50
   7  11  14   28.10   32.70
  11  14   7   25.70   32.70
  14  -7 -11   32.90   14.90
   9 -11  14  241.98   33.70
  11 -14   9  282.87   35.60
 -11  14   9  355.06   43.40
  14  -9  11  271.47   38.20
 -14   9  11  262.67   38.50
  -9  11  14  267.87   42.20
  14  -9 -11  258.27   31.90
   9  11  14  222.78   42.90
  14   9  11  240.98   39.90
  11 -14  -9  235.38   34.20
  11  14   9  208.48   43.70
 -11  14  11 1650.53  133.59
 -14  11  11 1572.54  128.69
 -11  11  14 1653.43  134.19
  14 -11  11 1573.04  125.49
  11 -11  14 1395.06  123.99
  11 -14  11 1622.04  124.69
  11  14  11 1343.47  136.09
  11  11  14 1414.96  136.19
  14  11  11 1359.76  133.29
  14 -11 -11 1399.06  123.09
 -14  13  11  757.82   81.49
 -13  11  14  811.22   85.59
  14 -13  11  834.52   77.09
  11 -14  13  792.72   75.49
 -11  14  13  718.63   86.09
  13 -11  14  764.92   76.49
  11  14  13  990.40   95.09
  14  13  11 1019.50   92.39
  14 -13 -11  956.50   75.59
  13  11  14  933.91   92.39
  14   0  12  145.79   30.10
   0  12  14  147.09   38.50
   0 -12  14  132.29   16.50
  12 -14   0  131.89   23.20
  14  -2  12  529.85   55.79
  -2  12  14  506.75   67.69
 -14   2  12  503.55   50.29
 -12  14   2  532.35   56.99
  12 -14   2  562.04   50.79
   2 -12  14  555.44   45.60
  14   2  12  491.25   56.79
  12 -14  -2  460.55   49.99
  12  14   2  408.76   60.59
   2  12  14  481.75   67.49
 -12  14   4  126.89   29.70
 -14   4  12  116.19   24.20
  -4  12  14  120.89   37.10
  12 -14   4  149.29   25.70
   4 -12  14  146.99   20.70
  14  -4  12  113.89   25.00
  12 -14  -4  182.98   24.30
  14  -4 -12  179.18   20.40
   4  12  14  242.38   45.10
  14   4  12  176.68   32.40
  12  14   4  184.48   34.30
  12 -14   6   64.79   20.30
   6 -12  14  119.79   19.10
 -14   6  12  106.79   23.20
  14  -6  12   89.39   21.70
 -12  14   6   81.39   28.70
  -6  12  14  100.69   33.70
  14   6  12   57.59   29.90
  14  -6 -12   68.09   15.30
   6  12  14   42.20   34.40
  12  14   6   23.70   29.30
  12 -14  -6   52.39   21.30
  14  -8  12   10.20   21.10
 -14   8  12  -10.70   20.00
 -12  14   8   19.90   27.60
  12 -14   8   13.50   20.70
   8 -12  14    5.00   17.30
  -8  12  14   -1.20   33.30
  12  14   8   20.00   31.30
  12 -14  -8   19.30   18.50
   8  12  14   40.50   39.30
  14   8  12   34.60   30.80
  14  -8 -12   20.80   15.00
 -10  12  14  509.35   63.19
  14 -10  12  482.15   50.69
  10 -12  14  465.35   48.00
  12 -14  10  477.55   49.00
 -12  14  10  454.25   59.49
 -14  10  12  448.86   53.49
  14  10  12  463.25   63.99
  10  12  14  451.05   67.59
  12  14  10  356.66   55.59
  12 -14 -10  460.35   47.90
  14 -10 -12  483.65   45.50
 -12  14  12  216.38   41.00
 -12  12  14  255.47   43.20
  12 -12  14  240.68   31.90
  12 -14  12  237.58   33.40
 -14  12  12  248.48   38.60
  14 -12  12  195.58   31.30
  12  12  14  368.16   49.90
  14  12  12  404.96   50.69
  -1  13  14  655.43   73.99
  13 -14   1  661.03   55.99
   1 -13  14  662.63   50.59
 -14   1  13  631.34   57.29
  14  -1  13  656.33   62.49
 -13  14   1  617.14   60.39
   1  13  14  526.95   70.99
  13  14   1  499.75   65.09
  14   1  13  479.15   62.09
  13 -14  -1  520.45   54.59
  -1 -13  14  485.75   49.30
  -3  13  14  386.16   52.59
  13 -14   3  291.87   36.80
 -14   3  13  271.77   38.60
   3 -13  14  308.87   31.90
 -13  14   3  311.77   43.40
  14  -3  13  308.27   38.90
  14  -3  13  323.77   45.70
  14   3  13  289.07   41.30
  13  14   3  251.77   40.60
   3  13  14  295.27   50.49
  13 -14  -3  260.67   36.40
 -14   5  13   57.39   21.90
 -13  14   5   39.60   24.60
  13 -14   5   60.69   21.10
   5 -13  14   75.29   17.80
  14  -5  13   63.39   21.10
  -5  13  14  118.99   38.20
   5  13  14   31.80   38.00
  13 -14  -5   36.60   18.80
  13  14   5   57.19   30.90
  14   5  13   35.50   28.80
   7 -13  14   18.60   17.20
  14  -7  13   19.80   21.90
  13 -14   7   -6.00   19.70
 -13  14   7    6.70   24.00
 -14   7  13  -16.80   21.00
  -7  13  14  -14.80   32.40
  13 -14  -7    9.60   18.50
  13  14   7   -6.70   28.40
   7  13  14   11.50   38.80
  14   7  13   15.40   29.30
 -14   9  13  431.46   52.99
  14  -9  13  438.16   49.80
  -9  13  14  436.36   63.49
 -13  14   9  438.16   56.59
  13 -14   9  428.66   48.30
   9 -13  14  433.76   46.70
  13  14   9  447.36   65.19
  13 -14  -9  459.95   47.10
  14   9  13  537.85   64.29
   9  13  14  533.55   70.79
  14 -11  13  848.42   79.29
  11 -13  14  829.92   78.09
  13 -14  11  814.82   78.69
 -13  14  11  812.12   86.49
 -11  13  14  852.61   91.29
 -14  11  13  831.12   84.79
  13 -14 -11  977.90   78.19
  13  14  11  998.80   94.79
  11  13  14  923.81   95.79
  14  11  13  979.50   93.99
 -14  13  13  422.56   59.69
 -13  13  14  440.46   65.29
 -13  14  13  487.65   65.49
  13 -14  13  452.15   53.19
  13 -13  14  476.95   52.99
  14 -13  13  488.45   53.89
  13  14  13  626.64   74.39
  13  13  14  609.74   75.19
  14  13  13  618.44   74.29
   0 -14  14    8.40   12.00
   0  14  14    1.60   33.90
  14 -14   0   11.50   19.60
  14   0  14    7.60   26.30
  14  14   0   13.90   26.90
 -14   2  14 1719.53  136.89
 -14  14   2 1684.83  137.09
  -2  14  14 1706.63  147.59
   2 -14  14 1756.12  131.99
  14  -2  14 1652.63  139.89
  14  -2  14 1885.11  135.49
  14 -14   2 1752.12  134.49
   2  14  14 1355.16  145.49
  14   2  14 1319.27  139.59
  14  14   2 1301.17  139.49
 -14   4  14  943.21   91.89
 -14  14   4  984.30   91.79
  -4  14  14 1010.10  103.29
   4 -14  14  986.80   86.79
  14  -4  14 1011.30   90.19
  14 -14   4  998.00   89.49
  14 -14  -4 1133.19   89.49
   4  14  14 1124.49  106.09
  14   4  14 1094.99   98.19
  14  14   4 1163.58   98.29
 -14   6  14  112.79   27.60
 -14  14   6  104.19   26.90
  -6  14  14  131.19   42.50
   6 -14  14   81.89   20.40
  14  -6  14   96.79   23.40
  14 -14   6  160.48   26.80
  14 -14  -6   99.89   22.90
   6  14  14   83.49   38.80
  14   6  14  157.88   36.70
  14  14   6  138.89   35.20
 -14   8  14  352.36   46.40
 -14  14   8  330.57   45.70
  -8  14  14  269.67   46.00
   8 -14  14  352.86   37.30
  14  -8  14  303.67   40.90
  14 -14   8  327.07   40.40
  14 -14  -8  277.97   38.60
   8  14  14  295.67   55.29
  14   8  14  309.17   49.40
  14  14   8  244.48   45.60
 -14  10  14  217.28   37.60
 -14  14  10  220.28   36.40
 -10  14  14  289.87   47.90
  10 -14  14  244.28   30.60
  14 -10  14  301.87   34.30
  14 -14  10  186.58   29.90
  14 -14 -10  167.68   29.50
  10  14  14  239.68   52.09
  14  10  14  187.28   45.70
  14  14  10  211.08   45.50
 -14  12  14   81.19   32.10
 -14  14  12   96.19   32.20
 -12  14  14  131.69   40.80
  12 -14  14   96.99   24.20
  14 -12  14  114.99   26.10
  14 -14  12   65.99   24.00
  12  14  14   56.99   43.90
  14  12  14   42.60   38.10
  14  14  12   62.59   41.10
 -14  14  14 1282.07  126.39
  14 -14  14 1399.56  119.09
  14  14  14 1552.94  135.29
   1   0  15 3497.55  273.97
  15  -1   0 3212.08  267.17
   0 -15   1 3226.88  267.17
  -1   0  15 3534.15  274.07
   3   0  15 3826.02  309.27
   0 -15   3 3698.63  302.87
  15  -3   0 3769.22  303.17
  -3   0  15 3970.60  309.27
  -5   0  15 1702.03  145.29
   0 -15   5 1693.53  137.29
  15  -5   0 1701.93  137.89
   5   0  15 1691.93  145.99
   0 -15   7  187.98   23.50
   0  15   7  222.98   43.30
  -7   0  15  229.38   37.00
   7   0  15  192.38   36.20
  15   7   0  193.98   26.30
  15  -7   0  219.38   26.70
  15   9   0  453.55   45.30
   0  15   9  463.85   62.69
 -15   9   0  422.56   38.80
  -9   0  15  410.06   55.09
  15  -9   0  432.56   44.30
   9   0  15  449.95   56.99
   0 -15   9  409.26   40.80
 -11   0  15   74.49   27.70
  15 -11   0   70.89   21.10
  15  11   0   56.09   23.10
 -15  11   0   64.39   17.10
   0  15  11  112.39   39.40
   0 -15  11   52.89   15.30
  11   0  15   78.89   32.30
 -13   0  15 1478.15  127.79
   0  15  13 1489.95  135.69
  13   0  15 1456.65  130.09
 -15  13   0 1396.36  123.29
  15  13   0 1471.45  127.39
  15 -13   0 1568.44  122.79
   0 -15  13 1466.15  119.69
  15   0  -1 3166.58  267.97
   0   1  15 3538.25  274.97
   1 -15   0 3362.16  268.37
   0  -1  15 3442.86  274.37
  -2   1  15  968.60   85.29
  15  -2   1  958.30   74.99
   2  -1  15 1006.60   86.19
   1 -15   2  914.91   74.69
  15  -2  -1  771.42   74.09
  -2  -1  15  886.51   85.09
   1 -15  -2  789.32   74.69
   2   1  15  797.62   84.29
  15  -4   1 1114.49   95.09
   4  -1  15 1197.18  104.19
   1 -15   4 1205.38   94.59
  -4   1  15 1222.58  103.99
   4   1  15 1148.49  104.79
  -1 -15   4 1110.59   94.19
  15  -4  -1 1039.90   94.39
  -4  -1  15 1139.79  103.49
   6  -1  15    0.50   30.10
  15  -6   1    8.90   18.00
  -6   1  15    8.90   26.80
   1 -15   6    3.00   15.70
  15   6  -1   13.50   10.30
  -1  15   6   10.80   30.00
  -1 -15   6   21.00   14.50
  15  -6  -1   16.70   16.10
  15   6   1   12.40   12.10
   1  15   6   17.10   29.70
   6   1  15   14.30   27.90
  -6  -1  15    0.80   28.20
  15  -8   1    5.80   17.40
   1 -15   8   19.60   14.90
  -8   1  15   22.20   28.70
  15   8  -1    7.30   15.90
   8  -1  15    2.00   27.30
  -1  15   8   37.30   32.40
   1  15   8   57.59   32.30
  15  -8  -1   78.69   19.00
  15   8   1   74.59   18.40
 -15   8  -1   57.19   10.30
  -1 -15   8   64.39   15.20
  -8  -1  15   59.79   28.30
   8   1  15   56.69   32.20
 -10   1  15  338.57   44.30
  15  10  -1  250.77   38.40
  10  -1  15  295.27   44.90
  15 -10   1  270.97   37.50
 -15  10   1  272.77   32.00
  -1  15  10  311.67   48.90
   1 -15  10  262.67   33.40
   1  15  10  324.57   47.60
  10   1  15  369.26   51.89
  15  10   1  357.66   41.10
  -1 -15  10  374.86   33.20
 -15  10  -1  315.77   33.20
  15 -10  -1  351.96   36.90
 -10  -1  15  371.86   49.10
  12  -1  15  254.17   40.60
 -12   1  15  338.17   45.70
  -1  15  12  266.47   45.60
 -15  12   1  242.78   32.90
   1 -15  12  256.27   30.20
  15  12  -1  274.07   36.60
  15 -12   1  276.57   35.10
  15 -12  -1  231.38   35.00
   1  15  12  279.57   49.99
 -12  -1  15  261.17   39.30
  -1 -15  12  222.18   28.70
  12   1  15  327.47   45.10
  15  12   1  231.48   36.50
  15  14  -1  151.28   34.10
 -15  14   1  165.68   27.70
 -14   1  15  190.38   32.30
  -1  15  14  123.99   40.80
   1 -15  14  179.78   21.70
  14  -1  15  189.18   37.00
  15 -14   1  152.78   26.40
  15 -14  -1  193.28   27.90
  14   1  15  196.28   37.60
   1  15  14  171.88   47.20
  15  14   1  197.18   35.10
  -1   2  15  968.30   86.69
  15  -1   2  944.91   75.89
   1  -2  15  937.31   72.39
   2 -15   1  965.40   75.49
   1  -2  15  969.40   86.89
  15   1  -2  879.71   74.69
   1   2  15  856.71   86.09
  -1  -2  15  795.72   85.69
   2 -15  -1  791.52   75.49
  15  -1  -2  790.32   74.69
  15  -3   2 1062.59  100.69
   2 -15   3 1068.29  100.19
  -3   2  15 1126.39  109.39
   3  -2  15 1065.89  109.49
   2 -15  -3 1309.67  100.99
  -3  -2  15 1420.96  110.29
  15  -3  -2 1334.77  100.19
   3   2  15 1406.66  110.89
  -5   2  15  515.85   59.19
  -2  15   5  558.04   63.29
   5  -2  15  626.24   62.29
  15  -5   2  497.05   46.90
   2 -15   5  503.65   46.00
   5   2  15  467.45   59.99
  15   5   2  443.46   42.50
   2  15   5  460.55   63.69
  15  -5  -2  464.15   46.10
  -5  -2  15  490.75   59.09
   2 -15   7  104.29   19.00
  -2  15   7  102.39   33.90
  15  -7   2  108.49   21.80
  -7   2  15  125.99   32.10
  15   7  -2  144.59   19.50
   7  -2  15  129.69   34.60
  15  -7  -2  106.79   20.70
  -7  -2  15  162.38   34.80
   2  15   7   89.79   33.90
   7   2  15  114.89   32.50
  15   7   2  158.38   21.60
  -9   2  15  263.57   40.30
  15  -9   2  224.78   33.10
  15   9  -2  210.78   32.90
 -15   9   2  230.48   24.00
   9  -2  15  232.38   39.10
   2 -15   9  250.17   29.90
  -2  15   9  222.48   42.00
  15   9   2  238.88   31.20
   9   2  15  234.48   39.50
  15  -9  -2  210.18   31.30
   2  15   9  198.38   40.30
  -9  -2  15  263.87   38.10
   2 -15  11  423.46   43.00
 -11   2  15  427.46   55.19
  -2  15  11  435.96   62.99
  15 -11   2  401.06   46.40
 -15  11   2  403.06   43.30
  11  -2  15  367.46   57.89
  15  11   2  496.35   51.19
  11   2  15  519.25   59.79
  15 -11  -2  496.15   45.90
 -11  -2  15  524.55   56.19
   2  15  11  510.95   66.39
 -15  13   2  200.48   27.90
  -2  15  13  215.88   46.50
   2 -15  13  200.78   26.90
  15 -13   2  186.88   28.00
  13  -2  15  177.68   37.00
 -13   2  15  193.38   33.90
  13  -2  15  140.59   26.90
  15  13   2  223.78   35.10
  15 -13  -2  198.48   28.30
   2  15  13  179.58   41.60
  13   2  15  228.78   39.10
   0  -3  15 3651.23  298.07
   0   3  15 3895.01  306.37
   3 -15   0 3746.03  300.07
   0  -3  15 3777.52  306.07
  15   0  -3 3809.12  299.57
  15  -2   3 1117.89   98.09
   2  -3  15 1070.59   95.29
   3 -15   2 1074.59   97.59
   2  -3  15 1077.49  106.79
  15   2  -3 1079.49   96.69
  -2   3  15 1043.80  106.29
   2   3  15 1381.56  108.09
   3 -15  -2 1313.87   97.99
  15  -2  -3 1344.77   97.39
  -2  -3  15 1423.96  108.09
  15  -4   3 1053.09   81.19
   4  -3  15 1098.89   91.59
  -4   3  15 1044.30   90.19
   4  -3  15  994.20   78.19
   3 -15   4 1023.50   80.29
  15   4   3  823.02   76.99
   3 -15  -4  869.51   80.29
   4   3  15  923.31   90.09
  -4  -3  15  941.31   90.19
  15  -4  -3  839.12   79.49
  15   6  -3  137.19   21.60
  -6   3  15  178.18   37.00
   3 -15   6  175.88   23.50
  15  -6   3  184.78   25.20
  -3  15   6  175.18   38.00
   6  -3  15  160.08   21.00
   6  -3  15  126.89   34.10
   6   3  15  164.68   36.70
  15  -6  -3  164.08   22.50
   3  15   6  140.49   36.00
  15   6   3  162.18   21.40
  -6  -3  15  119.99   32.00
   3 -15   8  172.18   22.00
  -8   3  15  171.08   33.30
   8  -3  15  251.47   40.20
   8  -3  15  201.28   26.60
  15  -8   3  193.98   25.20
  -3  15   8  167.28   37.90
  15   8   3  144.79   25.30
   8   3  15  127.29   34.20
  15  -8  -3  170.58   24.10
   3  15   8  128.39   36.20
  -8  -3  15  117.89   32.00
  -3  15  10  708.93   77.69
 -10   3  15  752.82   71.49
  10  -3  15  726.43   61.49
  15 -10   3  708.63   62.59
  10  -3  15  748.53   72.89
 -15  10   3  658.53   58.69
   3 -15  10  716.73   59.99
  15 -10  -3  605.04   60.79
  10   3  15  667.13   73.59
   3  15  10  612.34   77.09
  15  10   3  638.74   65.39
 -10  -3  15  602.64   70.79
  12  -3  15 1093.49   85.09
   3 -15  12 1027.10   82.99
 -15  12   3 1019.10   84.49
  -3  15  12 1057.59   99.49
  12  -3  15  963.20   93.09
  15 -12   3 1042.80   85.39
 -12   3  15 1060.89   91.69
  15  12   3  884.61   90.19
  12   3  15  853.41   93.89
  15 -12  -3  868.41   83.99
   3  15  12  846.72   98.99
   3 -15  14   16.00   16.10
  14  -3  15   36.10   22.60
 -15  14   3   44.90   20.50
  14  -3  15   28.90   28.70
  -3  15  14   26.90   35.60
 -14   3  15   23.10   23.50
  15 -14   3   14.40   21.50
  15 -14  -3   32.30   21.30
   3  15  14   34.00   36.20
  15  14   3   19.70   28.70
  14   3  15   14.10   31.10
   1  -4  15 1207.38  105.89
   4 -15   1 1203.78   95.79
  -1   4  15 1298.67  105.49
  15   1  -4 1100.49   94.19
   1  -4  15 1127.59   92.49
   1   4  15 1188.18  105.39
  15  -1  -4 1090.29   94.29
   4 -15  -1 1104.09   95.49
  -1  -4  15 1139.09  105.29
  15   3  -4 1011.50   78.19
  15  -3   4  987.40   80.59
   3  -4  15 1050.19   91.39
   4 -15   3 1056.69   80.09
   3  -4  15  982.40   77.19
  -3   4  15 1032.10   90.89
  -3  -4  15  917.81   89.29
   3   4  15  860.41   90.49
  15  -3  -4  868.81   78.59
  15   3   4  837.32   76.39
   4 -15  -3  818.02   79.29
  15   5  -4   26.60    9.60
   4 -15   5   25.50   15.70
   5  -4  15    3.40   28.60
  15  -5   4   30.20   18.90
  -4  15   5   35.30   33.50
   5  -4  15   35.10   13.70
  -5   4  15   29.40   30.50
  -5  -4  15   16.50   26.70
  15   5   4    4.20   13.50
   5   4  15    9.10   31.50
   4  15   5    4.30   29.80
  15  -5  -4    7.40   15.80
   4 -15  -5   10.50   17.30
  -7   4  15  265.77   41.00
   4 -15   7  249.38   31.90
   7  -4  15  199.48   38.70
   7  -4  15  245.88   30.10
  15  -7   4  232.68   33.80
  -4  15   7  289.67   44.20
   4  15   7  251.07   42.90
  15   7   4  277.07   33.90
   7   4  15  375.96   46.10
  -7  -4  15  255.57   39.30
  15  -7  -4  254.97   31.40
  15  -9   4  225.08   28.40
 -15   9   4  190.98   23.40
  -9   4  15  235.98   40.00
  -4  15   9  234.28   41.50
   4 -15   9  213.48   29.60
   9  -4  15  201.48   30.00
   9  -4  15  208.58   37.20
  15  -9  -4  233.58   30.50
  15   9   4  200.68   30.80
   9   4  15  299.07   43.30
  -9  -4  15  206.38   38.40
   4  15   9  203.28   40.30
  15 -11   4  794.62   74.09
 -11   4  15  875.51   82.09
  11  -4  15  857.21   73.29
   4 -15  11  830.72   71.79
  -4  15  11  834.52   88.29
  11  -4  15  847.42   83.19
 -15  11   4  799.02   71.89
  15  11   4  851.91   79.09
  11   4  15  873.01   85.49
   4  15  11  881.71   90.29
  15 -11  -4  807.12   72.99
 -13   4  15  493.25   56.19
  13  -4  15  426.66   60.09
  -4  15  13  477.85   67.09
 -15  13   4  497.55   48.80
   4 -15  13  478.25   45.50
  15 -13   4  484.25   49.70
  13  -4  15  514.55   49.50
  15 -13  -4  357.56   47.50
   4  15  13  480.65   62.99
  13   4  15  449.36   61.69
  15  13   4  471.45   57.69
  15   0  -5 1675.53  131.19
   0  -5  15 1605.84  140.79
   5 -15   0 1646.24  132.69
   0  -5  15 1557.54  129.39
   0   5  15 1662.73  141.29
  15   2  -5  531.05   43.70
   2  -5  15  513.35   41.80
  15  -2   5  508.85   47.90
  -2   5  15  456.55   60.19
   5 -15   2  504.55   46.80
   2  -5  15  472.55   58.99
   5 -15  -2  462.95   46.40
  -2  -5  15  434.36   57.99
  15  -2  -5  472.25   44.20
  15   2   5  445.06   42.10
   2   5  15  475.35   60.99
   5 -15   4   30.20   16.50
  15   4  -5   24.20   12.60
   4  -5  15   17.50   12.10
  -4   5  15   25.40   28.90
  15  -4   5   57.89   19.90
   4  -5  15   24.50   31.80
  -4  -5  15   15.30   29.60
   4   5  15    5.10   28.10
   5 -15  -4   27.60   18.30
  15   4   5    4.40   13.00
  15  -4  -5   11.30   13.70
   6  -5  15  349.37   37.50
   5 -15   6  351.36   40.00
  15  -6   5  377.26   41.90
  -6   5  15  364.56   54.29
   6  -5  15  350.76   54.09
  -5  15   6  382.96   56.89
   5 -15  -6  428.96   41.40
  15   6   5  412.96   41.00
   6   5  15  375.16   56.29
   5  15   6  452.15   59.29
  -6  -5  15  388.06   54.09
  15  -6  -5  426.86   39.10
 -15   8   5  172.98   19.80
  -8   5  15  231.78   38.40
   8  -5  15  152.18   34.60
   8  -5  15  229.68   25.00
  15  -8   5  198.58   26.30
  -5  15   8  193.38   37.40
   5 -15   8  231.18   25.30
  15   8   5  143.99   27.50
   5  15   8  129.89   39.10
   8   5  15   79.99   34.30
  15  -8  -5  149.69   22.90
 -15  10   5   28.70   13.10
  15 -10   5   33.10   21.70
 -10   5  15   40.40   29.40
  -5  15  10   -2.80   32.00
   5 -15  10    4.60   15.50
  10  -5  15   -3.00   30.90
  10  -5  15    5.10   16.40
  15 -10  -5    8.80   16.40
  15  10   5   -1.90   22.90
   5  15  10   33.80   34.00
  10   5  15   43.60   33.80
  12  -5  15  457.15   46.90
 -12   5  15  441.66   56.19
 -15  12   5  500.85   45.90
  -5  15  12  455.45   65.39
  15 -12   5  492.45   48.90
   5 -15  12  462.95   44.70
  12   5  15  385.86   54.79
   5  15  12  466.25   68.89
  15 -12  -5  383.36   45.90
  15  12   5  424.26   56.79
  15 -14   5   63.59   21.70
  14  -5  15   44.50   23.70
  -5  15  14   26.80   35.60
   5 -15  14   58.19   19.20
 -15  14   5   85.39   21.50
 -14   5  15   62.59   26.20
  14   5  15   46.10   34.40
   5  15  14   41.40   39.00
  15  14   5   46.60   30.80
  15 -14  -5   33.30   20.80
   6 -15   1    8.10   16.50
   1  -6  15   12.40   28.90
   1  -6  15   11.00    8.90
  15   1  -6   18.40   11.80
  -1   6  15   -4.20   30.60
  15  -1  -6   29.80   13.40
  -1  -6  15    9.40   28.30
   1   6  15   37.00   29.90
   6 -15  -1   17.40   17.80
  15   1   6   19.20   11.70
  -3   6  15  105.09   33.30
   3  -6  15  138.49   33.80
  15   3  -6  156.58   21.40
   3  -6  15  156.98   18.40
   6 -15   3  174.78   24.10
  15  -3   6  131.89   23.20
  -3  -6  15  127.19   34.00
   3   6  15  131.49   34.40
  15  -3  -6  158.58   19.80
   6 -15  -3  156.78   22.60
  15   3   6  175.48   21.60
   6 -15   5  376.96   40.60
   5  -6  15  391.16   37.30
  15  -5   6  384.16   41.80
  -5   6  15  416.96   55.79
   5  -6  15  374.56   55.79
  -6  15   5  357.26   55.39
  15   5  -6  355.96   36.10
  -5  -6  15  454.15   55.49
   6  15   5  400.46   58.19
   6 -15  -5  389.86   41.10
  15   5   6  402.86   41.10
  15  -5  -6  397.26   38.30
   5   6  15  445.36   55.99
  -6  15   7  101.29   33.50
  15  -7   6  139.89   23.20
   7  -6  15  125.49   19.10
   7  -6  15  137.19   36.90
   6 -15   7  150.38   21.40
  -7   6  15  149.39   35.40
 -15   7   6  112.29   15.00
  15  -7  -6   96.39   19.00
  15   7   6  119.49   23.70
   7   6  15   67.49   32.30
   6  15   7  123.49   37.50
   6 -15  -7   73.39   20.10
   6 -15   9  152.28   22.80
   9  -6  15  185.38   38.90
  -9   6  15  202.28   36.50
 -15   9   6  149.59   22.50
  15  -9   6  191.48   26.80
  -6  15   9  178.78   36.70
   9  -6  15  192.68   24.00
   9   6  15  151.68   36.20
  15  -9  -6  147.09   23.20
   6  15   9  123.89   37.30
  15   9   6  157.88   29.60
  15 -11   6  139.79   27.30
   6 -15  11  153.28   24.10
  11  -6  15  132.19   24.70
 -15  11   6  208.08   27.80
  -6  15  11  104.49   37.40
 -11   6  15  203.28   36.90
  15 -11  -6  234.28   25.80
   6  15  11  289.07   48.10
  15  11   6  244.88   35.80
  11   6  15  199.48   37.60
 -13   6  15  280.27   40.30
   6 -15  13  253.87   33.70
  15 -13   6  271.47   39.20
  -6  15  13  300.27   49.40
 -15  13   6  308.97   36.80
  13  -6  15  255.27   37.10
  15  13   6  278.67   43.80
   6  15  13  245.88   48.60
  15 -13  -6  302.07   34.20
  13   6  15  233.68   44.20
  15   0  -7  184.28   22.50
   7 -15   0  235.98   26.40
   0  -7  15  155.28   18.10
   0  -7  15  187.78   36.80
  15   0   7  180.18   25.00
   0   7  15  232.58   39.20
   2  -7  15  133.19   16.00
  15   2  -7  131.19   16.70
   2  -7  15  120.39   36.30
  -2   7  15  110.09   33.50
  15  -2   7  112.29   22.20
   7 -15   2  122.29   23.00
  15  -2  -7  138.79   18.00
  15   2   7  154.38   21.20
   7 -15  -2  118.29   22.70
   2   7  15  134.59   37.90
   4  -7  15  197.88   39.30
   4  -7  15  219.58   27.50
  15  -4   7  251.97   34.30
  15   4  -7  234.38   25.60
  -7  15   4  246.58   40.90
   7 -15   4  237.98   31.60
  -4   7  15  268.27   40.50
  15  -4  -7  245.78   28.10
   7 -15  -4  271.17   31.80
  15   4   7  269.97   33.00
   7  15   4  257.67   41.40
   4   7  15  278.47   42.00
   6  -7  15  126.29   18.30
  -7  15   6  146.39   36.10
 -15   6   7  113.59   14.60
  15  -6   7  131.49   24.30
  -6   7  15  105.39   32.80
   7 -15   6  140.09   22.30
  15   6  -7  137.59   15.90
   7  15   6   77.69   35.40
  15  -6  -7   87.69   18.10
   7 -15  -6   80.69   20.10
  15   6   7  104.49   23.40
   6   7  15   98.09   33.70
   7 -15   8   61.49   18.50
  15  -8   7   64.49   20.80
  -8   7  15   66.59   30.70
   8  -7  15   51.29   18.20
  -7  15   8   26.30   29.20
 -15   8   7   62.09   14.40
  15   8   7  133.79   25.70
   7 -15  -8  106.49   19.80
   7  15   8   74.89   33.30
  15  -8  -7  118.69   18.70
   8   7  15  133.59   35.10
  10  -7  15   18.40   16.80
   7 -15  10   -7.10   16.50
 -10   7  15   19.80   30.70
  -7  15  10   -0.70   30.50
  15 -10   7   14.80   21.20
  15 -10  -7   14.20   16.40
  15  10   7   40.10   26.60
  10   7  15    6.70   33.20
   7  15  10   38.40   37.70
   7 -15  12  342.07   37.70
  15 -12   7  280.17   41.20
 -15  12   7  393.86   38.50
 -12   7  15  400.96   48.20
  -7  15  12  343.77   49.40
  12  -7  15  318.17   39.70
  15  12   7  316.67   45.70
  15 -12  -7  254.67   37.90
   7  15  12  312.67   54.99
  12   7  15  263.07   46.50
 -14   7  15  219.08   36.30
  14  -7  15  197.38   30.00
 -15  14   7  256.57   34.50
  15 -14   7  187.38   30.50
   7 -15  14  232.98   33.10
  -7  15  14  189.38   43.80
  15 -14  -7  243.78   30.60
  15  14   7  227.38   41.30
  14   7  15  266.47   44.90
   7  15  14  231.58   47.30
   8 -15   1   14.60   17.00
  15   1  -8   29.20   11.30
  -1   8  15   12.40   29.60
   1  -8  15   17.30    9.60
   1   8  15   63.89   34.90
  15  -1  -8   71.49   12.80
   8 -15  -1   51.39   19.20
  15   1   8   45.90   16.90
  15  -3   8  218.18   30.30
   8 -15   3  208.38   25.50
  -3   8  15  246.88   41.40
   3  -8  15  195.78   22.90
  15   3  -8  193.18   21.50
   3   8  15  131.49   36.50
  15  -3  -8  157.18   23.30
  15   3   8  160.48   26.10
   8 -15  -3  157.28   25.60
  15   5  -8  188.78   20.00
   5  -8  15  192.08   24.30
 -15   5   8  158.28   18.90
  -8  15   5  197.48   36.80
  15  -5   8  201.48   27.20
   8 -15   5  208.88   25.40
  -5   8  15  185.68   36.60
   5   8  15   91.69   34.80
   8  15   5  157.38   39.40
  15  -5  -8  147.69   20.90
   8 -15  -5  143.79   25.20
  15   5   8  114.99   25.80
  -7   8  15   50.19   34.50
  -8  15   7   56.09   31.30
 -15   7   8   77.29   14.60
   8 -15   7   61.29   19.80
  15   7  -8   66.49   11.80
  15  -7   8   50.99   20.50
   7  -8  15   61.19   17.80
   7   8  15   95.29   33.00
  15   7   8  136.79   26.60
   8  15   7  132.19   37.80
   8 -15  -7   85.99   19.50
  -8  15   9  141.59   36.90
   8 -15   9  102.19   20.70
   9  -8  15  119.39   21.20
  -9   8  15  141.39   34.90
 -15   9   8  118.89   19.00
  15  -9   8  128.09   25.50
  15   9   8   97.19   28.10
  15  -9  -8  108.49   20.20
   8 -15  -9  117.39   21.60
   8  15   9   97.79   35.10
   9   8  15   84.39   35.30
   8 -15  11  201.58   27.10
  11  -8  15  155.78   26.20
 -15  11   8  224.98   30.00
 -11   8  15  138.19   36.40
  15 -11   8  173.68   28.40
  -8  15  11  194.08   42.70
  15 -11  -8  188.98   25.20
   8  15  11  164.28   41.60
  11   8  15  242.28   45.10
  15  11   8  245.88   37.60
 -13   8  15   16.90   29.80
 -15  13   8   57.19   18.80
  -8  15  13   -7.80   34.90
   8 -15  13    8.80   18.60
  15 -13   8   19.10   22.70
  13  -8  15   18.90   20.30
   8  15  13   18.80   40.70
  15  13   8   -1.90   31.70
  13   8  15   42.50   37.50
  15 -13  -8   37.30   19.60
  15   0   9  420.36   42.90
   0  -9  15  394.26   35.10
   9 -15   0  415.66   42.40
   0   9  15  381.96   56.99
  15   0  -9  417.86   36.30
  15   2  -9  215.18   22.60
  15  -2   9  257.87   30.70
   2  -9  15  241.38   24.20
   9 -15   2  216.68   30.70
  -2   9  15  174.68   38.40
  15   2   9  247.38   30.30
  15  -2  -9  230.48   25.10
   9 -15  -2  200.18   27.00
   2   9  15  184.38   39.10
  -9  15   4  235.18   38.80
 -15   4   9  223.48   23.20
  15  -4   9  195.78   27.40
  15   4  -9  197.28   21.80
  -4   9  15  201.28   38.80
   4  -9  15  194.08   26.20
   9 -15   4  229.38   27.40
   9  15   4  181.68   37.20
   4   9  15  241.28   43.00
  15  -4  -9  194.28   25.40
  15   4   9  249.28   35.20
   9 -15  -4  201.68   27.00
   6  -9  15  185.48   22.80
  -9  15   6  200.08   37.20
 -15   6   9  159.08   22.50
   9 -15   6  159.88   24.50
  -6   9  15  148.79   37.50
  15  -6   9  189.18   27.90
   9  15   6  127.39   35.00
   9 -15  -6  171.58   25.90
  15  -6  -9  174.28   21.50
  15   6   9  177.68   30.10
   6   9  15  133.79   37.60
  15  -8   9   80.09   22.60
  -9  15   8   84.99   33.00
   8  -9  15  109.39   20.60
  -8   9  15   93.29   35.70
   9 -15   8  115.19   23.60
 -15   8   9  142.79   20.40
   9  15   8  141.99   40.50
   8   9  15  140.39   40.60
  15   8   9  133.79   29.40
   9 -15  -8  130.09   23.10
  15  -8  -9  152.68   21.10
 -10   9  15  216.28   39.70
  -9  15  10  165.08   39.20
  15 -10   9  113.49   27.40
   9 -15  10  163.88   26.30
  10  -9  15  155.78   26.50
 -15  10   9  238.68   30.00
  15 -10  -9  225.58   25.70
  10   9  15  152.88   40.20
   9  15  10  241.48   46.20
  15  10   9  218.38   36.10
  -9  15  12  312.47   47.20
 -15  12   9  295.77   35.90
  15 -12   9  301.77   40.30
   9 -15  12  270.67   37.00
 -12   9  15  373.86   47.10
  12  -9  15  277.77   38.80
   9  15  12  255.77   50.99
  12   9  15  203.48   44.20
  15 -12  -9  262.07   36.30
  15  12   9  263.87   43.80
 -14   9  15   61.69   29.70
  -9  15  14   86.09   38.50
  15 -14   9   49.60   23.10
   9 -15  14   94.39   22.70
  14  -9  15   65.59   23.70
  14   9  15   67.99   38.00
   9  15  14   50.19   42.40
  15 -14  -9   68.19   22.80
  15  14   9   44.60   35.50
  -1  10  15  243.88   43.80
  15  -1  10  237.88   37.90
   1 -10  15  255.57   28.30
  10 -15   1  292.37   35.60
  15   1 -10  299.27   30.40
  10 -15  -1  352.96   37.10
   1  10  15  388.76   50.49
  -1 -10  15  311.47   26.90
  15  -1 -10  335.17   28.90
  15   1  10  334.57   39.20
  15  -3  10  726.63   61.59
 -10  15   3  744.83   70.49
  10 -15   3  690.93   60.09
  -3  10  15  706.23   74.49
   3 -10  15  704.33   55.99
   3  10  15  585.74   74.29
  10 -15  -3  585.64   59.79
  15  -3 -10  611.54   55.39
  10  15   3  609.34   72.39
  15   3  10  577.94   63.19
  10 -15   5   13.90   19.80
 -10  15   5   16.50   27.20
 -15   5  10   29.10   13.30
  -5  10  15   17.20   34.40
   5 -10  15   15.20   14.10
  15  -5  10   20.00   19.20
  15   5  10    9.70   22.40
  15  -5 -10   10.50   13.30
  10  15   5   31.00   30.70
   5  10  15   13.00   30.60
  10 -15  -5   15.90   18.60
  10 -15   7   22.30   20.20
 -10  15   7    3.10   26.40
   7 -10  15   16.20   16.70
  -7  10  15   25.00   30.60
  15  -7  10    6.20   21.50
  15   7  10   26.70   25.10
  15  -7 -10   36.60   15.50
  10  15   7   11.40   32.00
  10 -15  -7   36.50   18.40
   7  10  15   33.40   32.70
 -10  15   9  195.38   40.00
   9 -10  15  212.08   26.60
  10 -15   9  189.78   28.20
  -9  10  15  118.49   38.00
  15  -9  10  157.68   28.60
 -15   9  10  212.98   29.10
  15  -9 -10  202.28   28.90
  10 -15  -9  180.08   26.10
  10  15   9  228.98   45.50
  15   9  10  239.38   38.90
   9  10  15  226.68   44.90
  15 -11  10  216.58   31.10
 -11  10  15  248.58   42.20
  11 -10  15  239.58   31.50
  10 -15  11  188.98   28.90
 -10  15  11  192.48   40.40
 -15  11  10  288.97   32.90
  15 -11 -10  243.48   33.40
  15  11  10  290.37   42.40
  11  10  15  313.57   49.70
  10  15  11  235.08   47.40
  15 -13  10  226.08   32.30
  13 -10  15  291.57   38.00
  10 -15  13  270.87   36.30
 -13  10  15  288.87   43.40
 -10  15  13  314.97   46.50
  13  10  15  197.68   45.70
  15  13  10  196.18   44.40
  10  15  13  181.28   48.10
  15 -13 -10  203.18   30.70
   0  11  15   66.99   37.90
   0 -11  15   77.69   11.90
  15   0  11   66.39   23.10
  11 -15   0   63.19   21.40
  -2  11  15  449.06   64.79
  15  -2  11  422.86   48.10
  11 -15   2  419.76   47.10
  15  -2  11  399.36   49.99
   2 -11  15  408.16   41.40
  11 -15  -2  509.15   47.60
  15  -2 -11  525.35   40.60
  11  15   2  473.85   60.99
  15   2  11  519.25   52.19
   2  11  15  552.94   66.99
   4 -11  15  828.92   70.59
  11 -15   4  774.32   73.79
 -11  15   4  790.62   81.19
  15  -4  11  837.82   74.69
  -4  11  15  780.82   86.19
 -15   4  11  797.12   71.79
  11 -15  -4  898.91   73.89
  11  15   4  875.61   84.99
  15  -4 -11  871.41   69.49
  15   4  11  886.41   78.69
   4  11  15  841.32   88.09
 -15   6  11  208.58   27.70
  11 -15   6  132.29   25.50
 -11  15   6  124.29   32.80
  15  -6  11  184.58   28.50
  -6  11  15  126.89   38.60
   6 -11  15  142.79   23.20
  11  15   6  281.87   43.90
  15   6  11  237.38   34.80
  11 -15  -6  219.88   26.70
   6  11  15  266.27   45.50
  15  -6 -11  229.98   25.40
  11 -15   8  173.68   29.10
 -15   8  11  242.48   30.50
 -11  15   8  127.09   36.10
   8 -11  15  182.08   26.40
  15  -8  11  180.98   29.90
  -8  11  15  241.28   46.00
  15  -8 -11  227.48   28.60
  11  15   8  244.48   43.20
  15   8  11  234.98   37.80
  11 -15  -8  228.18   28.90
   8  11  15  174.78   41.50
  15 -10  11  223.88   32.50
  10 -11  15  210.38   29.50
  11 -15  10  245.98   31.90
 -15  10  11  230.48   32.80
 -10  11  15  299.87   46.70
 -11  15  10  289.47   44.60
  10  11  15  223.18   45.60
  15  10  11  336.47   45.90
  11 -15 -10  242.48   35.80
  15 -10 -11  255.17   33.10
  11  15  10  309.47   51.49
 -12  11  15   20.00   32.90
  11 -15  12   14.80   21.60
 -15  12  11    0.20   13.90
 -11  15  12   34.20   31.30
  15 -12  11   17.30   22.40
  12 -11  15   14.30   21.10
  11  15  12   29.40   36.40
  15 -12 -11    3.20   18.70
  12  11  15   28.80   37.20
  15  12  11   49.50   34.00
 -14  11  15  212.38   37.90
  11 -15  14  232.88   30.30
 -11  15  14  165.78   41.10
  14 -11  15  178.18   30.50
  15 -14  11  174.38   31.10
  14  11  15  102.29   43.20
  15 -14 -11  141.29   27.70
  15  14  11  127.29   42.60
  11  15  14  106.59   45.60
  15  -1  12  266.37   37.20
   1 -12  15  278.57   28.30
  12 -15   1  264.47   36.10
  -1  12  15  197.08   43.50
  15   1  12  221.78   36.70
  -1 -12  15  319.37   26.40
   1  12  15  304.17   50.69
  12 -15  -1  283.37   33.40
  -3  12  15 1084.49   98.29
  12 -15   3 1061.19   84.29
 -12  15   3 1008.40   90.49
  15  -3  12 1074.89   85.19
   3 -12  15 1067.69   80.59
 -15   3  12  989.50   83.19
  15   3  12  875.51   88.59
  12  15   3  828.22   92.39
  12 -15  -3  864.21   83.69
   3  12  15  925.61   98.29
  15  -3 -12  876.61   79.39
   5 -12  15  441.86   41.30
  -5  12  15  560.14   65.19
 -15   5  12  488.35   44.00
  12 -15   5  445.86   45.30
  15  -5  12  446.66   47.10
 -12  15   5  428.86   54.69
  15   5  12  395.56   53.89
  12 -15  -5  392.96   45.20
  12  15   5  311.07   49.70
   5  12  15  283.47   52.79
  15  -5 -12  411.56   38.80
  12 -15   7  311.17   38.70
 -12  15   7  399.16   50.29
  -7  12  15  386.96   51.69
   7 -12  15  299.27   34.80
 -15   7  12  365.36   37.30
  15  -7  12  348.17   40.80
  15  -7 -12  285.87   32.90
  15   7  12  290.57   43.40
   7  12  15  220.38   47.00
  12  15   7  237.88   44.40
  12 -15  -7  248.58   38.00
  12 -15   9  233.28   31.80
   9 -12  15  300.07   35.80
 -15   9  12  302.47   35.60
  -9  12  15  342.97   50.49
  15  -9  12  297.37   40.40
 -12  15   9  345.47   45.60
  15   9  12  291.87   44.80
   9  12  15  342.27   53.99
  15  -9 -12  246.38   32.90
  12 -15  -9  207.28   31.20
  12  15   9  171.38   43.10
 -12  15  11   50.79   32.20
 -11  12  15    2.70   32.00
  11 -12  15    5.30   21.60
  12 -15  11   31.70   23.00
  15 -11  12   -6.30   21.60
 -15  11  12  -16.00   13.30
  12  15  11   -9.90   38.30
  11  12  15    5.20   35.70
  15  11  12   12.20   32.10
  15 -11 -12   21.40   18.70
 -12  15  13  827.02   88.29
  13 -12  15  864.81   76.59
  12 -15  13  807.52   75.99
 -13  12  15  867.31   88.49
  15 -13  12  859.91   77.69
  15 -13 -12  820.72   74.99
  12  15  13  832.92   95.59
  13  12  15  810.82   94.69
  15  13  12  835.22   90.99
   0 -13  15 1438.66  116.89
   0  13  15 1451.45  132.89
  13 -15   0 1456.65  120.29
  15   0  13 1458.35  125.49
  13 -15   2  195.98   27.50
  15  -2  13  232.08   34.00
 -13  15   2  178.08   32.00
   2 -13  15  172.08   24.30
  15  -2  13  148.19   26.60
 -15   2  13  217.18   28.00
  -2  13  15  132.29   41.20
   2  13  15  127.29   40.10
  15   2  13  176.08   34.30
  13 -15  -2  215.68   28.40
  13  15   2  207.18   37.30
  -4  13  15  504.95   69.49
  13 -15   4  508.05   50.09
  15  -4  13  495.25   50.69
 -13  15   4  453.95   56.09
 -15   4  13  503.45   48.80
   4 -13  15  479.15   44.90
  13 -15  -4  423.06   48.60
  13  15   4  476.75   61.79
   4  13  15  471.25   70.59
  15   4  13  454.75   58.49
  15  -6  13  212.48   31.10
 -15   6  13  318.17   35.20
 -13  15   6  297.87   40.00
  13 -15   6  291.27   36.90
   6 -13  15  276.77   32.70
  -6  13  15  192.18   43.10
   6  13  15  247.48   48.00
  13  15   6  182.38   39.80
  13 -15  -6  223.28   30.30
  15   6  13  300.97   43.80
 -13  15   8   21.90   26.80
  -8  13  15   39.50   37.80
  15  -8  13   18.00   20.90
   8 -13  15   22.70   18.20
  13 -15   8   33.40   22.90
  15   8  13   15.30   31.90
  13 -15  -8   -3.10   19.70
   8  13  15   36.10   42.70
  13  15   8   26.90   33.20
  15  -8 -13   12.30   15.40
 -10  13  15  219.58   44.50
  13 -15  10  297.07   38.90
  10 -13  15  280.17   36.80
 -13  15  10  282.27   42.60
  15 -10  13  248.58   33.30
  13 -15 -10  233.48   33.10
  13  15  10  227.68   48.90
  15  10  13  222.38   44.60
  10  13  15  242.68   53.09
 -13  15  12  763.92   84.39
  15 -12  13  813.12   76.39
  12 -13  15  802.92   74.69
 -12  13  15  858.41   89.19
  13 -15  12  795.72   75.39
  13  15  12  874.51   94.59
  12  13  15  809.42   94.79
  15  12  13  905.41   91.79
 -13  15  14  262.07   47.90
  14 -13  15  252.87   35.70
 -14  13  15  241.58   44.10
  13 -15  14  266.87   35.30
  15 -14  13  178.68   33.30
  15  14  13  224.78   49.10
  14  13  15  322.27   53.29
  13  15  14  350.56   59.09
 -14  15   1  166.68   31.40
   1 -14  15  163.18   23.80
  14 -15   1  168.38   27.60
  -1  14  15  133.59   41.60
  15  -1  14  161.38   33.40
   1  14  15  189.18   48.40
  14  15   1  227.08   39.30
  15   1  14  200.18   35.20
  14 -15  -1  223.58   28.50
  14 -15   3   50.69   20.60
   3 -14  15   22.50   15.10
 -15   3  14   32.40   20.20
  15  -3  14   15.90   22.30
 -14  15   3   21.50   23.60
  -3  14  15   55.99   36.40
  15   3  14   14.80   29.30
   3  14  15   28.80   36.60
  14 -15  -3    4.00   19.80
  14  15   3   37.50   29.70
  15  -5  14   43.10   24.70
 -14  15   5   48.20   25.90
  -5  14  15   -2.50   34.90
   5 -14  15   44.10   17.10
  14 -15   5   47.00   22.60
 -15   5  14  108.49   22.10
   5  14  15   41.30   37.80
  14 -15  -5   39.20   20.90
  14  15   5   35.10   32.10
  15   5  14   46.60   30.90
  15  -7  14  216.78   33.80
 -14  15   7  245.98   36.30
  -7  14  15  201.08   43.90
   7 -14  15  250.77   29.40
 -15   7  14  237.58   34.70
  14 -15   7  235.88   32.90
  15   7  14  253.07   42.90
  14  15   7  205.48   41.90
  14 -15  -7  247.38   35.70
   7  14  15  221.08   47.50
 -14  15   9   73.59   28.30
  -9  14  15   67.59   35.70
   9 -14  15   52.69   21.00
  15  -9  14   82.19   26.70
  14 -15   9  102.39   24.90
   9  14  15   79.69   46.60
  15   9  14   52.69   38.20
  14  15   9   71.79   40.00
  14 -15  -9   56.79   23.80
 -11  14  15  169.88   42.30
  14 -15  11  120.29   26.60
  11 -14  15  149.79   25.70
 -14  15  11  147.09   34.00
  15 -11  14  199.68   31.20
  11  14  15  106.19   44.20
  14 -15 -11  126.49   27.60
  15  11  14  105.89   41.00
  14  15  11  138.19   44.20
  14 -15  13  206.98   34.00
 -13  14  15  297.37   48.50
  15 -13  14  305.87   38.00
  13 -14  15  206.58   32.50
 -14  15  13  281.97   44.90
  14  15  13  316.27   53.59
  15  13  14  218.58   49.70
  13  14  15  245.88   52.09
 -15  15   0 2363.96  202.48
   0  15  15 2540.55  213.08
  15 -15   0 2426.46  200.18
  15   0  15 2485.35  206.18
  15  15   0 2561.84  206.18
 -15   2  15  517.25   53.39
 -15  15   2  519.85   53.59
  -2  15  15  544.55   74.89
   2 -15  15  529.65   45.50
  15  -2  15  538.95   61.39
  15  -2  15  566.64   52.29
  15 -15   2  511.05   51.29
   2  15  15  358.46   66.09
  15   2  15  336.57   54.29
  15  15   2  386.86   55.69
 -15   4  15  204.78   28.90
 -15  15   4  180.88   28.40
  -4  15  15  126.09   42.70
   4 -15  15  175.78   22.40
  15  -4  15  159.38   28.80
  15 -15   4  130.49   25.40
  15 -15  -4   96.49   25.00
   4  15  15  127.89   45.50
  15   4  15  121.99   36.70
  15  15   4   94.39   34.70
 -15   6  15  281.27   37.80
 -15  15   6  269.77   36.40
  -6  15  15  170.08   46.10
   6 -15  15  230.68   33.10
  15  -6  15  216.28   32.70
  15 -15   6  205.58   31.80
  15 -15  -6  229.68   31.20
   6  15  15  308.57   53.79
  15   6  15  285.37   45.40
  15  15   6  291.87   45.70
  -8  15  15  279.07   52.89
   8 -15  15  264.17   31.00
  15  -8  15  226.08   33.20
  15 -15   8  248.08   33.30
  15 -15  -8  195.18   30.70
   8  15  15  203.28   48.70
  15   8  15  238.38   45.00
  15  15   8  215.58   44.20
 -10  15  15  568.24   77.59
  10 -15  15  557.24   57.69
  15 -10  15  603.44   60.19
  15 -15  10  577.34   60.39
  15 -15 -10  565.04   58.09
  10  15  15  600.94   83.69
  15  10  15  674.13   77.79
  15  15  10  567.54   76.79
 -12  15  15  834.22   91.19
  12 -15  15  784.72   76.09
  15 -12  15  803.82   77.19
  15 -15  12  757.02   77.19
  12  15  15  880.41   98.59
  15  12  15  911.61   95.99
  15  15  12  922.91   94.89
 -15  14  15    8.50   12.50
 -14  15  15   75.49   37.50
  14 -15  15   60.69   26.60
  15 -14  15   50.29   25.70
  15 -15  14   35.10   26.30
  14  15  15  140.39   49.20
  15  14  15  136.19   49.20
  15  15  14  124.99   45.60
   0   0  16  200.78   35.20
  16   0   0  145.49   21.50
   2   0  16 1131.69  102.79
  16  -2   0 1025.40   91.09
   0 -16   2 1096.29   91.29
  -2   0  16 1140.09  101.79
   4   0  16   83.89   31.70
   0 -16   4   88.19   18.50
  16  -4   0   90.79   18.60
  -4   0  16  118.59   34.50
   0  16   6  126.79   37.60
  16  -6   0  226.88   27.20
  -6   0  16  157.28   35.30
   0 -16   6  196.18   28.10
   6   0  16  222.18   40.60
   0 -16   8  170.18   22.40
  16  -8   0  166.18   24.90
  16   8   0  156.98   22.50
   0  16   8  120.79   36.70
   8   0  16  161.38   36.80
  -8   0  16  166.08   37.00
  16 -10   0  175.48   27.70
   0  16  10  204.58   44.90
  16  10   0  209.58   28.90
   0 -16  10  184.68   23.40
  10   0  16  157.98   36.50
 -10   0  16  194.88   36.80
 -12   0  16  231.78   37.80
  16  12   0  227.68   33.20
  16 -12   0  197.68   28.10
   0  16  12  153.38   42.80
   0 -16  12  189.98   27.70
  12   0  16  230.18   40.70
  14   0  16   30.90   31.20
   0 -16  14    9.20   13.80
   0  16  14  -22.50   37.10
 -16  14   0   -2.90    6.20
  16  14   0    6.60   25.80
  16 -14   0    2.20   20.90
  16  -1   1 5448.65  455.45
  16   1  -1 5551.84  455.25
   1 -16   1 5458.05  455.45
   1  -1  16 5494.95  461.05
  -1   1  16 5612.94  461.15
  16  -1  -1 6197.98  455.65
   1 -16  -1 6003.00  455.75
  -1  -1  16 5986.40  461.65
   1   1  16 5989.50  461.75
   1 -16   3   57.09   19.30
  -3   1  16   54.69   29.80
   3  -1  16   45.70   30.70
  16  -3   1   41.00   17.60
  -3  -1  16   75.89   31.20
  16  -3  -1  118.59   19.40
   3   1  16  126.19   33.70
  -5   1  16   32.30   30.90
  -1  16   5   56.69   34.90
  16  -5   1   35.30   17.60
   1 -16   5   44.30   17.40
   5  -1  16   42.90   30.50
   5   1  16  107.49   32.40
   1  16   5   80.39   37.20
  16  -5  -1   73.09   18.00
  -5  -1  16  102.09   32.20
   7  -1  16   38.90   29.80
  -1  16   7   46.00   37.30
  -7   1  16   19.30   31.50
  16   7  -1   25.90   11.90
  16  -7   1   19.50   19.10
   1 -16   7   27.40   16.00
   1  16   7   65.59   37.90
  16   7   1   48.10   13.90
  -1 -16   7   39.00   16.00
   7   1  16   37.40   30.10
  16  -7  -1   64.19   19.50
  -7  -1  16   62.49   31.30
  16   9  -1   42.10   17.90
   9  -1  16   39.10   32.30
   1 -16   9   25.20   15.80
  16  -9   1   37.50   20.00
  -9   1  16   74.49   31.10
  -1  16   9   48.00   38.30
  16   9   1   20.50   18.30
  -9  -1  16   29.50   29.50
  16  -9  -1   20.60   18.40
   9   1  16   20.80   28.90
  -1 -16   9   19.40   15.00
   1  16   9   -1.20   35.00
  -1  16  11  605.64   73.29
  11  -1  16  575.34   67.79
 -11   1  16  567.14   66.09
  16 -11   1  571.24   55.29
   1 -16  11  587.34   51.99
  16  11  -1  562.44   56.79
  16  11   1  557.64   57.99
   1  16  11  513.85   73.39
  16 -11  -1  580.44   55.09
 -11  -1  16  531.65   64.99
  11   1  16  576.54   68.49
 -13   1  16  710.13   72.19
  13  -1  16  693.63   76.69
   1 -16  13  737.93   60.89
  -1  16  13  696.03   83.09
  16  13  -1  762.02   70.39
  16 -13   1  677.53   64.79
  16 -13  -1  692.93   65.09
   1  16  13  578.54   83.59
  13   1  16  649.83   75.99
  16  13   1  678.73   70.49
  16 -15   1  116.19   25.90
  -1  16  15   87.39   42.20
   1 -16  15  130.59   19.00
  15  -1  16   91.59   35.80
  16  15  -1  115.79   33.20
  15  -1  16  113.19   27.30
  16 -15  -1  159.48   26.50
  15   1  16  170.18   37.80
   1  16  15  227.58   53.29
  16  15   1  155.08   35.10
   0  -2  16  959.70   82.69
   2 -16   0 1038.30   86.89
   0  -2  16 1098.79   96.99
   0   2  16 1163.18   98.49
  16   0  -2  990.80   85.99
  16   2  -2 3015.50  253.27
  -2   2  16 3287.37  261.27
   2 -16   2 3074.99  253.67
  16  -2   2 3140.19  254.07
   2  -2  16 3046.70  252.17
   2  -2  16 3325.37  261.37
  16  -2  -2 3212.18  253.57
   2   2  16 3336.77  261.07
  -2  -2  16 3280.07  260.87
   2 -16  -2 3158.58  253.97
   4  -2  16 1046.10   97.09
  -4   2  16 1143.59   97.49
  16  -4   2 1172.18   87.49
   2 -16   4 1116.19   86.49
  16  -4  -2  886.51   85.89
   4   2  16  864.91   97.49
  -4  -2  16  911.21   96.09
  -6   2  16  472.45   59.09
   6  -2  16  475.25   60.29
   2 -16   6  472.85   43.50
  16  -6   2  464.05   44.50
  -2  16   6  419.96   62.29
  -6  -2  16  421.76   57.99
  16  -6  -2  412.96   43.50
   2  16   6  424.36   63.09
   6   2  16  484.25   58.99
  16   6   2  388.56   39.20
  16   8  -2  402.56   38.80
   8  -2  16  405.66   57.19
  -8   2  16  382.96   54.89
  -2  16   8  462.95   61.89
   2 -16   8  405.96   39.70
  16  -8   2  387.06   42.20
  -8  -2  16  389.76   50.39
   2  16   8  417.86   61.19
  16   8   2  327.57   40.20
  16  -8  -2  345.67   40.60
   8   2  16  347.17   49.99
 -10   2  16  360.06   44.00
  16 -10   2  284.77   37.00
  16  10  -2  281.97   36.50
  10  -2  16  265.97   42.70
   2 -16  10  316.27   33.20
  -2  16  10  266.67   47.00
  16  10   2  279.47   38.60
   2  16  10  201.58   45.00
 -10  -2  16  239.28   41.10
  10   2  16  306.87   47.50
  16 -10  -2  249.58   35.80
  16  12  -2  268.47   37.70
  12  -2  16  243.58   43.40
  16 -12   2  269.37   39.40
 -12   2  16  298.77   44.10
  -2  16  12  330.37   55.99
  12  -2  16  280.27   35.20
   2 -16  12  235.48   34.00
  16 -12  -2  380.76   39.20
  16  12   2  433.46   46.00
   2  16  12  308.37   49.70
  12   2  16  353.66   46.50
  16  14  -2  930.91   88.29
  14  -2  16  983.60   82.39
  -2  16  14 1053.79  102.39
   2 -16  14  964.10   78.19
 -14   2  16  978.10   86.99
  14  -2  16  964.80   91.19
  16 -14   2  984.70   81.89
  14   2  16  798.22   92.29
  16 -14  -2  886.81   81.59
  16  14   2  785.22   87.49
   2  16  14  732.53   98.79
   1  -3  16   54.19   10.80
   3 -16   1   36.60   17.70
   1  -3  16   61.29   32.80
  16  -1   3   53.29   20.30
  16   1  -3   47.50   15.30
  -1   3  16   46.90   31.10
   1   3  16   72.09   31.10
  -1  -3  16  133.29   34.20
   3 -16  -1   93.29   18.60
  16  -1  -3  101.69   17.40
   3  -3  16   95.69   34.30
   3  -3  16  108.59   15.00
   3 -16   3  121.19   21.60
  16  -3   3  107.89   21.10
  -3   3  16  139.09   35.70
  -3  -3  16   50.59   31.50
   3 -16  -3   78.79   21.60
  16  -3  -3   69.69   17.80
   3   3  16   83.69   31.90
   3 -16   5  225.38   33.90
  16  -5   3  265.17   34.90
  -3  16   5  243.98   43.70
   5  -3  16  239.68   43.10
  -5   3  16  239.58   42.00
   5  -3  16  237.28   30.60
  -5  -3  16  303.67   42.50
  16  -5  -3  364.96   33.90
  16   5   3  324.07   27.60
   3  16   5  410.96   51.09
   5   3  16  358.96   51.59
  16  -7   3   71.19   22.10
  16   7  -3   75.39   15.90
   7  -3  16   60.99   17.30
   3 -16   7   79.49   18.90
  -3  16   7   92.29   37.80
  -7   3  16   46.60   29.60
   7  -3  16   52.49   31.80
   7   3  16  129.29   32.90
   3  16   7  223.98   41.70
  -7  -3  16  144.29   32.70
  16  -9   3  520.55   55.89
   9  -3  16  568.64   53.79
   9  -3  16  550.74   68.39
  16   9  -3  499.15   54.69
  -3  16   9  511.75   71.99
   3 -16   9  537.05   53.19
  -9   3  16  573.54   67.19
   3  16   9  654.03   72.09
   9   3  16  688.13   70.29
  16  -9  -3  653.13   54.59
  16   9   3  643.74   57.19
  -9  -3  16  639.44   67.69
  16 -11   3   89.69   22.70
 -11   3  16   73.39   30.70
  -3  16  11   58.69   36.20
  11  -3  16   55.79   19.20
  11  -3  16   84.19   34.00
   3 -16  11   59.59   18.90
   3  16  11   69.89   40.00
  11   3  16   78.09   36.60
  16 -11  -3   29.70   19.10
  16  11   3   60.49   24.70
  -3  16  13  218.58   47.00
  13  -3  16  217.58   42.80
  16 -13   3  263.37   38.70
 -13   3  16  287.87   41.40
   3 -16  13  253.27   33.20
  13  -3  16  283.67   37.80
  13   3  16  243.48   45.10
   3  16  13  309.17   51.99
  16  13   3  306.07   41.10
  16 -13  -3  321.67   38.00
   3 -16  15  529.15   50.19
  15  -3  16  499.95   55.79
  16 -15   3  529.25   55.69
  -3  16  15  367.16   64.09
 -15   3  16  592.84   58.69
   3  16  15  591.54   79.49
  15   3  16  556.44   68.99
  16 -15  -3  582.14   55.49
  16  15   3  580.34   66.19
   4 -16   0  123.79   21.40
   0   4  16   92.09   34.20
  16   0  -4   83.59   16.60
   0  -4  16  103.79   34.70
   0  -4  16   86.19   12.60
  16  -2   4 1097.69   85.69
   2  -4  16 1095.79   96.49
   2  -4  16 1063.29   81.49
   4 -16   2 1108.99   85.09
  16   2  -4 1075.89   83.19
  -2   4  16 1051.09   96.49
   4 -16  -2  854.91   84.39
   2   4  16  830.22   94.29
  -2  -4  16  881.01   94.69
  16  -2  -4  893.41   83.29
   4  -4  16   39.90   13.20
   4 -16   4   39.40   19.50
   4  -4  16   35.70   31.80
  16  -4   4   17.70   18.00
  -4   4  16   16.80   31.30
  -4  -4  16   44.50   29.50
   4   4  16   48.40   33.80
  16  -4  -4   65.69   17.30
   4 -16  -4   34.70   18.30
  16   4   4   51.69   10.20
  16  -6   4   24.70   19.80
   4 -16   6   26.10   18.20
  -6   4  16  -14.70   27.40
  16   6  -4   28.30   10.00
  -4  16   6   33.90   35.40
   6  -4  16   11.90   33.30
   6  -4  16   13.70   14.20
   6   4  16   31.20   30.20
   4  16   6   18.30   33.30
  16   6   4   17.20   14.20
  -6  -4  16    5.30   29.50
  16  -6  -4   22.80   17.20
  16  -8   4   38.30   20.00
   4 -16   8   50.99   17.50
   8  -4  16   56.69   31.20
  -4  16   8   46.60   33.50
   8  -4  16   67.39   18.30
  -8   4  16   36.30   30.70
   8   4  16    9.60   33.80
  -8  -4  16   34.60   31.50
  16   8   4   44.80   19.30
  16  -8  -4   29.10   16.70
   4  16   8   68.39   38.40
  10  -4  16  164.48   37.50
   4 -16  10  249.78   31.00
 -10   4  16  250.07   40.00
  10  -4  16  221.38   31.70
  -4  16  10  233.98   46.40
  16 -10   4  189.28   28.40
  16  10   4  234.08   33.00
  10   4  16  237.18   42.90
  16 -10  -4  204.88   26.90
   4  16  10  215.58   43.10
  12  -4  16   21.00   30.80
   4 -16  12  -13.10   16.40
  12  -4  16    1.90   19.00
 -12   4  16    0.30   27.90
  16 -12   4    2.80   21.80
  -4  16  12  -22.00   34.10
 -16  12   4  -10.20    6.00
   4  16  12   10.10   36.20
  16  12   4   11.70   26.30
  12   4  16   16.50   31.00
  16 -12  -4   20.60   20.50
   4 -16  14  299.47   35.80
  16 -14   4  303.27   40.30
  14  -4  16  294.97   40.30
 -14   4  16  333.17   42.00
  -4  16  14  252.67   48.80
  16 -14  -4  260.87   39.40
   4  16  14  318.27   56.69
  14   4  16  263.67   46.40
  16  14   4  262.27   42.10
  -1   5  16   34.90   30.90
   1  -5  16   33.80    9.50
  16  -1   5   20.40   18.20
   5 -16   1   25.40   17.90
   1  -5  16   39.00   32.70
  16   1  -5   31.60   14.20
   1   5  16  117.19   36.80
  -1  -5  16  116.99   35.30
   5 -16  -1  106.39   20.50
   5 -16   3  246.68   35.20
   3  -5  16  246.88   28.20
  16  -3   5  274.17   36.70
   3  -5  16  239.98   45.30
  -3   5  16  258.57   43.40
  16   3  -5  228.48   30.10
  16  -3  -5  324.37   32.30
  -3  -5  16  392.06   46.80
  16   3   5  326.87   27.50
   3   5  16  376.36   48.50
   5 -16  -3  326.77   35.90
   5  -5  16  344.37   35.10
  -5  16   5  338.87   48.40
  16  -5   5  342.17   39.80
   5  -5  16  382.96   56.39
  -5   5  16  399.96   55.89
   5 -16   5  360.46   38.90
   5 -16  -5  387.16   40.10
  16  -5  -5  349.37   37.00
  16   5   5  314.07   35.80
   5   5  16  364.56   50.09
  -5  -5  16  391.16   54.49
   5  16   5  385.26   51.69
  16  -7   5  188.48   26.30
  -5  16   7  150.68   37.20
  -7   5  16  149.09   33.60
   7  -5  16  169.98   36.00
   5 -16   7  180.88   22.50
   7  -5  16  155.18   20.20
  -7  -5  16   85.29   32.30
   7   5  16   89.79   37.80
   5  16   7  109.59   36.60
  16  -7  -5   94.59   20.60
  16   7   5   90.29   22.00
  -9   5  16  401.66   57.79
  -5  16   9  493.95   61.59
  16  -9   5  443.06   44.90
   9  -5  16  402.46   58.09
   9  -5  16  449.26   40.70
   5 -16   9  429.46   41.70
   5  16   9  350.66   55.39
   9   5  16  331.27   52.29
  16   9   5  297.27   45.20
  16  -9  -5  307.27   40.70
  16 -11   5  318.87   38.00
  -5  16  11  236.68   43.60
  11  -5  16  290.57   34.00
  11  -5  16  317.47   45.80
 -11   5  16  291.87   40.80
   5 -16  11  286.67   33.50
  11   5  16  112.79   38.80
  16 -11  -5  192.28   30.00
  16  11   5  163.88   34.90
   5  16  11  170.58   45.30
 -13   5  16  182.18   35.30
  -5  16  13   74.09   38.60
  16 -13   5  112.09   26.10
   5 -16  13  128.79   22.80
  13  -5  16  105.09   23.60
  16  13   5  209.98   36.20
  13   5  16  207.78   41.90
   5  16  13  259.67   51.39
   5 -16  15  353.86   40.80
  16 -15   5  339.97   46.30
  -5  16  15  294.57   53.89
  15  -5  16  334.77   45.50
 -15   5  16  352.46   45.90
  16 -15  -5  418.76   45.10
   5  16  15  317.37   56.59
  15   5  16  546.65   63.09
  16  15   5  463.05   59.29
  16   0  -6  181.78   24.60
   6 -16   0  228.48   26.60
   0  -6  16  160.58   17.60
   0  -6  16  233.28   42.20
   0   6  16  190.28   39.10
   2  -6  16  473.95   39.00
   6 -16   2  480.15   45.70
  16   2  -6  484.45   40.90
  16  -2   6  498.05   46.60
  -2   6  16  409.56   60.69
   2  -6  16  508.45   60.19
   2   6  16  412.26   58.89
  16  -2  -6  413.16   41.30
  16   2   6  371.26   39.20
  -2  -6  16  418.86   59.09
   6 -16  -2  417.06   44.40
   6 -16   4   53.79   19.50
   4  -6  16   28.30   34.40
  16   4  -6   24.70   12.50
  -4   6  16   24.10   33.80
   4  -6  16   11.50   12.20
  16  -4   6   16.10   18.90
   6 -16  -4    9.30   17.60
  16   4   6   17.20   14.20
   4   6  16   19.90   33.10
  16  -4  -6   18.90   14.60
  -4  -6  16   12.20   29.80
   6  -6  16   35.40   15.30
  -6  16   6   43.10   32.10
  -6   6  16   51.49   34.40
   6 -16   6   15.30   17.80
   6  -6  16   20.20   32.60
  16  -6   6   50.19   20.00
   6   6  16   96.19   34.10
   6  16   6   92.49   34.10
   6 -16  -6  105.69   20.20
   6 -16   8  245.28   30.80
   8  -6  16  209.68   41.10
  -6  16   8  173.18   40.40
  -8   6  16  245.08   44.10
   8  -6  16  194.18   30.50
  16  -8   6  269.97   33.20
  16   8   6  306.27   38.10
   6  16   8  326.57   49.80
   8   6  16  331.77   48.90
  16  -8  -6  296.87   32.80
  10  -6  16  556.74   53.59
  16 -10   6  618.04   56.89
   6 -16  10  563.04   53.89
 -10   6  16  572.44   68.69
  -6  16  10  545.25   71.09
  16 -10  -6  546.25   53.69
   6  16  10  545.15   73.89
  16  10   6  538.25   60.89
  10   6  16  621.24   70.89
  16 -12   6  319.27   41.50
  12  -6  16  277.97   38.50
  -6  16  12  443.26   54.89
 -12   6  16  303.17   44.70
   6 -16  12  287.27   37.10
  16  12   6  303.07   43.00
   6  16  12  354.16   57.09
  12   6  16  312.07   47.60
  16 -12  -6  250.77   38.40
  14  -6  16   -8.60   21.40
   6 -16  14   16.60   19.20
  16 -14   6    9.40   22.20
 -16  14   6   -2.70    7.10
  -6  16  14    9.30   39.40
 -14   6  16   16.60   26.70
  14   6  16   17.50   35.10
  16  14   6   -0.20   30.70
   6  16  14   -6.00   39.00
  16 -14  -6   -6.20   20.80
   1  -7  16   21.40    9.20
   1  -7  16   35.80   32.00
  -1   7  16   13.40   34.30
  16   1  -7   24.60   13.00
   7 -16   1    5.20   18.10
   7 -16  -1   33.00   18.10
  16   1   7   42.00   13.60
   1   7  16   34.40   31.70
  -1  -7  16   55.59   34.50
  16  -1  -7   69.79   13.90
  16  -3   7   77.99   20.90
  -3   7  16   56.29   32.60
   3  -7  16   86.69   14.70
  16   3  -7   78.09   14.60
   3  -7  16   56.49   34.10
   7 -16   3   67.89   20.40
   3   7  16  118.99   35.20
   7 -16  -3  138.39   21.10
  -7  16   5  214.28   40.10
  -5   7  16  199.08   41.40
   5  -7  16  178.08   24.40
  16   5  -7  181.08   21.70
  16  -5   7  157.78   25.30
   5  -7  16  183.18   42.20
   7 -16   5  202.68   26.20
   5   7  16  102.39   36.30
  16   5   7  102.49   23.20
   7  16   5   71.59   34.70
   7 -16   7  257.77   29.40
  -7   7  16  181.88   39.10
  16  -7   7  303.17   32.30
   7  -7  16  204.98   29.10
  16   7  -7  206.28   24.80
  -7  16   7  169.98   37.80
   7 -16  -7  246.68   29.70
  16   7   7  205.08   30.50
   7  16   7  260.27   46.50
  16  -7  -7  207.78   29.00
   7   7  16  165.98   39.80
  16  -9   7  299.77   40.10
  -7  16   9  218.08   43.40
  -9   7  16  293.87   46.30
   9  -7  16  240.78   34.50
   7 -16   9  279.57   33.10
   9   7  16  293.57   46.20
   7  16   9  281.17   46.60
  16  -9  -7  347.17   34.70
  16   9   7  313.77   42.90
  16 -11   7   52.49   23.90
  -7  16  11   25.20   36.10
   7 -16  11   42.10   19.00
 -11   7  16   74.69   34.40
  11  -7  16   33.00   20.60
  11   7  16   39.00   38.10
  16  11   7   60.59   28.20
  16 -11  -7   50.39   19.10
   7  16  11   63.99   37.60
  16 -13   7  169.68   29.90
   7 -16  13  164.68   25.80
 -13   7  16  163.28   37.80
  13  -7  16  178.18   30.10
  -7  16  13  150.58   41.70
  13   7  16  172.28   41.50
  16 -13  -7  256.07   30.30
   7  16  13  263.27   53.19
  16  13   7  193.48   39.20
  16 -15   7  158.78   28.90
  15  -7  16  131.19   27.70
  -7  16  15  181.48   47.50
   7 -16  15  147.59   25.20
   7  16  15   91.19   47.20
  16  15   7  130.69   38.50
  15   7  16  105.99   40.10
  16 -15  -7  137.99   27.40
  16   0  -8  155.88   18.80
   0  -8  16  138.59   16.30
   8 -16   0  179.48   25.40
   0   8  16  164.48   38.70
  16  -2   8  439.16   43.50
   2  -8  16  407.36   34.60
   8 -16   2  446.56   42.10
  -2   8  16  414.16   52.99
  16   2  -8  423.16   35.30
   2   8  16  297.17   49.50
  16   2   8  320.67   39.20
  16  -2  -8  347.57   36.00
   8 -16  -2  296.37   40.70
  -4   8  16   53.29   32.70
  -8  16   4   72.19   35.20
  16   4  -8   65.09   12.30
  16  -4   8   72.79   22.80
   8 -16   4   60.49   20.70
   4  -8  16   54.99   14.20
  16  -4  -8   31.80   14.80
   8  16   4   47.20   33.60
   4   8  16   18.70   32.90
   8 -16  -4   20.40   18.40
  16   4   8   28.50   18.40
  16   6  -8  219.78   24.20
  -8  16   6  193.58   39.00
  16  -6   8  192.88   28.70
   8 -16   6  192.18   27.30
  -6   8  16  202.78   40.20
   6  -8  16  200.68   28.70
  16  -6  -8  259.57   29.10
   6   8  16  347.17   45.90
   8 -16  -6  253.77   32.90
   8  16   6  247.68   41.50
  16   6   8  257.77   35.60
  16  -8   8  501.25   56.19
  -8  16   8  599.14   69.99
  -8   8  16  631.24   71.89
  16   8  -8  567.34   49.50
   8 -16   8  606.14   55.39
   8  -8  16  571.14   54.19
  16   8   8  597.44   60.79
  16  -8  -8  571.54   53.19
   8   8  16  604.34   73.09
   8 -16  -8  595.34   55.99
   8  16   8  637.94   72.89
  10  -8  16  400.16   41.70
  16 -10   8  399.26   43.90
 -10   8  16  387.36   50.19
  -8  16  10  427.36   60.59
   8 -16  10  408.26   41.80
  16 -10  -8  311.97   40.10
  16  10   8  332.07   45.30
   8  16  10  279.17   53.19
  10   8  16  351.36   54.29
  16 -12   8  519.05   51.99
 -12   8  16  462.65   63.49
  12  -8  16  466.35   49.70
   8 -16  12  497.05   48.60
  -8  16  12  513.35   69.09
  12   8  16  479.15   68.39
  16  12   8  492.35   61.59
   8  16  12  324.67   57.79
  16 -12  -8  445.46   48.50
   8 -16  14   32.20   19.80
  -8  16  14   20.50   40.90
  16 -14   8   26.70   24.30
 -14   8  16    7.70   28.30
  14  -8  16   29.80   21.80
   8  16  14   46.30   45.80
  16  14   8   29.80   34.40
  14   8  16   40.50   37.90
  16 -14  -8   42.30   22.50
   1  -9  16   31.50   10.00
   9 -16   1   25.70   19.30
  16   1  -9   29.20   10.80
  -1   9  16   31.50   32.50
  16   1   9   19.90   16.90
   1   9  16  -21.90   34.10
  16  -1  -9   32.90   12.30
   9 -16  -1   29.50   20.50
   3  -9  16  509.75   50.29
  -3   9  16  560.04   71.79
  16  -3   9  588.94   56.89
  16   3  -9  519.85   49.10
   9 -16   3  519.75   54.79
   9  16   3  692.03   70.89
   9 -16  -3  630.74   55.99
  16   3   9  649.04   56.89
  16  -3  -9  669.33   51.29
   3   9  16  676.43   72.79
  16  -5   9  448.76   43.70
  -9  16   5  422.06   55.89
  -5   9  16  454.85   60.89
   5  -9  16  421.36   37.20
   9 -16   5  431.96   41.50
   9  16   5  362.16   53.39
   9 -16  -5  308.67   40.90
   5   9  16  313.47   49.99
  16  -5  -9  315.67   36.70
  16   5   9  282.17   43.70
  -7   9  16  190.28   42.50
   7  -9  16  266.17   33.10
  -9  16   7  191.78   40.00
   9 -16   7  257.67   35.80
  16  -7   9  286.27   38.80
   7   9  16  317.37   48.70
  16   7   9  300.47   42.00
   9 -16  -7  287.77   36.30
   9  16   7  252.17   44.00
  16  -7  -9  351.36   32.90
  16  -9   9  644.44   60.49
   9  -9  16  597.74   56.59
  -9  16   9  615.34   72.49
  -9   9  16  638.84   73.09
   9 -16   9  546.65   57.19
   9 -16  -9  553.74   57.39
   9   9  16  616.84   75.89
   9  16   9  613.04   75.19
  16   9   9  602.44   65.29
  16  -9  -9  649.24   55.89
  -9  16  11   26.30   35.20
  16 -11   9    4.50   23.70
   9 -16  11    8.70   19.50
 -16  11   9  -16.70    6.90
 -11   9  16   46.30   33.00
  11  -9  16   -0.60   19.40
  11   9  16  -14.30   33.50
  16 -11  -9   -2.20   18.70
  16  11   9    5.00   28.40
   9  16  11  -17.70   37.50
 -13   9  16  304.37   46.40
  16 -13   9  287.97   40.60
  -9  16  13  260.87   49.50
   9 -16  13  246.68   36.30
  13  -9  16  235.48   32.70
  16  13   9  297.87   46.10
   9  16  13  209.78   49.70
  13   9  16  239.98   50.49
  16 -13  -9  267.27   37.40
   9 -16  15  100.19   24.30
  16 -15   9  122.79   28.80
  15  -9  16   94.99   26.60
  -9  16  15  136.69   44.50
  16  15   9   66.19   39.80
  16 -15  -9   45.60   23.90
  15   9  16   61.79   39.90
   9  16  15   70.29   47.40
   0 -10  16  189.88   19.10
   0  10  16  172.48   41.60
  10 -16   0  193.38   27.80
  16   0  10  183.38   27.30
  16   0 -10  169.88   21.00
  -2  10  16  294.57   46.60
   2 -10  16  299.37   27.90
  16  -2  10  316.47   38.50
  10 -16   2  321.27   36.40
  16   2  10  235.58   37.00
  10 -16  -2  258.27   35.00
   2  10  16  260.87   45.60
  16  -2 -10  234.48   27.90
  10 -16   4  224.98   29.10
 -10  16   4  197.18   37.10
   4 -10  16  215.88   26.70
  16  -4  10  221.68   30.20
  -4  10  16  230.58   41.80
  16   4  10  249.88   33.50
  10  16   4  278.97   44.90
  16  -4 -10  224.58   26.90
   4  10  16  181.98   42.30
  10 -16  -4  250.07   33.10
  16  -6  10  587.34   56.49
 -10  16   6  580.64   66.79
  10 -16   6  565.14   54.79
   6 -10  16  585.64   51.99
  -6  10  16  594.24   71.99
   6  10  16  622.14   73.99
  10  16   6  532.45   69.19
  16  -6 -10  565.24   51.19
  16   6  10  518.85   59.69
  10 -16  -6  547.35   54.59
  -8  10  16  457.85   56.49
   8 -10  16  396.06   39.30
  16  -8  10  434.16   44.30
  10 -16   8  427.16   42.30
 -10  16   8  347.47   48.70
  10 -16  -8  319.57   42.20
   8  10  16  355.46   56.49
  10  16   8  242.78   49.10
  16  -8 -10  342.17   39.00
  16   8  10  318.37   45.00
 -10  10  16  431.36   58.19
  10 -16  10  384.96   45.60
 -10  16  10  355.46   53.19
  16 -10  10  378.06   48.10
  10 -10  16  410.26   44.40
  10  16  10  465.05   61.29
  16  10  10  445.26   58.39
  16 -10 -10  445.36   43.60
  10  10  16  459.95   61.29
  16 -12  10  603.84   62.79
 -12  10  16  638.04   74.69
 -10  16  12  613.94   77.89
  10 -16  12  690.03   60.79
  12 -10  16  661.03   61.09
  12  10  16  625.44   80.19
  16  12  10  607.54   73.19
  10  16  12  602.04   82.19
  16 -12 -10  594.14   59.29
 -10  16  14   16.30   35.30
 -14  10  16   34.20   31.40
 -16  14  10   10.70   10.30
  16 -14  10   52.39   27.20
  10 -16  14   51.29   21.80
  14 -10  16   42.50   23.60
  16 -14 -10  125.69   24.60
  10  16  14  101.19   49.50
  16  14  10  163.78   41.50
  14  10  16  108.29   46.40
   1 -11  16  573.04   47.30
  11 -16   1  533.95   52.99
  16  -1  11  532.65   55.49
  -1  11  16  595.84   72.79
  11 -16  -1  562.14   53.69
   1  11  16  507.75   70.29
  16   1  11  533.65   56.09
  16  -3  11   65.09   22.80
 -11  16   3   57.49   29.00
   3 -11  16   82.19   14.40
  11 -16   3   32.30   21.20
  -3  11  16   71.09   35.20
  16  -3 -11   47.60   13.60
  11 -16  -3   38.30   20.10
   3  11  16   50.09   37.50
  16   3  11   47.70   23.70
  11  16   3   38.30   33.90
  11 -16   5  281.77   33.90
  -5  11  16  226.68   42.70
  16  -5  11  274.97   36.40
 -11  16   5  309.87   40.10
  11  16   5  129.49   37.30
  16   5  11  176.38   32.70
   5  11  16  203.98   46.50
  16  -5 -11  189.08   26.00
  11 -16  -5  165.08   27.70
   7 -11  16   62.19   18.40
  11 -16   7   35.80   20.10
 -11  16   7   66.59   31.80
  -7  11  16   66.89   35.90
  16  -7  11   52.49   22.30
  16   7  11   64.19   28.00
   7  11  16   56.89   39.10
  16  -7 -11   60.69   16.80
  11  16   7   52.29   33.70
  11 -16  -7   56.69   23.00
  -9  11  16  -18.70   33.60
   9 -11  16  -11.40   18.80
  16  -9  11   -8.30   21.70
 -16   9  11  -14.40    6.90
  11 -16   9   -0.10   19.50
 -11  16   9   18.90   31.30
  11 -16  -9    3.20   21.30
   9  11  16  -13.80   34.50
  11  16   9    1.90   33.80
  16  -9 -11  -15.50   16.50
  16   9  11   12.10   28.20
 -11  11  16  562.94   68.89
  11 -11  16  464.75   50.09
 -11  16  11  487.95   66.29
  16 -11  11  434.96   52.79
  11 -16  11  473.65   50.69
  16  11  11  469.95   65.49
  11  16  11  518.85   67.09
  11  11  16  486.75   65.49
  16 -11 -11  449.36   48.10
  13 -11  16  307.47   38.80
  16 -13  11  325.87   45.60
 -11  16  13  257.77   49.90
 -13  11  16  294.97   49.30
  11 -16  13  219.68   34.90
  11  16  13  430.36   61.89
  16  13  11  386.16   52.59
  13  11  16  433.36   58.79
  16 -13 -11  390.66   41.60
  11 -16  15   26.30   23.60
 -11  16  15   35.70   40.20
  15 -11  16    8.10   23.70
 -16  15  11    6.20    9.20
  16 -15  11   22.10   25.30
  16  15  11   25.60   36.30
  15  11  16   43.20   41.40
  16 -15 -11   15.50   23.00
  11  16  15   38.70   49.00
  12 -16   0  250.27   31.50
   0  12  16  213.28   46.80
  16   0  12  221.98   33.40
  12 -16   2  197.68   29.80
  -2  12  16  234.38   45.40
  16  -2  12  257.37   37.60
   2 -12  16  244.68   27.30
 -12  16   2  240.68   38.70
  12  16   2  432.06   54.59
   2  12  16  368.86   50.79
  16  -4  12   -8.80   22.80
 -12  16   4   -6.00   26.10
 -16   4  12   -0.30    6.30
   4 -12  16    5.90   13.60
  12 -16   4    7.90   19.30
  -4  12  16  -23.90   32.40
  16  -4 -12   17.50   12.10
  12  16   4   12.90   34.00
  12 -16  -4   16.30   19.90
  16   4  12   14.90   25.20
   4  12  16   13.20   34.50
  12 -16   6  317.67   41.70
  16  -6  12  314.47   42.90
  -6  12  16  382.96   56.19
   6 -12  16  298.27   36.50
 -12  16   6  341.37   46.10
  12 -16  -6  322.27   40.50
  16  -6 -12  310.77   34.20
  12  16   6  413.26   54.79
   6  12  16  403.56   57.29
  16   6  12  365.16   46.50
  12 -16   8  476.45   50.09
  16  -8  12  497.65   51.79
   8 -12  16  432.86   47.00
  -8  12  16  465.75   69.69
 -12  16   8  442.36   62.09
   8  12  16  521.85   73.49
  12  16   8  474.05   67.79
  16  -8 -12  477.35   45.20
  16   8  12  471.65   61.49
  12 -16  -8  449.66   49.50
 -12  16  10  632.94   72.89
 -10  12  16  684.23   77.59
  12 -16  10  648.84   61.59
  10 -12  16  654.93   59.59
  16 -10  12  661.53   62.89
  12 -16 -10  594.74   60.79
  16  10  12  583.34   73.79
  16 -10 -12  620.34   57.79
  12  16  10  610.84   79.99
  10  12  16  546.35   82.09
  16 -12  12  819.02   72.69
 -12  16  12  729.23   84.19
  12 -16  12  808.52   71.29
 -12  12  16  780.22   85.69
  12 -12  16  814.02   70.59
  16  12  12  748.13   85.99
  16 -12 -12  658.83   68.89
  12  12  16  714.03   91.39
  12  16  12  733.63   91.49
  12 -16  14  150.38   28.40
 -12  16  14  170.18   44.70
 -14  12  16  146.39   38.50
  16 -14  12  134.99   31.70
  14 -12  16  122.79   27.80
  14  12  16  109.19   46.00
  12  16  14   67.99   44.80
  16  14  12   65.49   40.60
  16 -14 -12  134.99   26.80
 -13  16   1  720.53   71.79
  16  -1  13  708.23   68.89
  -1  13  16  698.03   81.69
   1 -13  16  751.72   57.29
  13 -16   1  719.13   64.09
  16   1  13  560.24   68.39
  13  16   1  653.33   75.99
  13 -16  -1  621.84   63.89
   1  13  16  591.84   82.49
  -3  13  16  253.37   49.80
   3 -13  16  230.08   29.80
  13 -16   3  247.88   33.20
 -13  16   3  270.47   39.70
  16  -3  13  262.97   34.40
  13 -16  -3  322.47   37.70
  13  16   3  312.27   47.10
  16   3  13  304.87   40.10
   3  13  16  256.07   47.70
  13 -16   5  141.69   27.10
   5 -13  16  157.58   22.80
 -13  16   5  144.29   34.10
  -5  13  16   91.49   42.10
  16  -5  13  110.99   26.20
  13  16   5  228.38   42.20
   5  13  16  194.28   43.60
  13 -16  -5  243.78   28.90
  16   5  13  179.08   34.80
   7 -13  16  175.68   25.30
  -7  13  16  182.88   44.90
  13 -16   7  135.09   26.80
  16  -7  13  177.18   29.80
 -13  16   7   91.29   34.50
  13  16   7  152.98   41.20
  13 -16  -7  180.88   27.70
  16   7  13  215.68   39.00
   7  13  16  176.08   44.60
  16  -7 -13  197.38   22.60
 -13  16   9  299.17   43.70
  -9  13  16  261.07   50.09
  16  -9  13  331.97   38.40
   9 -13  16  241.38   36.30
  13 -16   9  246.28   33.50
  16  -9 -13  242.68   33.10
  16   9  13  273.97   45.60
  13 -16  -9  284.67   34.80
  13  16   9  254.57   49.60
   9  13  16  224.48   54.39
  16 -11  13  277.57   38.90
  13 -16  11  310.17   42.90
 -13  16  11  259.07   46.90
 -11  13  16  279.97   51.99
  11 -13  16  273.87   40.60
  11  13  16  375.06   58.59
  16  11  13  437.46   55.79
  13  16  11  328.27   52.69
  16 -13  13   28.40   24.50
  13 -13  16   69.19   25.00
 -13  13  16   55.29   38.30
 -13  16  13   21.30   34.00
  13 -16  13   28.20   24.20
  13  13  16   44.60   41.70
  16  13  13   66.09   40.60
  13  16  13   43.60   40.80
 -13  16  15  300.97   51.09
  15 -13  16  211.68   34.80
  13 -16  15  235.68   34.00
  16 -15  13  343.77   39.90
  15  13  16  222.98   52.99
  13  16  15  263.47   57.59
  16  15  13  222.58   52.09
  14 -16   0   19.70   23.00
   0  14  16  -12.70   41.20
  14  16   0   39.50   33.10
  16   0  14   45.10   27.30
   2 -14  16  960.90   76.39
 -14  16   2  946.01   85.99
  14 -16   2  900.31   80.89
  16  -2  14 1028.30   82.69
  -2  14  16  916.01   99.49
  14  16   2  829.02   90.89
  14 -16  -2  872.21   80.89
  16   2  14  867.31   87.79
   2  14  16  809.72   99.29
  -4  14  16  265.77   50.89
  16  -4  14  301.97   41.40
  14 -16   4  330.57   39.90
 -14  16   4  310.57   46.00
   4 -14  16  290.37   32.70
  16   4  14  260.57   43.10
  14 -16  -4  264.97   39.10
  14  16   4  296.97   48.40
   4  14  16  217.38   49.40
 -14  16   6   -2.10   25.40
  16  -6  14   -2.80   22.90
  -6  14  16  -11.80   36.20
  14 -16   6   18.90   21.20
   6 -14  16    4.20   17.20
 -16   6  14   -0.60    7.40
  14  16   6   31.10   35.30
  16   6  14   -5.40   30.90
  14 -16  -6    4.00   22.40
   6  14  16   28.10   44.90
   8 -14  16   16.50   20.40
 -14  16   8   44.60   28.20
  16  -8  14   24.10   22.30
 -16   8  14   -4.80    8.10
  -8  14  16   19.80   41.20
  14 -16   8   20.60   25.60
  16   8  14   27.70   34.70
  14 -16  -8   49.99   21.80
  14  16   8   42.10   36.00
   8  14  16   58.09   45.80
  16 -10  14   43.60   25.30
 -10  14  16   45.60   38.20
  14 -16  10   46.40   24.40
 -14  16  10   59.49   31.10
  10 -14  16   66.49   23.50
  10  14  16  131.59   50.49
  14 -16 -10  106.99   25.50
  16  10  14   99.79   38.90
  14  16  10   59.69   40.20
  16 -12  14  203.38   32.70
  14 -16  12  102.29   28.20
 -12  14  16  180.18   44.50
  12 -14  16  136.89   27.30
 -14  16  12  129.79   36.70
  16  12  14  118.59   43.00
  12  14  16  125.99   47.60
  14  16  12  129.89   46.00
 -14  14  16  682.33   80.19
  14 -16  14  674.83   67.39
  14 -14  16  669.73   67.29
  16 -14  14  577.34   68.09
 -14  16  14  622.94   78.49
  14  14  16  749.82   91.79
  16  14  14  788.82   88.09
  14  16  14  705.13   90.79
  -1  15  16  125.99   50.69
 -15  16   1  108.99   28.20
  16  -1  15  100.19   32.90
  15 -16   1   84.79   23.90
  16  -1  15  107.09   27.50
  15  16  -1   93.09   36.20
  16   1  15  200.78   36.80
  15  16   1  187.08   38.50
  15 -16  -1  152.68   25.40
   1  15  16  127.19   44.50
   3 -15  16  548.65   50.19
  15 -16   3  543.15   56.09
  16  -3  15  573.64   57.29
  -3  15  16  491.15   69.99
 -15  16   3  551.64   58.69
   3  15  16  551.74   82.29
  16   3  15  574.74   66.99
  15  16   3  506.25   68.99
  15 -16  -3  577.74   56.99
   5 -15  16  333.97   41.30
 -15  16   5  374.36   47.60
  15 -16   5  331.87   47.30
  -5  15  16  409.06   62.79
  16  -5  15  368.16   47.80
  16   5  15  501.55   60.99
  15 -16  -5  448.16   47.00
  15  16   5  450.35   62.79
   5  15  16  517.75   69.59
  -7  15  16  190.98   48.50
  15 -16   7  152.78   29.50
  16  -7  15  101.29   26.00
   7 -15  16  148.99   24.50
  16   7  15  152.78   40.30
  15 -16  -7  113.39   25.60
  15  16   7  109.99   42.00
   7  15  16  131.69   49.60
   9 -15  16  104.09   24.60
  15 -16   9   79.49   27.90
  -9  15  16  128.89   45.10
  16  -9  15  142.49   29.90
   9  15  16   58.99   44.80
  15 -16  -9   72.89   25.00
  16   9  15   81.79   40.30
  15  16   9   61.09   40.90
 -16  11  15   14.10   10.60
  15 -16  11    3.70   24.70
  11 -15  16    4.30   22.30
  16 -11  15    5.10   26.20
 -11  15  16   32.90   38.70
  16  11  15   22.00   41.20
  15  16  11   44.40   42.40
  11  15  16   23.80   42.00
  15 -16 -11    9.10   24.90
  13 -15  16  313.67   43.20
 -13  15  16  287.17   51.89
  16 -13  15  204.38   34.50
  15 -16  13  305.17   38.70
  13  15  16  198.38   53.09
  15  16  13  252.17   54.29
  16  13  15  224.38   51.69
  15 -16  15  497.95   59.79
  15 -15  16  496.25   59.39
  16 -15  15  521.55   60.59
  15  16  15  656.63   87.89
  15  15  16  643.24   87.39
  16  15  15  598.44   84.89
   0  16  16  914.81  105.99
  16 -16   0  963.30   83.79
  16   0  16  878.61   91.59
  16  16   0  943.11   91.79
  -2  16  16  912.81  107.99
  16  -2  16  954.50   89.49
  16  16  -2  960.00   97.19
  16 -16   2  946.61   88.49
   2  16  16 1043.50  111.19
  16   2  16 1057.19   98.69
  16 -16  -2 1096.29   89.69
  16  16   2 1063.89   99.09
 -16   4  16    2.40    8.90
 -16  16   4   22.90    9.40
  -4  16  16   34.20   46.20
   4 -16  16   30.30   17.20
  16  -4  16   61.69   26.30
  16 -16   4   31.80   23.40
  16 -16  -4   90.89   26.00
   4  16  16   48.90   43.00
  16   4  16   70.69   34.20
  16  16   4   47.80   33.80
 -16   6  16   11.70    9.20
  -6  16  16   40.30   39.90
   6 -16  16   36.40   19.50
  16  -6  16    3.00   21.80
  16 -16   6   43.30   23.50
  16 -16  -6   59.09   23.60
   6  16  16   53.39   48.70
  16   6  16   45.80   37.20
  16  16   6   60.79   37.60
  -8  16  16   74.49   40.50
   8 -16  16   51.19   21.10
  16  -8  16   94.09   28.10
  16 -16   8   76.69   27.10
  16 -16  -8   50.09   26.10
   8  16  16    0.10   50.19
  16   8  16   33.70   39.60
  16  16   8   18.50   37.80
 -10  16  16  162.58   47.20
  10 -16  16  166.48   26.60
  16 -10  16  151.38   30.50
  16 -16  10  103.99   27.10
  16 -16 -10   79.69   26.30
  10  16  16   66.79   49.10
  16  10  16   87.49   45.00
  16  16  10   71.19   43.30
 -12  16  16  137.59   44.00
  12 -16  16  114.39   27.40
  16 -12  16  130.39   28.70
  16 -16  12  127.69   28.00
  12  16  16  102.29   47.90
  16  12  16  100.09   46.40
  16  16  12   94.09   44.40
 -14  16  16  324.77   54.49
  14 -16  16  252.47   40.30
  16 -14  16  359.56   49.90
  16 -16  14  342.17   43.80
  14  16  16  474.25   69.69
  16  14  16  481.85   66.99
  16  16  14  449.06   64.99
  17   1   0 2419.56  197.48
  17  -1   0 2390.16  197.48
   1   0  17 2492.15  206.18
  -1   0  17 2551.34  206.08
  -3   0  17 1404.56  129.69
   3   0  17 1475.85  130.69
  17  -3   0 1500.65  120.19
   0 -17   3 1443.56  119.89
   5   0  17   17.50   33.10
   0 -17   5   13.30   18.40
  -5   0  17   26.30   31.10
   0  17   5    0.00   33.00
  17  -5   0    8.90   17.10
   0 -17   7    8.40   17.20
  17  -7   0    8.10   18.00
   0  17   7  -14.10   36.40
  -7   0  17    6.60   32.90
   7   0  17    5.90   31.10
  17  -9   0  136.79   23.60
  17   9   0  145.39   21.90
   0 -17   9  126.99   20.90
   0  17   9   67.79   38.20
  -9   0  17  132.39   36.70
   9   0  17  126.69   36.70
 -11   0  17   37.40   32.40
  17 -11   0   28.10   20.10
  11   0  17   34.70   34.90
   0 -17  11   41.00   16.90
  17  11   0   25.70   21.20
   0  17  11   47.10   41.50
  17  13   0  366.56   50.09
   0  17  13  398.66   60.99
 -13   0  17  464.05   57.79
  17 -13   0  407.16   44.80
  13   0  17  298.57   49.60
   0  17  15  384.26   63.39
  17 -15   0  503.35   52.59
  15   0  17  467.25   64.39
  17  15   0  499.65   59.79
   0   1  17 2489.05  204.28
   0  -1  17 2337.47  192.78
   0  -1  17 2384.36  203.18
  17   0  -1 2432.36  195.18
   1 -17   0 2514.05  195.68
  17   0   1 2432.16  195.48
  -2   1  17  834.72   82.69
   2  -1  17  895.81   84.29
   1 -17   2  817.62   69.99
  17  -2   1  798.52   69.79
  17   2  -1  816.12   68.69
   2   1  17  566.04   81.29
  17  -4   1  466.25   44.60
  -4   1  17  472.95   59.69
   4  -1  17  459.45   59.89
   1 -17   4  416.86   43.90
   4   1  17  421.76   61.39
  17  -4  -1  384.26   43.40
  -4  -1  17  467.15   61.19
  17  -6   1  143.09   22.90
  -6   1  17  165.98   37.30
   1 -17   6  162.38   22.40
  -1  17   6  142.09   40.50
   6  -1  17  176.78   39.40
  -6  -1  17   46.10   33.20
   1  17   6   75.19   39.30
   6   1  17   67.69   34.10
  -8   1  17    7.10   32.80
   8  -1  17   12.20   34.90
  17   8  -1   13.30   12.20
  -1  17   8    0.10   32.60
   1 -17   8   25.60   17.80
  17  -8   1   10.60   19.20
  -8  -1  17   11.90   29.70
   1  17   8  -19.40   32.30
   8   1  17   -5.00   32.10
  17   8   1    8.80   13.40
  17  -8  -1   -8.70   19.40
  -1  17  10  228.48   50.19
  17 -10   1  189.78   29.80
 -10   1  17  177.98   38.80
   1 -17  10  200.58   30.00
  17  10  -1  212.98   31.90
  10  -1  17  204.68   43.30
   1  17  10  226.48   48.00
 -10  -1  17  293.77   43.40
  10   1  17  274.97   46.10
  17 -10  -1  241.88   34.30
  17  10   1  240.48   34.30
  -1  17  12  212.08   50.09
  17  12  -1  209.08   31.50
   1 -17  12  180.58   24.10
 -12   1  17  175.48   37.60
  17 -12   1  222.58   29.90
  12  -1  17  246.18   42.50
  17  12   1  191.68   32.00
  17 -12  -1  130.49   26.00
  12   1  17  160.28   42.90
   1  17  12  181.48   48.60
 -12  -1  17  169.78   38.50
  14  -1  17 1065.49  104.09
  17 -14   1 1097.59   94.29
   1 -17  14 1084.19   89.99
 -14   1  17 1115.69  100.79
  -1  17  14 1086.59  114.09
  14  -1  17 1101.99   94.19
  17  14  -1 1071.99   98.69
  17 -14  -1 1066.99   93.89
  14   1  17 1072.49  104.99
  17  14   1 1072.89   98.89
   1  17  14  970.80  111.29
  17  16  -1  506.05   60.89
  16  -1  17  460.75   49.99
  17 -16   1  458.65   50.19
  16  -1  17  456.75   57.49
  -1  17  16  311.97   60.19
   1  17  16  436.16   71.29
  17  16   1  383.76   53.29
  16   1  17  336.87   53.39
  17 -16  -1  373.96   49.00
  17  -1   2  812.22   66.49
   1  -2  17  763.32   61.59
   2 -17   1  811.02   66.59
   1  -2  17  818.22   79.19
  17   1  -2  784.02   65.09
  -1   2  17  808.82   79.49
  -1  -2  17  513.65   76.89
   1   2  17  512.55   78.99
   3  -2  17  288.37   28.60
   2 -17   3  286.67   34.40
   3  -2  17  273.57   43.50
  17  -3   2  312.07   35.80
  -3   2  17  289.07   42.90
  17  -3  -2  221.98   32.90
  -3  -2  17  245.78   43.80
   3   2  17  285.57   47.00
  -5   2  17  382.36   49.90
   2 -17   5  280.87   34.50
  -2  17   5  246.98   46.00
   5  -2  17  275.17   30.60
  17  -5   2  264.07   35.40
   5  -2  17  238.68   42.80
  17  -5  -2  259.47   34.40
   5   2  17  263.17   45.60
   2  17   5  279.37   48.50
  -5  -2  17  294.77   45.90
   7  -2  17  329.07   48.90
  -7   2  17  309.07   44.60
  17  -7   2  296.07   37.80
  -2  17   7  247.18   45.90
   2 -17   7  268.07   35.40
  17   7   2  299.77   30.00
  -7  -2  17  286.67   43.70
  17  -7  -2  337.07   36.60
   2  17   7  268.17   46.40
   7   2  17  321.47   45.90
   2 -17   9  158.78   22.40
   9  -2  17  168.88   39.00
  17  -9   2  177.88   27.30
  -2  17   9  157.28   43.60
  -9   2  17  158.38   35.80
  17   9  -2  169.68   22.80
   9  -2  17  148.09   22.80
  -9  -2  17  125.19   34.70
  17   9   2  159.78   24.50
  17  -9  -2  139.89   23.70
   9   2  17  131.09   37.00
   2  17   9  173.38   45.20
  17  11  -2  472.55   55.89
  -2  17  11  516.25   75.29
   2 -17  11  532.95   53.39
  17 -11   2  510.15   56.79
 -11   2  17  526.95   68.39
  11  -2  17  539.35   55.39
  11  -2  17  521.15   70.39
  17 -11  -2  667.93   56.09
 -11  -2  17  702.33   70.29
  11   2  17  694.53   72.59
  17  11   2  690.23   60.19
   2  17  11  701.93   79.69
   2 -17  13  211.98   25.30
  13  -2  17  198.58   42.90
  -2  17  13  155.88   45.60
  17  13  -2  262.97   34.60
 -13   2  17  211.48   38.20
  13  -2  17  133.79   27.00
  17 -13   2  276.97   32.00
  13   2  17  123.69   38.10
   2  17  13  153.58   51.09
  17 -13  -2  192.18   29.40
  17  13   2  205.78   35.20
  -2  17  15   96.59   49.40
   2 -17  15   99.79   18.70
  17  15  -2   86.29   30.80
  17 -15   2   80.39   26.00
 -15   2  17  108.69   29.10
  15  -2  17   90.59   35.70
  15  -2  17   77.39   25.40
  17 -15  -2   53.49   23.40
  17  15   2   82.29   32.60
  15   2  17   52.69   34.50
   2  17  15   52.59   43.00
   0  -3  17 1471.15  129.79
   0   3  17 1447.66  129.39
  17   0   3 1524.45  119.79
  17   0  -3 1479.95  118.29
   0  -3  17 1375.36  115.39
   3 -17   0 1406.46  119.39
  -2   3  17  221.58   41.40
   2  -3  17  265.77   44.70
  17  -2   3  273.67   35.50
   3 -17   2  282.37   34.00
   2  -3  17  287.97   26.40
  17   2  -3  251.27   31.20
  17  -2  -3  248.28   31.80
   3 -17  -2  234.98   35.50
   2   3  17  298.97   46.60
  -2  -3  17  222.88   42.30
   4  -3  17  531.35   65.59
  17  -4   3  525.75   48.90
  -4   3  17  510.75   64.09
   3 -17   4  435.76   47.60
   4  -3  17  426.96   43.90
  17  -4  -3  537.55   47.40
  -4  -3  17  513.25   64.29
   4   3  17  530.25   63.89
   3 -17   6   13.80   17.70
  17  -6   3    4.40   18.40
  -6   3  17   19.00   30.60
   6  -3  17   10.40   14.40
  -3  17   6  -19.40   31.90
   6  -3  17   38.80   32.60
  -6  -3  17   26.50   33.40
   3  17   6   31.20   34.80
  17   6   3   42.40   10.50
   6   3  17   39.50   34.90
  17  -6  -3   39.00   17.20
   3 -17   8   78.79   18.80
  17  -8   3   49.40   21.10
   8  -3  17   60.39   33.60
  -3  17   8   57.49   34.30
   8  -3  17   57.09   17.60
  -8   3  17   89.79   36.20
  17   8  -3   70.79   15.80
   3  17   8   50.49   36.50
   8   3  17   90.99   37.90
  17  -8  -3   72.89   21.20
  -8  -3  17   81.99   33.60
  17   8   3   50.99   17.60
  -3  17  10  170.78   45.80
 -10   3  17  141.39   36.40
  10  -3  17  125.59   22.70
  17 -10   3  139.99   26.10
   3 -17  10  125.69   21.70
  17  10  -3  139.09   23.70
  10  -3  17  102.09   36.50
  17  10   3  178.98   27.50
   3  17  10  116.49   40.10
 -10  -3  17  154.68   35.80
  17 -10  -3  161.28   25.90
  10   3  17  173.88   39.80
   3 -17  12  308.97   37.00
 -12   3  17  384.06   48.80
  12  -3  17  349.77   39.90
  17  12  -3  349.37   42.50
  17 -12   3  361.36   42.20
  12  -3  17  340.37   47.50
  -3  17  12  329.27   57.19
  17  12   3  316.17   47.20
   3  17  12  237.38   50.99
  12   3  17  247.08   47.40
  17 -12  -3  268.67   40.10
   3 -17  14   16.20   17.50
  -3  17  14   24.60   45.20
  14  -3  17   10.10   34.90
  17 -14   3   20.90   23.50
 -14   3  17   14.70   27.70
  14  -3  17   11.50   21.00
 -17  14   3    9.20   10.70
  17  14  -3   19.90   25.80
   3  17  14   21.70   47.60
  17 -14  -3   24.10   24.20
  17  14   3   20.10   28.40
  14   3  17   13.10   34.20
  17 -16   3    3.10   23.60
  -3  17  16   10.90   41.50
  16  -3  17   11.40   23.10
  17  16  -3   34.40   32.30
  17  16   3   -1.10   32.70
   3  17  16   29.60   44.60
  17 -16  -3   22.70   25.90
  16   3  17    7.10   33.10
 -17  16  -3   11.90    8.80
   1  -4  17  430.46   37.70
  17   1  -4  460.15   42.40
   1  -4  17  503.05   61.89
  -1   4  17  448.16   61.99
  17  -1   4  447.46   45.40
   4 -17   1  447.16   45.20
   1   4  17  396.86   60.69
   4 -17  -1  418.96   44.40
  17  -1  -4  416.46   42.30
  -1  -4  17  413.86   61.39
  17   3  -4  461.35   46.20
  -3   4  17  496.95   64.89
   3  -4  17  497.95   65.79
   3  -4  17  470.65   43.90
   4 -17   3  454.85   48.70
  17  -3   4  474.15   50.09
   3   4  17  560.54   64.99
  17  -3  -4  586.14   47.90
  -3  -4  17  496.95   65.09
   4 -17  -3  564.04   50.49
  17  -5   4  633.84   53.39
  -4  17   5  590.04   71.49
   5  -4  17  631.14   69.09
   4 -17   5  644.34   51.79
  -5   4  17  643.94   67.99
   5  -4  17  612.14   48.60
  17  -5  -4  411.56   50.09
  -5  -4  17  403.06   64.09
   4  17   5  421.16   62.79
   5   4  17  353.06   58.39
   4 -17   7  811.32   68.79
  -4  17   7  822.22   85.49
  17  -7   4  828.92   70.59
   7  -4  17  790.22   82.99
   7  -4  17  794.72   67.09
  -7   4  17  792.92   82.39
   4  17   7  806.22   86.09
   7   4  17  666.13   82.49
  -7  -4  17  743.63   81.29
  17  -7  -4  772.62   68.19
  17   7   4  708.73   67.09
   4 -17   9  309.77   35.60
   9  -4  17  292.97   45.00
   9  -4  17  302.87   34.90
  17  -9   4  267.17   38.80
  -9   4  17  269.17   43.10
  17   9  -4  313.77   34.10
  -4  17   9  257.27   45.40
  -9  -4  17  281.27   46.70
   4  17   9  290.97   52.69
   9   4  17  276.27   49.30
  17  -9  -4  226.58   31.50
  17   9   4  239.78   36.70
   4 -17  11  426.76   44.20
  11  -4  17  407.06   56.79
  17 -11   4  403.76   47.30
  11  -4  17  407.86   45.20
  -4  17  11  478.25   69.29
 -11   4  17  393.16   60.69
   4  17  11  497.35   65.29
  11   4  17  484.85   65.39
  17  11   4  452.75   51.59
  17 -11  -4  384.46   45.50
   4 -17  13  323.27   37.60
  17 -13   4  306.77   43.60
  -4  17  13  398.56   58.89
  13  -4  17  312.67   41.60
  13  -4  17  293.27   47.20
 -13   4  17  328.87   47.20
  17  13   4  320.07   44.70
  13   4  17  405.76   56.39
  17 -13  -4  303.67   41.40
   4  17  13  327.07   55.99
 -15   4  17  251.57   33.50
   4 -17  15  170.68   25.20
  -4  17  15   97.49   45.10
  15  -4  17  162.58   29.60
  17 -15   4  198.48   32.00
  17  15   4  179.98   39.00
  15   4  17  177.88   43.10
  17 -15  -4  141.29   28.70
   4  17  15  138.69   53.79
   5 -17   0   24.10   18.10
   0   5  17   -2.80   33.70
   0  -5  17   33.30   34.30
  17   0  -5   15.00   14.20
  17   2  -5  272.97   29.80
   2  -5  17  247.58   43.30
   2  -5  17  252.27   25.80
   5 -17   2  255.47   34.70
  -2   5  17  293.27   44.10
  17  -2   5  272.27   34.90
  17  -2  -5  233.28   30.60
   5 -17  -2  236.98   34.60
  -2  -5  17  235.68   41.90
   2   5  17  275.87   46.50
   4  -5  17  616.44   52.99
  17   4  -5  649.93   53.89
   5 -17   4  619.74   57.39
   4  -5  17  625.24   72.89
  17  -4   5  639.14   58.19
  -4   5  17  643.34   72.29
  -4  -5  17  412.26   69.09
   5 -17   6   91.39   22.50
   6  -5  17   74.49   36.30
   6  -5  17   76.89   17.50
  17  -6   5   66.89   21.80
  -5  17   6   70.89   35.20
  -6   5  17   80.39   34.40
   6   5  17  146.49   38.50
  -6  -5  17  159.38   35.90
   5  17   6  154.48   38.00
  -5  17   8 1118.49  112.19
  -8   5  17 1187.58  110.79
   8  -5  17 1118.79   97.69
   5 -17   8 1153.18   98.69
   8  -5  17 1142.79  110.69
  17  -8   5 1187.18  100.29
  17  -8  -5 1252.47   98.49
   5  17   8 1203.68  113.99
   8   5  17 1216.18  112.29
  17   8   5 1169.08   99.79
 -10   5  17  868.91   91.29
   5 -17  10  829.42   77.39
  -5  17  10  891.01   94.89
  17 -10   5  814.12   78.99
  10  -5  17  836.22   91.19
  10  -5  17  866.01   77.19
  17 -10  -5  922.61   77.79
  17  10   5  951.40   82.09
   5  17  10 1021.80   97.89
  10   5  17  994.20   93.79
  -5  17  12  192.68   48.30
 -12   5  17  117.39   35.70
  12  -5  17   87.89   23.10
   5 -17  12  155.98   23.80
  17 -12   5  171.48   29.00
   5  17  12  105.39   44.30
  12   5  17  125.89   41.60
  17  12   5  173.38   32.80
  17 -12  -5   97.59   24.40
  14  -5  17   64.79   23.00
   5 -17  14   68.49   21.10
  17 -14   5   71.29   25.20
  -5  17  14   95.89   44.80
 -14   5  17   81.29   31.60
   5  17  14    3.80   45.80
  17 -14  -5   71.89   23.30
  14   5  17   65.29   37.00
  17  14   5   29.60   31.50
   5 -17  16   87.79   21.20
  -5  17  16   44.70   44.70
  17 -16   5   40.50   25.10
  16  -5  17   48.50   26.80
  17  16   5  184.38   41.10
  16   5  17  102.99   39.70
   5  17  16   67.99   47.20
  17 -16  -5   94.09   26.10
  -1   6  17  139.89   37.80
   1  -6  17  208.58   42.50
  17  -1   6  143.49   24.80
   6 -17   1  175.98   25.20
   1  -6  17  147.79   16.40
  17   1  -6  171.78   19.70
  17  -1  -6   92.09   18.70
   6 -17  -1   78.89   23.00
  -1  -6  17   69.49   38.60
   1   6  17   91.99   37.40
  -3   6  17    7.90   34.40
   6 -17   3   15.90   19.00
   3  -6  17    3.00   36.10
  17   3  -6   14.90   13.60
   3  -6  17   10.70   11.40
  17  -3   6    8.90   19.60
  17   3   6   25.80    9.70
   3   6  17   31.50   36.10
   6 -17  -3   24.90   18.00
  17  -3  -6   30.30   15.60
  -3  -6  17   -3.80   31.90
  17   5  -6   79.09   16.90
  -6  17   5   92.69   39.90
  -5   6  17   81.59   35.20
  17  -5   6   67.69   22.50
   5  -6  17   86.09   17.50
   6 -17   5  101.79   22.50
   5  -6  17  138.49   39.40
   6  17   5  105.59   36.40
   6 -17  -5  125.09   22.40
  -5  -6  17   95.59   35.50
  17   5   6  147.59   19.50
   5   6  17  190.58   41.20
  17  -5  -6  157.78   19.90
  -6  17   7   21.90   36.40
  -7   6  17   26.80   33.00
  17  -7   6   18.00   20.00
   7  -6  17   13.20   15.60
   7  -6  17   -0.30   32.40
   6 -17   7   15.30   17.60
   6  17   7   36.70   34.30
   7   6  17   -2.70   32.60
  17   7   6    6.00   17.40
  17  -7  -6    3.50   17.30
  17  -9   6   57.59   22.50
   9  -6  17   71.19   18.60
   6 -17   9   50.89   19.50
  -9   6  17   60.99   33.30
   9  -6  17  101.99   39.80
  -6  17   9   26.80   36.30
   9   6  17  133.49   37.40
   6  17   9   63.89   39.70
  17  -9  -6   74.29   19.70
  17   9   6  104.19   25.00
  17 -11   6  318.37   43.40
 -11   6  17  349.37   50.49
  11  -6  17  312.37   38.80
   6 -17  11  347.07   39.50
  -6  17  11  324.37   54.59
  17 -11  -6  307.77   39.50
  11   6  17  314.37   52.89
  17  11   6  325.97   48.00
   6  17  11  311.27   52.69
  13  -6  17  267.57   38.90
 -13   6  17  348.77   46.60
   6 -17  13  294.77   36.60
  -6  17  13  312.97   54.39
  17 -13   6  260.07   35.30
  13   6  17  255.37   48.80
  17  13   6  283.87   43.60
   6  17  13  201.48   51.59
  17 -13  -6  269.37   39.20
  15  -6  17    7.30   24.00
  -6  17  15  -23.90   42.70
 -15   6  17   24.90   21.20
 -17  15   6   20.30   13.40
   6 -17  15    1.90   19.70
  17 -15   6   -0.60   24.40
  17 -15  -6   -3.80   21.80
   6  17  15  -12.60   42.30
  17  15   6   32.90   35.40
  15   6  17   16.50   38.80
  17   0  -7    3.60   13.30
   7 -17   0    9.30   18.30
   0   7  17    4.00   35.00
   0  -7  17   32.60   35.00
  -2   7  17  349.37   51.09
   2  -7  17  272.47   45.50
   2  -7  17  264.57   28.00
  17  -2   7  275.07   38.70
   7 -17   2  303.57   37.30
  17   2  -7  293.17   30.60
  17  -2  -7  304.27   32.00
   7 -17  -2  317.17   36.60
   2   7  17  319.77   48.00
   7 -17   4  778.82   67.79
   4  -7  17  799.22   83.59
  -7  17   4  822.02   82.69
   4  -7  17  759.32   63.99
  -4   7  17  796.02   83.49
  17   4  -7  799.32   63.99
  17  -4   7  831.52   69.79
  17   4   7  693.93   65.29
   7 -17  -4  715.03   67.39
   4   7  17  674.93   82.19
   7  17   4  727.83   83.19
  17  -4  -7  709.23   64.79
  -7  17   6    7.10   35.20
  17   6  -7   12.90   12.30
  -6   7  17  -32.90   32.80
  17  -6   7    6.60   21.10
   7 -17   6   12.60   18.30
   6  -7  17   10.20   15.20
   6   7  17    4.60   34.00
  17   6   7    8.20   17.10
   7 -17  -6    4.30   20.80
   7  17   6   33.20   37.30
  17  -6  -7   -9.10   15.60
  17   8  -7  593.04   50.59
   8  -7  17  592.24   53.59
  -7  17   8  601.24   72.39
  17  -8   7  598.34   57.69
  -8   7  17  628.64   72.29
   7 -17   8  617.34   55.69
  17  -8  -7  520.15   53.99
   8   7  17  569.14   74.69
  17   8   7  484.25   57.19
   7  17   8  643.14   76.59
  17 -10   7  605.64   61.09
  -7  17  10  567.44   76.99
   7 -17  10  566.34   58.59
 -10   7  17  706.83   75.99
  10  -7  17  629.94   57.99
  17  10   7  653.73   65.39
  17 -10  -7  636.44   58.49
  10   7  17  635.04   77.79
   7  17  10  649.14   81.39
  -7  17  12   39.70   36.60
  17 -12   7  -12.70   24.30
  12  -7  17   20.90   20.50
 -12   7  17   16.80   33.20
   7 -17  12   13.50   21.20
  17 -12  -7   22.20   21.50
   7  17  12    8.00   38.90
  17  12   7   13.30   28.30
  12   7  17   39.60   39.40
   7 -17  14   99.39   24.10
  14  -7  17   72.29   24.00
  -7  17  14   91.79   40.80
  17 -14   7   96.29   26.00
 -14   7  17   85.49   34.50
  17  14   7  177.58   39.50
  17 -14  -7  159.38   27.80
  14   7  17  136.89   44.60
   7  17  14  169.88   54.29
  17 -16   7   18.00   25.10
  -7  17  16   52.39   48.50
  16  -7  17   26.10   23.40
   7 -17  16   33.80   21.30
 -17  16   7   -0.90   17.20
  16   7  17  103.39   44.10
   7  17  16   40.00   52.79
  17 -16  -7   71.59   25.20
  17  16   7   79.29   40.00
  -1   8  17   11.60   32.90
  17  -1   8   34.80   22.40
   1  -8  17   40.40    9.30
   8 -17   1   19.20   20.50
  17   1  -8   23.20   12.50
   1   8  17  -21.90   35.50
  17  -1  -8    2.60   13.30
   8 -17  -1    2.10   20.80
  17   3  -8   87.99   14.50
   8 -17   3   81.29   22.10
   3  -8  17   83.49   14.10
  17  -3   8   84.49   22.20
  -3   8  17   67.29   39.60
  17   3   8   50.59   17.40
   8 -17  -3   54.59   20.70
   3   8  17  102.79   38.70
  17  -3  -8   79.69   16.30
  -8  17   5 1140.59  110.19
   5  -8  17 1098.19   96.39
  -5   8  17 1190.58  111.89
  17   5  -8 1110.69   95.39
   8 -17   5 1132.19   99.09
  17  -5  -8 1264.07   97.39
   5   8  17 1222.98  113.19
   8  17   5 1192.48  111.89
  17   5   8 1218.78  100.09
   8 -17  -5 1220.38   99.59
  17   7  -8  585.04   50.49
  -8  17   7  624.44   71.89
   7  -8  17  638.64   53.89
  -7   8  17  691.63   74.59
  17  -7   8  603.64   58.19
   8 -17   7  647.04   56.59
  17   7   8  532.65   58.09
   8 -17  -7  541.25   56.59
  17  -7  -8  539.75   53.89
   7   8  17  506.45   74.29
   8  17   7  550.34   73.49
   8 -17   9   27.80   18.80
  -9   8  17   50.29   37.60
  -8  17   9   20.70   37.90
  17  -9   8   35.30   26.10
   9  -8  17   41.60   19.30
  17   9  -8   40.90   12.60
  17   9   8   44.50   25.30
   9   8  17   12.20   35.60
   8  17   9   -2.00   35.30
  17  -9  -8   43.80   19.70
   8 -17  11  576.24   54.39
  11  -8  17  548.05   54.59
 -11   8  17  483.05   71.29
  17 -11   8  572.24   57.59
  -8  17  11  576.74   74.69
  17  11   8  553.44   64.09
   8  17  11  547.35   79.79
  11   8  17  506.95   74.69
  17 -11  -8  539.85   53.89
  13  -8  17  382.56   44.40
   8 -17  13  415.86   41.60
 -13   8  17  415.96   52.19
  17 -13   8  343.37   46.80
  -8  17  13  326.67   53.39
   8  17  13  230.68   53.39
  17  13   8  313.37   48.40
  13   8  17  298.47   52.19
  17 -13  -8  290.17   42.80
 -15   8  17    5.90   13.20
   8 -17  15   35.40   21.40
  17 -15   8   26.70   24.30
  15  -8  17   42.80   26.00
  -8  17  15   55.19   47.50
  17 -15  -8   36.80   24.40
   8  17  15   23.50   46.20
  17  15   8   60.49   39.20
  15   8  17   66.19   43.40
  17   0  -9  135.99   17.70
   0   9  17  127.19   39.00
   9 -17   0  160.18   26.50
   9 -17   2  170.38   24.70
   2  -9  17  152.88   19.50
  17   2  -9  144.09   19.90
  -2   9  17  149.39   39.60
  17  -2   9  151.78   25.70
   9 -17  -2  126.09   24.20
  17   2   9  123.09   22.60
  17  -2  -9  156.08   19.60
   2   9  17  154.18   39.30
   9 -17   4  313.97   36.10
   4  -9  17  285.67   28.90
  -4   9  17  275.87   45.40
  17  -4   9  370.06   39.50
  -9  17   4  256.17   41.80
   4   9  17  280.77   50.49
   9 -17  -4  204.68   31.60
   9  17   4  245.58   48.00
  17  -4  -9  228.58   30.00
  17   4   9  239.38   32.20
  -9  17   6   30.30   32.10
  -6   9  17   65.99   39.40
   9 -17   6   40.80   20.30
  17  -6   9   68.79   24.30
   6  -9  17   73.09   17.90
   9  17   6   76.79   37.50
  17  -6  -9  100.69   18.30
   6   9  17   80.99   37.30
   9 -17  -6   92.59   22.10
  17   6   9  126.39   25.40
  -9  17   8   35.20   34.10
   8  -9  17   17.10   17.20
   9 -17   8   42.20   22.30
  17  -8   9   36.20   22.30
  -8   9  17   28.30   37.00
   9  17   8   37.10   38.40
  17   8   9   62.69   25.30
   9 -17  -8   22.80   21.90
   8   9  17   23.70   36.20
  17  -8  -9   34.10   17.90
  10  -9  17  127.59   24.40
  17 -10   9  123.89   27.40
 -10   9  17  172.58   41.60
   9 -17  10  159.58   26.00
  -9  17  10  139.19   41.80
  17 -10  -9  157.38   24.80
  10   9  17  161.28   43.30
  17  10   9  239.28   37.00
   9  17  10  228.78   48.70
  12  -9  17   67.79   24.80
  -9  17  12   35.90   35.80
 -12   9  17   59.09   38.00
  17 -12   9   67.79   27.30
   9 -17  12   65.39   21.30
   9  17  12   31.20   40.60
  17  12   9   50.19   31.80
  17 -12  -9   51.79   22.70
  12   9  17   44.40   38.50
   9 -17  14  184.88   27.30
 -14   9  17  242.28   42.50
  14  -9  17  172.08   29.60
  -9  17  14  225.68   49.00
  17 -14   9  180.68   30.50
   9  17  14  130.19   47.90
  14   9  17  209.88   47.10
  17  14   9  154.38   41.20
  17 -14  -9  121.89   27.60
  16  -9  17   49.70   29.40
   9 -17  16   63.69   23.60
  17 -16   9   31.20   25.60
  -9  17  16   72.59   43.50
   9  17  16   54.29   45.50
  17  16   9   96.29   42.30
  17 -16  -9   96.49   26.60
  16   9  17   65.99   42.30
  10 -17   1  187.38   28.30
  -1  10  17  211.08   45.00
  17  -1  10  224.38   31.60
  10 -17  -1  259.87   35.20
  17   1  10  211.58   31.90
  17  -1 -10  241.38   25.30
   1  10  17  224.78   45.90
  10 -17   3  137.19   26.30
   3 -10  17  151.58   18.80
  -3  10  17  155.58   44.80
 -10  17   3  161.98   37.10
  17  -3  10  133.09   26.80
   3  10  17  145.09   40.10
  17   3  10  149.79   26.10
  10 -17  -3  125.79   25.30
  17  -3 -10  158.68   19.70
  10  17   3  198.78   42.40
  17  -5  10  785.92   78.49
 -10  17   5  768.52   87.79
   5 -10  17  832.92   73.79
  -5  10  17  867.81   92.59
  10 -17   5  817.52   76.89
  10 -17  -5  934.91   77.79
  17   5  10  900.81   80.59
  10  17   5  891.81   92.09
   5  10  17 1010.80   94.19
  17  -5 -10  956.80   74.19
  17  -7  10  596.94   61.49
 -10  17   7  670.03   74.39
  -7  10  17  650.93   77.89
  10 -17   7  613.44   60.29
   7 -10  17  595.54   57.49
  17  -7 -10  667.13   56.79
  17   7  10  658.43   65.49
  10  17   7  632.64   77.89
  10 -17  -7  631.04   60.69
   7  10  17  640.14   80.79
  17  -9  10  159.58   29.40
   9 -10  17  167.88   25.10
 -10  17   9  149.19   39.80
  10 -17   9  178.88   27.50
  -9  10  17  143.89   41.00
  17   9  10  170.78   35.30
  10  17   9  202.28   46.90
  17  -9 -10  171.38   24.90
   9  10  17  218.88   46.60
  10 -17  -9  152.88   26.30
 -11  10  17  573.74   72.49
 -10  17  11  538.95   73.59
  10 -17  11  557.94   55.89
  17 -11  10  580.24   59.79
  11 -10  17  605.24   55.79
  17 -11 -10  529.85   54.09
  17  11  10  471.75   66.89
  11  10  17  530.45   77.29
  10  17  11  597.84   79.29
  17 -13  10   84.89   26.00
 -10  17  13   86.29   39.10
 -13  10  17  100.59   39.50
  13 -10  17   76.59   26.20
  10 -17  13   80.99   25.00
  13  10  17   35.50   40.70
  17 -13 -10   40.50   22.60
  17  13  10   47.90   36.40
  10  17  13   23.70   41.90
  17 -15  10   33.60   27.20
 -10  17  15   31.20   38.90
  10 -17  15   10.30   22.00
  15 -10  17   -9.50   24.40
  15  10  17   14.40   41.20
  10  17  15  -11.70   42.60
  17 -15 -10   26.10   24.20
  17  15  10   18.10   36.40
   0  11  17   90.29   37.60
  11 -17   0   54.29   20.70
  17   0  11   34.60   20.90
 -11  17   2  492.65   69.19
  11 -17   2  516.55   58.49
  17  -2  11  524.75   59.49
  -2  11  17  601.94   77.69
   2 -11  17  572.44   51.69
  17   2  11  668.73   60.39
  11 -17  -2  717.53   59.59
   2  11  17  634.44   78.49
  17  -2 -11  673.13   52.19
  11  17   2  671.83   74.79
  17  -4  11  380.66   47.10
  11 -17   4  340.57   44.40
  -4  11  17  493.55   61.59
   4 -11  17  386.86   38.10
 -11  17   4  312.17   47.90
   4  11  17  420.36   59.09
  11  17   4  437.46   62.79
  17  -4 -11  440.46   38.40
  11 -17  -4  399.26   44.70
  17   4  11  402.16   48.60
  17  -6  11  282.27   41.80
  11 -17   6  317.47   40.50
   6 -11  17  282.67   34.80
  -6  11  17  283.97   49.40
 -11  17   6  323.87   47.00
   6  11  17  327.37   53.79
  17   6  11  317.17   41.50
  11  17   6  317.67   48.00
  17  -6 -11  346.17   34.30
  11 -17  -6  326.17   40.40
   8 -11  17  508.05   50.79
  -8  11  17  553.04   73.19
  17  -8  11  546.65   55.79
  11 -17   8  479.35   53.29
 -11  17   8  487.05   67.59
  17  -8 -11  538.65   49.60
  17   8  11  559.34   61.99
   8  11  17  498.45   75.49
  11  17   8  526.05   73.89
  11 -17  -8  540.25   54.09
  11 -17  10  532.95   54.89
 -11  17  10  563.14   70.29
  17 -10  11  508.75   57.69
  10 -11  17  532.95   53.29
 -10  11  17  604.44   75.49
  11  17  10  542.45   77.79
  10  11  17  614.44   78.39
  17  10  11  481.25   64.99
  17 -10 -11  510.85   51.89
  12 -11  17   43.00   22.60
  11 -17  12   49.40   24.10
 -12  11  17   28.40   36.60
  17 -12  11   44.70   24.60
 -11  17  12   50.99   37.20
  17 -12 -11   32.40   21.20
  12  11  17   50.79   46.30
  17  12  11   44.10   36.60
  11  17  12   37.00   44.70
 -14  11  17  511.95   65.69
  14 -11  17  497.15   51.89
  17 -14  11  428.16   53.39
  11 -17  14  497.85   49.90
 -11  17  14  486.85   69.09
  17 -14 -11  356.86   49.00
  11  17  14  367.16   66.79
  14  11  17  321.87   61.09
  17  14  11  398.36   60.49
  17 -16  11  141.39   32.30
 -11  17  16  123.29   45.60
  16 -11  17  165.88   31.40
  11 -17  16  190.18   30.90
  17  16  11  195.08   48.90
  16  11  17  169.28   49.30
  17 -16 -11  197.08   32.80
  11  17  16  127.09   51.19
  17  -1  12  144.99   26.50
  -1  12  17  235.48   47.90
  12 -17   1  144.09   25.60
  17   1  12  132.49   28.60
   1  12  17  143.59   41.70
  12 -17  -1  151.48   25.00
  12  17   1  184.58   41.30
 -12  17   3  385.16   47.30
   3 -12  17  300.07   31.40
  17  -3  12  300.87   41.80
  12 -17   3  323.27   39.70
  -3  12  17  412.56   57.19
  17   3  12  270.47   39.10
  12 -17  -3  267.67   35.90
  12  17   3  289.87   50.29
   3  12  17  243.48   50.19
  17  -5  12  157.38   28.90
 -12  17   5  138.49   35.80
   5 -12  17  160.28   21.20
  12 -17   5  172.18   27.60
  -5  12  17  147.19   44.80
  12 -17  -5  125.49   27.10
  17   5  12  144.69   32.20
  12  17   5  116.59   40.80
   5  12  17   96.99   42.50
  17  -5 -12  124.29   19.40
  12 -17   7   13.40   22.30
   7 -12  17    5.60   17.00
  -7  12  17   40.10   40.10
 -12  17   7    0.80   30.90
  17  -7  12    6.90   22.30
  12 -17  -7   14.00   23.00
  17   7  12   23.20   28.30
  12  17   7   10.80   34.00
  17  -7 -12    7.70   15.80
   7  12  17   30.80   38.10
  12 -17   9   56.99   24.50
 -12  17   9   65.59   36.20
  17  -9  12   46.20   25.70
   9 -12  17   38.90   21.50
  -9  12  17   59.09   41.40
  12  17   9   47.80   42.50
  17  -9 -12   46.50   18.70
  17   9  12   33.80   32.20
  12 -17  -9   27.80   21.80
   9  12  17    5.40   44.20
 -11  12  17   30.70   38.30
 -12  17  11   36.50   34.20
  11 -12  17   57.39   23.80
  17 -11  12   51.69   27.10
  12 -17  11   40.60   24.10
  11  12  17   55.09   45.30
  12  17  11   33.50   41.10
  17  11  12   -9.00   35.30
  17 -11 -12   42.50   21.10
  12 -17  13  214.18   33.30
  13 -12  17  203.38   32.90
 -12  17  13  242.28   47.70
  17 -13  12  235.68   35.40
 -13  12  17  288.47   49.80
  17 -13 -12  276.97   33.20
  13  12  17  209.68   52.19
  12  17  13  172.88   50.39
  17  13  12  300.47   50.29
  17 -15  12    6.60   26.50
 -12  17  15   24.20   40.30
  12 -17  15   13.40   23.50
 -15  12  17  -18.30   10.90
  15 -12  17   23.70   24.50
  12  17  15   38.60   46.00
  15  12  17   12.70   42.60
  17  15  12   43.30   41.50
  13 -17   0  424.06   46.90
   0  13  17  431.46   62.69
  17   0  13  384.36   50.89
  17  -2  13  190.38   29.40
  13 -17   2  245.68   30.20
  -2  13  17  208.58   48.00
 -13  17   2  235.98   37.80
  13 -17  -2  118.89   26.70
  13  17   2  209.98   43.20
  17   2  13  186.68   33.60
   2  13  17  154.38   47.30
  17  -4  13  305.77   43.50
 -13  17   4  352.76   46.90
  -4  13  17  261.27   50.59
   4 -13  17  312.87   33.40
  13 -17   4  315.07   41.50
  17   4  13  319.37   42.80
  13  17   4  344.47   51.59
  13 -17  -4  299.27   41.60
   4  13  17  257.97   50.79
  -6  13  17  336.37   55.39
  17  -6  13  293.37   41.50
 -13  17   6  349.37   45.70
  13 -17   6  284.57   40.10
   6 -13  17  286.97   34.20
  13  17   6  196.08   44.30
   6  13  17  300.47   55.89
  13 -17  -6  256.67   34.00
  17   6  13  267.87   42.30
  17  -6 -13  248.18   30.70
 -13  17   8  368.16   49.60
  17  -8  13  370.46   46.50
  -8  13  17  372.86   57.49
  13 -17   8  391.76   44.50
   8 -13  17  362.56   40.40
  13 -17  -8  290.37   43.70
   8  13  17  375.76   62.99
  17  -8 -13  287.07   37.10
  17   8  13  307.27   48.70
  13  17   8  428.56   59.69
  10 -13  17   67.39   22.80
 -13  17  10   66.99   35.40
 -10  13  17   49.10   39.10
  13 -17  10   94.29   26.60
  17 -10  13   68.59   26.80
  10  13  17   18.10   43.90
  13  17  10   12.20   41.40
  17 -10 -13   67.99   20.10
  13 -17 -10   57.49   25.20
  17  10  13   46.90   36.80
  12 -13  17  228.18   33.50
  17 -12  13  200.18   35.40
  13 -17  12  261.27   35.60
 -12  13  17  205.68   48.00
 -13  17  12  251.37   45.20
  13  17  12  300.47   56.99
  17  12  13  264.17   49.90
  12  13  17  210.48   50.39
  13 -17  14  361.16   46.20
 -14  13  17  340.47   52.79
  14 -13  17  341.27   46.40
 -13  17  14  317.27   53.19
  17 -14  13  342.37   48.90
  14  13  17  340.77   64.39
  13  17  14  323.67   64.39
  17  14  13  226.78   54.19
 -13  17  16  180.78   47.00
  13 -17  16  193.88   31.30
  16 -13  17  199.28   34.00
  17 -16  13  159.18   31.70
  16  13  17  117.09   49.70
  17  16  13  141.99   49.99
  13  17  16  134.09   52.99
  17  -1  14 1161.88   94.69
 -14  17   1 1054.79   98.79
  14 -17   1 1035.80   92.49
  -1  14  17 1073.99  111.29
  14  17   1 1023.90  103.99
   1  14  17 1025.40  109.59
  17   1  14 1032.30   97.69
  14 -17  -1 1080.69   93.19
  -3  14  17   41.40   44.30
 -14  17   3   26.30   28.40
  14 -17   3   17.10   21.50
  17  -3  14   51.99   25.30
  14 -17  -3   39.40   23.10
  17   3  14   47.00   28.70
   3  14  17   29.40   41.00
  14  17   3   56.99   37.40
   5 -14  17   94.19   18.90
  -5  14  17   95.69   47.10
 -14  17   5   54.89   30.50
  14 -17   5   90.39   26.20
  17  -5  14   85.69   27.40
  14 -17  -5   71.69   25.10
  14  17   5   62.79   37.00
  17   5  14   29.70   30.60
   5  14  17   -3.50   41.70
   7 -14  17  130.69   23.40
  -7  14  17  157.48   48.10
  14 -17   7   77.19   25.10
 -14  17   7  102.39   33.50
  17  -7  14   55.39   25.10
   7  14  17  119.39   45.00
  17   7  14  165.98   39.20
  14 -17  -7  123.99   26.80
  14  17   7  150.48   43.30
  14 -17   9  188.48   31.50
 -14  17   9  207.18   40.00
  17  -9  14  244.78   35.50
  -9  14  17  204.68   48.70
   9 -14  17  252.37   30.10
   9  14  17  184.88   53.59
  14 -17  -9  143.29   29.90
  17   9  14  162.18   44.00
  14  17   9  138.09   45.40
  14 -17  11  472.35   53.29
 -11  14  17  462.65   62.99
  17 -11  14  499.65   54.99
  11 -14  17  470.65   50.19
 -14  17  11  489.95   62.69
  17  11  14  398.76   61.89
  11  14  17  436.16   71.39
  14  17  11  321.87   62.29
 -14  17  13  346.47   50.59
  13 -14  17  242.08   37.50
 -13  14  17  404.96   57.09
  14 -17  13  346.97   47.10
  17 -13  14  365.06   43.30
  14  17  13  303.07   60.89
  17  13  14  270.57   54.89
  13  14  17  336.47   64.39
  15 -14  17   -6.50   25.90
  17 -15  14    8.60   27.30
  14 -17  15   -5.20   25.00
 -15  14  17    6.80   14.30
 -14  17  15   19.00   36.30
  14  17  15   10.60   46.40
  15  14  17   -0.10   47.90
  17  15  14   18.80   44.30
 -15  17   0  474.45   55.89
  15  17   0  486.95   64.99
   0  15  17  333.67   61.49
  15 -17   0  503.25   51.19
  17   0  15  452.65   59.39
 -15  17   2   88.89   27.90
  -2  15  17   79.29   46.30
  15 -17   2  114.69   26.10
  17  -2  15   73.39   26.40
   2  15  17   23.50   42.00
  15  17   2   74.19   35.60
  17   2  15   54.59   31.10
  15 -17  -2   51.19   24.00
  17  -4  15  139.29   30.10
   4 -15  17  239.88   27.40
 -15  17   4  227.88   33.40
  15 -17   4  137.19   28.20
  -4  15  17  161.18   48.30
  17   4  15  152.28   38.30
  15  17   4  173.38   41.50
  15 -17  -4  129.59   27.80
   4  15  17  165.98   55.89
  -6  15  17  -13.80   43.40
  15 -17   6   -6.50   21.90
  17  -6  15  -16.60   22.00
   6 -15  17    0.30   17.70
   6  15  17   -1.30   41.80
  15 -17  -6   19.90   24.80
  17   6  15   24.60   34.70
  15  17   6    9.10   34.60
  -8  15  17   35.10   41.10
   8 -15  17   53.69   20.80
 -15  17   8    3.50   13.40
  17  -8  15   61.99   28.10
  15 -17   8   48.50   26.60
  15  17   8   11.90   39.50
  17   8  15   52.79   39.10
   8  15  17   27.70   43.60
  15 -17  -8   56.09   25.80
 -15  17  10   -7.10    9.80
 -10  15  17   29.60   40.50
  17 -10  15   24.20   26.00
  15 -17  10    2.40   23.40
  10 -15  17   13.20   22.30
  15 -17 -10   42.40   26.20
  15  17  10   31.00   43.00
  10  15  17   62.99   50.89
  17  10  15  -17.80   39.60
  15 -17  12   20.70   24.40
 -12  15  17   20.60   41.30
  17 -12  15   16.70   27.50
 -15  17  12  -18.50   10.60
  12 -15  17   13.40   24.10
  17  12  15   56.59   42.60
  15  17  12   22.40   41.90
  12  15  17   32.10   47.80
  17 -14  15   11.30   28.20
 -14  15  17   12.50   37.60
  14 -15  17   -4.50   25.80
 -15  17  14  -11.90   10.60
  15 -17  14    2.00   26.30
  14  15  17   22.00   48.70
  15  17  14  -28.60   44.20
  17  14  15   19.40   44.20
  16 -17   1  422.36   49.40
  -1  16  17  410.86   66.49
  16  17  -1  399.76   54.79
  17  -1  16  507.15   51.59
  17   1  16  420.36   60.89
  16 -17  -1  432.06   50.19
  16  17   1  403.96   56.69
   1  16  17  289.17   60.59
  17  -3  16   24.90   24.70
  16 -17   3   12.30   23.60
   3 -16  17    9.80    5.50
  -3  16  17    0.30   47.10
 -16  17   3   -5.80    9.60
  16  17   3   -5.00   33.30
  17   3  16    1.70   32.20
   3  16  17   31.60   44.60
  16 -17  -3   20.30   22.10
  17  -5  16   63.19   26.40
  -5  16  17   54.09   45.60
  16 -17   5  114.69   29.70
   5 -16  17   57.19   19.80
  16  17   5   90.69   37.30
   5  16  17   70.59   46.40
  17   5  16   94.59   38.20
  16 -17  -5   84.99   24.70
   7 -16  17   36.00   21.00
  -7  16  17   -8.10   39.10
  16 -17   7   54.09   25.40
  17  -7  16   37.60   27.90
  17   7  16   95.19   40.20
   7  16  17   80.99   48.40
  16 -17  -7   43.80   25.20
  16  17   7   73.89   40.70
   9 -16  17   41.30   22.40
  16 -17   9   64.09   26.10
  -9  16  17   32.00   44.60
  17  -9  16   31.30   26.30
  17   9  16  104.49   43.30
  16  17   9   74.09   42.20
  16 -17  -9  123.79   29.10
   9  16  17   38.40   48.10
  17 -11  16  148.29   34.00
 -11  16  17  163.38   50.69
  11 -16  17  184.38   31.30
  16 -17  11  187.28   35.00
  17  11  16  188.38   49.60
  16  17  11  162.18   49.30
  11  16  17  184.48   57.59
 -13  16  17  189.58   48.30
  13 -16  17  193.38   31.30
  17 -13  16  166.68   33.00
  16 -17  13  120.49   30.70
  16  17  13  176.68   51.19
  13  16  17  207.98   55.79
  17  13  16  207.98   54.49
   0  17  17  412.16   71.69
  17 -17   0  530.55   56.49
  17   0  17  549.45   57.99
  17   0  17  493.55   67.99
  17  17   0  510.75   68.29
  17 -17   2  363.86   49.30
  -2  17  17  242.48   59.09
  17  -2  17  374.26   50.09
  17  17  -2  356.46   53.69
   2  17  17  338.97   63.89
  17   2  17  501.85   63.49
  17 -17  -2  531.05   51.29
  17  17   2  501.55   65.29
  -4  17  17  396.36   68.89
  17  -4  17  369.26   50.09
  17  17  -4  352.76   54.29
  17 -17   4  403.56   51.19
   4  17  17  411.96   66.99
  17   4  17  467.95   59.09
  17 -17  -4  416.36   50.69
  17  17   4  450.05   65.09
  -6  17  17   49.90   45.40
   6 -17  17   41.00   20.90
  17  -6  17    5.10   23.60
  17 -17   6   36.70   28.00
  17 -17  -6   57.19   27.40
   6  17  17   29.50   46.60
  17   6  17   72.09   40.70
  17  17   6   42.50   38.90
  -8  17  17   95.19   45.90
   8 -17  17   88.59   24.30
  17  -8  17  109.59   30.70
  17 -17   8   66.69   27.10
  17 -17  -8  145.59   30.30
   8  17  17   50.59   47.60
  17   8  17  129.79   45.60
  17  17   8   88.29   44.00
 -10  17  17   -6.10   41.50
  10 -17  17   17.70   24.10
  17 -10  17   27.10   29.00
  17 -17  10   14.00   29.80
  17 -17 -10   41.80   28.00
  10  17  17   78.59   50.09
  17  10  17   53.69   43.90
  17  17  10   42.10   41.40
 -12  17  17    5.20   42.60
  12 -17  17   37.00   25.60
  17 -12  17   16.80   26.70
  17 -17  12   39.90   31.10
  12  17  17   75.09   53.49
  17  12  17   98.09   49.10
  17  17  12   93.79   45.60
   0   0  18  904.11   93.19
  18   0   0  909.31   78.29
  18  -2   0  439.26   43.90
  18   2   0  393.96   43.40
   2   0  18  422.46   62.99
  -2   0  18  433.66   61.79
   4   0  18  494.65   67.69
  -4   0  18  490.25   65.49
  18  -4   0  483.55   48.50
   0  18   6   -8.80   35.30
  18  -6   0   16.00   18.70
   6   0  18   -1.60   32.00
  -6   0  18   22.90   32.30
   0 -18   6   14.40   18.90
   0 -18   8   -2.50   16.20
  18  -8   0   19.00   21.40
   8   0  18   -5.00   32.20
   0  18   8   19.70   35.30
  -8   0  18  -18.90   32.30
   0  18  10  302.87   52.99
 -10   0  18  307.77   48.50
  18  10   0  322.87   36.10
  18 -10   0  315.57   41.00
  10   0  18  273.57   47.00
  18 -12   0  837.72   78.59
  18  12   0  870.51   79.69
  12   0  18  933.81   92.99
 -12   0  18  909.01   89.59
   0  18  12  823.72   98.19
  14   0  18  160.68   41.10
  18  14   0  151.48   32.90
   0  18  14  132.69   50.19
  18 -14   0  202.98   31.60
  16   0  18  190.88   42.90
  16   0  18  199.68   33.10
   0  18  16  143.19   50.69
  18  16   0  211.98   39.90
  18 -16   0  172.88   30.20
  18   1  -1  187.98   25.10
  18  -1   1  167.58   26.00
  -1   1  18  196.58   41.50
   1  -1  18  227.48   43.40
   1  -1  18  182.18   21.90
  18   1   1  267.07   31.50
  -1  -1  18  281.67   42.90
  -3   1  18 1099.69  103.59
   3  -1  18 1195.38  106.09
  18  -3   1 1147.69   91.99
   1 -18   3 1108.79   91.79
  -3  -1  18  975.60  103.19
  18  -3  -1 1029.60   91.29
   3   1  18  991.30  104.59
  -5   1  18  495.55   66.19
  18  -5   1  500.45   48.30
   1 -18   5  503.55   47.20
  -1  18   5  540.25   71.69
   5  -1  18  462.65   66.19
  -5  -1  18  455.65   65.69
   1  18   5  413.46   60.49
   5   1  18  474.05   66.49
  18  -5  -1  415.26   47.40
   7  -1  18  301.27   48.10
  18  -7   1  328.67   40.90
  -1  18   7  273.47   49.50
   1 -18   7  354.16   38.10
  -7   1  18  305.77   47.30
  18  -7  -1  361.36   39.80
   1  18   7  314.27   50.49
  -7  -1  18  334.97   48.40
   7   1  18  331.87   48.70
   1 -18   9  314.27   37.70
  -1  18   9  342.97   55.09
  -9   1  18  314.07   50.39
   9  -1  18  337.17   52.69
  18  -9   1  336.87   41.30
   9   1  18  399.46   54.69
  18  -9  -1  342.77   41.10
   1  18   9  328.57   53.49
  18   9   1  303.57   34.60
  -9  -1  18  335.87   50.09
  11  -1  18   10.10   33.70
  18  11  -1   -7.40   17.90
  18 -11   1   -0.70   21.60
   1 -18  11  -11.30   17.70
 -11   1  18    5.70   33.60
  -1  18  11    2.70   42.50
 -11  -1  18  -14.20   33.10
  18 -11  -1    7.50   21.80
   1  18  11    5.20   39.20
  11   1  18   -6.50   32.10
  18  11   1   19.90   20.30
  18 -13   1  286.77   40.80
  13  -1  18  246.08   46.80
  18  13  -1  281.67   37.90
  -1  18  13  244.38   53.49
   1 -18  13  274.77   35.10
 -13   1  18  300.87   45.00
  13  -1  18  269.37   39.60
  18 -13  -1  301.77   40.80
   1  18  13  203.98   51.19
  18  13   1  303.77   39.10
  13   1  18  329.07   52.39
  -1  18  15  257.57   59.39
  18  15  -1  292.07   42.00
  15  -1  18  299.27   42.70
  18 -15   1  209.38   34.80
  15  -1  18  258.77   46.40
  18  15   1  364.66   44.90
  15   1  18  287.17   48.50
   1  18  15  300.97   61.29
  18 -15  -1  377.16   44.10
  17  -1  18  175.88   31.90
  18  17  -1  215.28   41.80
  18 -17   1  270.07   35.90
  -1  18  17  146.09   52.79
  17   1  18  211.18   45.20
  18  17   1  227.38   43.10
  18 -17  -1  178.38   31.10
  17   1  18  146.99   31.30
   1  18  17  261.37   64.39
   2 -18   0  450.35   44.80
   0  -2  18  391.56   35.60
   0   2  18  440.26   61.09
  18   0   2  434.16   44.00
   0  -2  18  352.76   53.29
  18   0  -2  425.76   42.60
   2 -18   2  931.81   80.59
  18  -2   2  907.91   80.69
   2  -2  18  878.21   76.29
  -2   2  18  869.01   93.39
  18   2  -2  879.81   79.19
   2  -2  18  895.31   94.69
  -2  -2  18  997.20   94.19
  18  -2  -2 1016.70   79.89
   2   2  18 1074.59   95.89
   4  -2  18  354.26   34.60
  18  -4   2  376.06   40.50
  -4   2  18  408.26   59.69
   2 -18   4  381.96   40.10
   4  -2  18  396.66   51.79
   4   2  18  268.97   47.50
  -4  -2  18  305.37   49.20
  18  -4  -2  326.87   39.30
   2 -18   6   22.30   17.90
  -2  18   6   20.40   35.90
   6  -2  18   52.09   34.20
  18  -6   2   33.10   20.40
   6  -2  18   32.20   15.90
  -6   2  18   46.30   34.50
   6   2  18   60.69   37.20
  18  -6  -2   64.39   21.20
   2  18   6   64.39   37.40
  -6  -2  18   59.39   35.10
  -2  18   8  157.88   47.10
   8  -2  18  143.99   39.30
  -8   2  18  139.99   40.00
   2 -18   8  151.58   24.70
   8  -2  18  133.59   23.10
  18  -8   2  145.09   27.60
  -8  -2  18  175.38   40.40
  18  -8  -2  220.58   26.50
   8   2  18  229.48   46.90
   2  18   8  290.77   50.09
  10  -2  18  114.69   37.10
   2 -18  10  100.59   22.10
  10  -2  18  101.79   22.30
 -10   2  18   93.29   38.70
  -2  18  10   86.29   42.40
  18  10  -2  130.09   20.80
  18 -10   2   86.59   24.00
 -10  -2  18   91.49   38.00
  18  10   2  103.19   21.70
  18 -10  -2   85.59   23.10
   2  18  10  125.69   47.10
  10   2  18   53.29   40.00
  18 -12   2  163.08   29.60
  -2  18  12  195.28   51.09
  12  -2  18  180.38   29.30
  12  -2  18  188.58   42.30
 -12   2  18  200.38   41.20
  18  12  -2  209.68   31.00
   2 -18  12  233.78   28.20
  12   2  18  290.77   48.80
   2  18  12  176.28   50.49
  18  12   2  277.47   35.00
  18 -12  -2  293.07   33.10
   2 -18  14  173.58   24.20
  18  14  -2  177.98   32.80
 -14   2  18  189.28   37.90
  18 -14   2  149.29   27.80
  14  -2  18  193.58   29.90
  14  -2  18  157.98   39.70
  -2  18  14  271.77   54.69
  18 -14  -2  131.09   27.60
  18  14   2  159.78   34.30
  14   2  18   94.79   42.00
   2  18  14  137.59   48.90
  18 -16   2  173.58   30.70
  16  -2  18  136.19   27.30
  18  16  -2  177.98   36.40
  -2  18  16  130.09   50.49
   2  18  16    5.80   46.10
  18  16   2   54.59   34.20
  16   2  18  114.49   41.70
   1  -3  18 1067.19   84.39
  -1   3  18 1089.89  102.59
  18   1  -3 1120.59   87.99
   1  -3  18 1091.49  103.49
  18  -1   3 1080.79   89.79
   3 -18   1 1089.09   89.29
   1   3  18  986.20  101.79
  -1  -3  18  936.31  101.99
  18  -1  -3  986.70   87.49
   3 -18  -1  952.10   89.29
  -3   3  18  939.61   89.39
   3 -18   3  905.61   74.39
   3  -3  18  875.51   90.09
   3  -3  18  858.41   70.09
  18   3  -3  918.31   72.69
  18  -3   3  890.21   74.89
   3   3  18  720.63   87.49
  -3  -3  18  724.63   87.19
  18  -3  -3  709.53   72.69
  -3  18   5  277.97   49.90
  -5   3  18  201.38   41.40
   5  -3  18  310.67   48.40
   5  -3  18  273.47   29.20
  18  -5   3  285.77   35.40
   3 -18   5  285.47   34.40
   5   3  18  128.39   41.10
   3  18   5  187.28   48.60
  -5  -3  18  182.48   42.70
  18  -7   3  205.18   28.50
   7  -3  18  188.58   42.10
  -7   3  18  264.37   45.60
   7  -3  18  207.58   28.70
   3 -18   7  197.38   26.50
  -3  18   7  196.38   43.40
   3  18   7  137.09   42.50
  -7  -3  18  206.98   41.50
  18  -7  -3  216.08   27.50
   7   3  18  217.08   43.20
   3 -18   9  806.62   71.29
   9  -3  18  803.72   71.09
   9  -3  18  803.02   87.79
  18  -9   3  830.32   73.89
  -9   3  18  789.32   86.89
  -3  18   9  884.51   91.49
  18  -9  -3  799.82   71.79
   3  18   9  826.72   91.19
  18   9   3  776.22   70.69
  -9  -3  18  786.02   86.49
   9   3  18  830.42   88.19
   3 -18  11  247.48   34.80
 -11   3  18  247.98   45.00
  -3  18  11  284.87   53.59
  11  -3  18  251.87   45.00
  18 -11   3  249.48   33.20
  11  -3  18  254.37   35.40
  18  11  -3  282.27   34.40
  18 -11  -3  254.57   37.20
  11   3  18  249.97   48.00
   3  18  11  210.88   50.69
  18  11   3  238.88   34.30
  -3  18  13  281.77   56.69
  18 -13   3  365.76   45.80
  13  -3  18  387.46   45.20
  18  13  -3  347.37   45.60
  13  -3  18  378.76   54.39
 -13   3  18  402.56   52.19
   3 -18  13  375.06   41.60
  13   3  18  349.47   53.29
  18 -13  -3  388.96   45.40
  18  13   3  403.56   51.49
   3  18  13  426.96   65.59
  18 -15   3  510.75   56.69
  15  -3  18  540.15   55.29
  18  15  -3  471.85   58.69
  -3  18  15  585.94   84.09
 -15   3  18  540.35   60.29
   3 -18  15  516.05   49.90
  15   3  18  488.65   70.99
  18 -15  -3  495.85   55.29
   3  18  15  485.25   73.89
  18  15   3  471.65   62.59
  -3  18  17  156.08   53.99
  18  17  -3  318.17   46.30
  17  -3  18  339.67   45.00
  18 -17   3  338.97   41.30
  17   3  18  274.77   51.59
  18  17   3  250.07   47.70
  18 -17  -3  251.67   38.10
   3  18  17  176.78   57.29
   0   4  18  437.26   64.69
  18   0  -4  475.15   44.50
  18   0   4  409.46   47.80
   4 -18   0  481.95   47.50
   0  -4  18  492.15   64.19
   4 -18   2  411.76   42.90
   2  -4  18  363.56   34.20
  -2   4  18  326.37   50.29
  18   2  -4  399.96   39.20
   2  -4  18  472.85   62.99
  18  -2   4  387.86   42.90
   2   4  18  400.26   56.89
   4 -18  -2  367.46   43.20
  18  -2  -4  355.96   39.50
  -2  -4  18  368.66   53.89
   4  -4  18  791.32   82.99
   4 -18   4  795.52   67.79
  18  -4   4  800.52   68.69
   4  -4  18  762.92   63.79
  18   4  -4  753.42   65.49
  -4   4  18  768.42   83.09
   4   4  18  530.25   80.09
  -6   4  18  846.02   89.79
  18  -6   4  857.41   76.49
   4 -18   6  894.41   75.09
  -4  18   6  890.11   92.59
   6  -4  18  899.71   72.79
   6  -4  18  840.32   90.19
  -6  -4  18  773.52   88.69
   4  18   6  829.02   93.39
   6   4  18  846.42   90.89
  18  -6  -4  806.02   74.39
  -4  18   8  264.37   48.60
   8  -4  18  302.57   34.10
  18  -8   4  290.77   39.90
   8  -4  18  268.47   47.70
  -8   4  18  258.27   45.40
   4 -18   8  273.07   36.60
  -8  -4  18  344.17   51.39
   8   4  18  301.57   52.59
  18  -8  -4  266.37   36.30
  18   8   4  249.18   32.20
   4  18   8  372.86   56.69
 -10   4  18  296.47   46.30
  -4  18  10  225.48   48.30
  10  -4  18  221.88   45.80
  18 -10   4  319.37   41.70
  18  10  -4  274.47   35.00
  10  -4  18  277.97   36.60
   4 -18  10  281.77   36.80
  18 -10  -4  286.57   38.00
  18  10   4  317.07   38.50
  10   4  18  345.37   53.39
   4  18  10  372.16   58.19
  12  -4  18  100.09   37.60
  18 -12   4  118.89   26.30
   4 -18  12  173.58   25.20
  12  -4  18  121.99   24.30
  -4  18  12   93.69   43.00
  18  12  -4  135.29   25.90
 -12   4  18  197.38   41.60
  18 -12  -4  120.49   24.90
  12   4  18  146.49   43.40
   4  18  12   96.69   45.30
  18  12   4  183.38   31.80
  -4  18  14    7.40   42.60
 -14   4  18  -33.50   29.20
  18 -14   4   16.20   23.10
  14  -4  18    6.10   22.60
   4 -18  14   17.80   19.60
  18  14  -4   16.50   23.70
  14   4  18   40.50   38.40
   4  18  14    9.90   50.79
  18  14   4   11.60   28.00
  18 -14  -4    7.80   21.30
  18  16  -4   85.99   32.20
   4 -18  16   92.79   21.00
  16  -4  18   32.20   24.20
  -4  18  16   87.49   50.09
  18 -16   4   65.99   25.40
  16   4  18  121.29   42.30
  18  16   4  149.09   38.10
   4  18  16  101.99   52.69
  18 -16  -4  102.39   25.70
   1  -5  18  525.85   64.89
  18  -1   5  511.35   49.10
   1  -5  18  492.55   40.00
   5 -18   1  509.25   48.30
  -1   5  18  516.05   65.49
  18   1  -5  510.25   44.70
   5 -18  -1  413.36   48.30
  18  -1  -5  384.66   44.80
   1   5  18  403.76   59.49
  -1  -5  18  437.66   64.69
  18   3  -5  265.47   28.80
   3  -5  18  209.38   42.40
   3  -5  18  246.78   25.20
   5 -18   3  260.67   33.80
  18  -3   5  273.07   35.80
  -3   5  18  287.17   48.90
  -3  -5  18  186.88   44.90
   3   5  18  242.38   46.70
   5 -18  -3  160.08   27.60
  18  -3  -5  173.78   26.60
  -5   5  18  601.74   72.19
   5  -5  18  516.95   71.89
   5  -5  18  529.65   50.69
  18  -5   5  501.35   56.09
  18   5  -5  514.95   51.19
  -5  18   5  597.34   73.79
   5 -18   5  546.85   54.39
   5 -18  -5  625.04   56.09
   5   5  18  616.84   73.69
  -5  -5  18  694.23   73.29
  18  -5  -5  632.34   53.49
   5  18   5  654.13   75.99
  -5  18   7  231.08   49.00
   7  -5  18  136.79   42.00
   5 -18   7  198.58   27.70
  -7   5  18  190.78   44.10
  18  -7   5  141.59   27.70
   7  -5  18  164.78   24.20
  -7  -5  18  250.67   46.30
   7   5  18  218.58   42.80
  18  -7  -5  219.58   30.70
  18   7   5  207.28   26.40
   5  18   7  278.57   49.80
   5 -18   9  155.78   26.10
  18  -9   5  183.68   27.90
   9  -5  18  239.38   43.90
  -5  18   9  111.29   39.50
  -9   5  18  162.08   39.60
   9  -5  18  114.29   22.30
  18  -9  -5  117.49   23.20
  18   9   5  154.88   25.60
   9   5  18  116.79   43.50
   5  18   9  170.28   45.50
  -5  18  11  376.76   60.89
  11  -5  18  385.86   58.29
  18 -11   5  475.25   52.89
  11  -5  18  497.55   49.60
   5 -18  11  507.85   49.90
 -11   5  18  484.85   66.89
  18  11  -5  512.15   50.39
  18 -11  -5  509.75   51.09
   5  18  11  527.05   76.29
  11   5  18  561.54   72.39
  18  11   5  492.15   54.39
   5 -18  13   51.19   20.50
  13  -5  18   42.60   22.10
 -13   5  18   44.70   34.00
  18 -13   5   70.79   26.70
  18  13  -5   31.00   24.10
  -5  18  13   39.20   38.80
  18  13   5   34.60   28.60
  13   5  18   31.30   40.40
   5  18  13   72.99   49.70
  18 -13  -5   60.09   21.90
 -15   5  18   25.50   22.00
   5 -18  15    1.70   19.30
  18  15  -5  -26.30   25.10
  18 -15   5   11.00   25.60
  15  -5  18   -7.00   21.40
  -5  18  15   -6.50   48.80
  18  15   5   10.00   31.80
   5  18  15   16.00   46.90
  18 -15  -5   -0.40   23.00
  15   5  18  -12.70   38.10
  18  17  -5  -37.70   29.60
  17  -5  18  -18.70   25.40
  18 -17   5  -21.10   27.10
  -5  18  17    7.10   43.90
  18 -17  -5   -7.40   27.30
  18  17   5   14.60   36.60
   5  18  17   -7.60   49.50
  17   5  18   33.50   40.70
   0  -6  18   32.80   38.80
   0   6  18   24.10   38.10
  18   0  -6   11.40   15.00
   6 -18   0   21.20   19.60
   2  -6  18   21.10   10.30
   2  -6  18   47.50   35.60
  18   2  -6   11.50   14.30
   6 -18   2   25.30   19.20
  18  -2   6   17.50   20.40
  -2   6  18    5.00   37.00
   2   6  18   82.79   37.80
  18  -2  -6   78.49   17.10
   6 -18  -2   65.29   20.30
  -2  -6  18   66.99   37.30
  -4   6  18  890.61   91.89
   4  -6  18  857.01   92.99
  -6  18   4  976.00   92.59
  18  -4   6  906.31   77.89
   6 -18   4  877.91   76.39
   4  -6  18  881.41   72.49
  18   4  -6  902.91   73.19
   6 -18  -4  837.12   76.79
   4   6  18  767.32   91.09
   6  18   4  837.22   93.49
  -4  -6  18  816.82   90.59
  18  -4  -6  818.32   74.19
  -6  18   6 2383.86  188.78
  18  -6   6 2358.76  178.18
  -6   6  18 2359.06  187.88
   6  -6  18 2323.57  188.88
   6  -6  18 2334.87  175.48
   6 -18   6 2334.77  177.28
  18   6  -6 2283.37  175.08
   6   6  18 1921.01  186.58
   6 -18  -6 1948.71  176.88
  18  -6  -6 2001.50  175.78
   6  18   6 2046.30  188.38
  18   6   6 1939.11  175.38
  18  -8   6  966.50   82.19
   8  -6  18  960.20   78.79
   8  -6  18  904.61   96.39
   6 -18   8  919.01   80.49
  -8   6  18  943.31   96.39
  -6  18   8  909.71   96.59
  18  -8  -6  854.21   79.19
  18   8   6  861.21   79.99
   6  18   8  965.30   99.29
   8   6  18  911.11   96.29
  10  -6  18   18.00   19.30
  18 -10   6   34.80   25.50
   6 -18  10   35.70   21.80
  -6  18  10   24.60   38.40
 -10   6  18   33.50   35.70
  18 -10  -6   43.50   20.60
  10   6  18   26.30   36.10
   6  18  10   27.90   39.40
  18  10   6   51.19   23.50
  12  -6  18  316.97   41.00
  -6  18  12  275.57   56.09
   6 -18  12  309.17   41.40
  18 -12   6  283.97   38.80
 -12   6  18  399.46   54.39
  18 -12  -6  365.16   42.00
  18  12   6  381.76   49.60
  12   6  18  290.47   50.59
   6  18  12  374.66   62.39
  14  -6  18  283.47   36.10
 -14   6  18  315.57   46.90
   6 -18  14  288.47   38.30
  18 -14   6  199.58   35.00
  -6  18  14  196.78   49.99
  14   6  18  355.96   52.99
   6  18  14  247.08   54.49
  18  14   6  405.46   47.80
   6 -18  16  308.07   42.80
  16  -6  18  335.47   48.20
  -6  18  16  345.47   66.69
  18 -16   6  324.27   49.10
   6  18  16  278.87   60.79
  16   6  18  405.16   59.09
  18  16   6  470.35   64.09
  18 -16  -6  481.85   49.50
  18  -1   7  321.07   42.80
   1  -7  18  415.36   55.59
   7 -18   1  319.87   40.60
  -1   7  18  312.67   51.19
  18   1  -7  325.17   35.90
   7 -18  -1  385.36   42.10
   1   7  18  405.06   56.39
  18  -1  -7  397.26   36.50
   3  -7  18  270.77   47.20
  -3   7  18  295.67   50.09
  18  -3   7  163.88   28.80
  18   3  -7  231.18   26.10
   3  -7  18  209.98   24.20
   7 -18   3  204.48   28.20
   7 -18  -3  162.78   27.60
  18  -3  -7  225.98   28.50
   3   7  18  217.28   48.90
  18   5  -7  178.28   22.60
  -7  18   5  218.48   46.40
   7 -18   5  184.98   28.90
  -5   7  18  185.68   42.80
  18  -5   7  140.19   28.70
   5  -7  18  166.68   22.80
   5   7  18  289.67   49.60
  18   5   7  207.58   26.60
   7 -18  -5  252.17   33.80
   7  18   5  258.27   46.00
  18  -5  -7  250.87   29.60
   7  -7  18  601.34   58.99
  18   7  -7  591.44   56.69
  -7   7  18  596.14   78.59
  18  -7   7  622.34   63.59
  -7  18   7  677.03   78.79
   7 -18   7  585.04   61.39
  18  -7  -7  747.33   60.39
   7   7  18  808.72   81.79
  18   7   7  748.13   61.59
   7  18   7  757.62   82.39
   9  -7  18  920.21   77.79
  -7  18   9  921.01   96.49
   7 -18   9  894.61   78.79
  18   9  -7  852.91   74.69
  -9   7  18  875.61   94.19
  18  -9   7  971.70   81.79
   9   7  18  884.61   95.99
   7  18   9  948.11   99.49
  18  -9  -7  906.41   78.39
  18   9   7  789.52   80.69
  -7  18  11  607.94   79.79
   7 -18  11  594.14   57.89
 -11   7  18  649.43   76.09
  18 -11   7  600.64   61.29
  11  -7  18  597.54   57.39
   7  18  11  564.84   82.69
  18 -11  -7  597.44   57.89
  11   7  18  574.04   78.89
  18  11   7  561.54   64.19
  13  -7  18   43.60   22.50
   7 -18  13   86.79   22.00
 -13   7  18   26.50   35.40
  18 -13   7   75.29   28.70
  -7  18  13   43.30   44.80
  18 -13  -7   41.00   22.60
   7  18  13   82.99   49.00
  18  13   7   42.80   30.10
  13   7  18   75.99   43.90
 -15   7  18  -28.20   14.50
  -7  18  15   16.00   43.60
  18 -15   7   10.50   26.10
   7 -18  15   20.70   21.90
  15  -7  18   10.50   25.20
  18  15   7   42.00   35.30
  15   7  18   44.80   42.10
   7  18  15   35.40   54.19
  18 -15  -7   19.70   22.80
  17  -7  18   26.30   25.70
   7 -18  17   10.40   21.60
  -7  18  17    4.10   50.19
  18 -17   7    4.90   28.30
   7  18  17    9.70   56.19
  17   7  18    3.20   41.50
  18  17   7    7.80   38.00
  18 -17  -7   27.90   25.90
   0   8  18   -5.00   33.90
  18   0  -8    7.70   13.60
   8 -18   0   31.10   21.30
  -2   8  18  103.99   39.70
  18   2  -8  146.49   20.60
   2  -8  18  197.58   19.70
  18  -2   8  140.49   26.70
   8 -18   2  136.09   26.40
  18  -2  -8  212.08   25.70
   8 -18  -2  233.28   29.20
   2   8  18  251.67   45.90
  18   4  -8  319.87   30.70
  18  -4   8  319.27   41.60
  -8  18   4  286.07   48.00
   4  -8  18  290.37   30.90
   8 -18   4  331.77   39.40
  -4   8  18  341.67   51.29
  18   4   8  268.77   32.90
  18  -4  -8  282.07   33.50
   4   8  18  286.57   50.89
   8  18   4  299.97   51.59
   8 -18  -4  298.37   39.50
  -6   8  18  908.31   96.19
  18   6  -8  929.01   74.69
   8 -18   6  912.91   79.59
   6  -8  18  914.81   76.39
  -8  18   6  945.81   94.39
  18  -6   8  947.81   80.69
  18   6   8  885.21   79.09
   6   8  18  870.51   96.69
  18  -6  -8  847.32   76.89
   8 -18  -6  825.02   79.99
   8  18   6  957.80   96.79
  -8   8  18  532.85   74.59
  18   8  -8  490.25   49.70
   8 -18   8  547.65   55.49
   8  -8  18  528.15   53.09
  18  -8   8  515.05   58.19
  -8  18   8  508.15   73.49
   8  18   8  758.02   77.69
   8   8  18  735.43   79.09
  18   8   8  678.63   58.39
 -10   8  18   76.59   37.90
   8 -18  10   94.89   24.50
  -8  18  10   94.19   43.40
  10  -8  18   96.19   22.50
  18 -10   8   79.59   25.60
  18  10   8   84.99   28.90
  18 -10  -8   96.79   22.10
   8  18  10  163.38   49.60
  10   8  18  114.19   44.90
   8 -18  12  149.59   26.70
 -12   8  18  214.98   43.40
  12  -8  18  220.48   30.80
  18 -12   8  181.48   31.10
  -8  18  12  167.68   48.40
  18 -12  -8  161.08   27.20
  12   8  18  183.78   50.09
   8  18  12  115.69   46.30
  18  12   8  169.88   36.60
  14  -8  18   38.30   26.00
  -8  18  14   85.29   41.30
  18 -14   8   23.70   27.60
 -14   8  18   45.90   34.70
   8 -18  14   11.40   21.80
  18  14   8   13.20   32.50
   8  18  14   12.40   44.60
  14   8  18   21.00   41.00
  18 -14  -8   33.70   22.70
  -8  18  16   93.79   50.69
  18 -16   8   78.59   31.40
  16  -8  18   81.39   27.50
   8 -18  16  124.59   26.20
   8  18  16   68.89   49.30
  18  16   8   70.79   40.80
  16   8  18   81.49   42.90
  18 -16  -8   65.79   26.10
  18  -1   9  311.07   41.00
  -1   9  18  210.18   47.70
   9 -18   1  298.77   39.10
  18   1  -9  276.37   29.90
  18  -1  -9  328.97   31.40
   9 -18  -1  308.27   39.30
   1   9  18  317.97   51.89
  -9  18   3  811.32   86.49
   9 -18   3  808.42   72.79
   3  -9  18  811.62   67.39
  18   3  -9  789.42   67.39
  18  -3   9  836.32   74.79
  -3   9  18  750.12   89.29
   9  18   3  825.92   88.89
  18   3   9  786.52   70.29
   9 -18  -3  806.62   72.69
  18  -3  -9  859.91   68.99
   3   9  18  767.72   90.89
  18  -5   9  140.09   27.10
  -5   9  18  146.59   46.20
  -9  18   5   95.39   35.60
   9 -18   5  165.58   27.90
   5  -9  18  171.38   20.90
   9 -18  -5  131.49   25.10
  18  -5  -9  181.48   22.50
   5   9  18  134.79   46.50
  18   5   9  142.39   25.20
   9  18   5  102.29   38.50
   9 -18   7  921.31   79.39
  -7   9  18  932.21   96.69
  18  -7   9  924.31   80.79
  -9  18   7  937.31   93.49
   7  -9  18  882.51   76.39
   9  18   7  828.02   95.79
  18  -7  -9  906.81   76.99
  18   7   9  850.71   80.99
   7   9  18  867.41   96.59
   9 -18  -7  856.31   79.69
  -9   9  18 2059.59  173.98
  18  -9   9 2087.49  163.78
   9 -18   9 1976.80  161.78
  -9  18   9 1978.20  173.18
   9  -9  18 2004.80  160.78
   9  18   9 2042.80  176.28
  18   9   9 1797.82  165.18
   9   9  18 1878.91  175.08
  18  -9  -9 1950.90  160.48
  -9  18  11  679.03   86.39
   9 -18  11  721.23   68.69
 -11   9  18  824.82   88.39
  18 -11   9  751.72   71.29
  11  -9  18  713.33   67.79
  18 -11  -9  737.83   68.39
  18  11   9  793.92   77.59
   9  18  11  706.13   92.39
  11   9  18  727.83   90.39
   9 -18  13  140.59   27.30
  13  -9  18  154.58   29.40
  18 -13   9  177.98   32.50
  -9  18  13  112.19   44.90
 -13   9  18  120.89   41.20
  18 -13  -9  161.58   28.30
  13   9  18   78.79   43.90
   9  18  13   84.39   45.20
  18  13   9  129.59   39.30
  15  -9  18   40.80   27.60
  -9  18  15   18.70   41.00
  18 -15   9   12.10   27.70
   9 -18  15   14.70   22.50
  15   9  18   25.70   45.60
   9  18  15  -12.60   43.80
  18  15   9   -4.30   34.90
  18 -15  -9   28.60   24.30
  18 -17   9   32.90   29.80
  -9  18  17   26.80   44.50
  17  -9  18   45.40   27.80
   9 -18  17   50.59   24.20
   9  18  17    6.80   50.59
  18  17   9   19.40   38.90
  18 -17  -9   24.50   26.60
  17   9  18   56.89   44.20
   0  10  18  299.57   52.19
  10 -18   0  293.67   39.10
  18   0 -10  295.97   29.70
  18  -2  10   93.49   26.00
  -2  10  18   65.19   40.00
  10 -18   2  109.69   25.40
  10  18   2   77.49   40.50
  18   2  10  124.49   21.60
   2  10  18   85.99   39.90
  10 -18  -2   82.59   23.00
  18  -2 -10  122.19   17.50
   4 -10  18  306.97   31.20
 -10  18   4  274.87   45.40
  18  -4  10  305.47   40.80
  10 -18   4  322.47   40.20
  -4  10  18  248.68   49.00
  18   4  10  267.17   37.50
   4  10  18  314.27   53.29
  10 -18  -4  282.57   40.10
  18  -4 -10  319.97   33.00
  10  18   4  264.37   47.40
   6 -10  18    3.90   15.70
  10 -18   6   19.00   21.20
  -6  10  18  -10.20   40.30
 -10  18   6    8.40   33.90
  18  -6  10   22.30   23.50
   6  10  18   28.90   38.30
  10 -18  -6   37.20   21.20
  18   6  10   61.59   24.10
  18  -6 -10   63.29   17.60
  10  18   6   50.79   37.10
 -10  18   8   81.19   39.20
  -8  10  18   65.19   40.80
  10 -18   8  139.59   26.80
  18  -8  10   94.79   27.20
   8 -10  18  112.59   22.20
  10 -18  -8  123.69   25.70
  18   8  10   95.29   28.80
  10  18   8   39.70   43.10
   8  10  18   58.19   40.60
  18  -8 -10  134.79   22.30
 -10  10  18   11.70   37.30
  10 -18  10   -3.40   20.40
  18 -10  10   12.20   23.70
 -10  18  10    2.30   38.70
  10 -10  18   17.50   20.10
  18 -10 -10    4.80   19.60
  10  18  10    5.70   41.20
  18  10  10    4.80   28.70
  10  10  18  -21.30   38.50
 -12  10  18  354.26   54.49
  10 -18  12  341.67   42.90
  18 -12  10  372.16   47.60
 -10  18  12  405.96   58.79
  12 -10  18  357.76   42.90
  12  10  18  328.47   60.19
  10  18  12  196.38   52.09
  18 -12 -10  283.37   36.60
  18  12  10  249.97   47.50
  10 -18  14   41.80   23.80
 -10  18  14   81.99   43.40
  18 -14  10   51.19   28.10
  14 -10  18   92.49   28.40
 -14  10  18   42.30   37.50
  14  10  18   68.39   46.10
  10  18  14   46.70   44.40
  18 -14 -10   57.19   24.70
  18  14  10   82.99   38.60
  10 -18  16   44.20   24.70
  18 -16  10   40.10   27.20
  16 -10  18   38.10   29.30
 -10  18  16   55.49   45.90
  18 -16 -10   39.90   26.70
  10  18  16   78.49   49.80
  18  16  10   63.59   41.60
  16  10  18   40.60   44.90
  18  -1  11   -4.20   24.40
  -1  11  18   16.00   40.00
  11 -18   1   -7.00   21.20
  11 -18  -1    0.40   22.20
   1  11  18  -30.90   36.20
 -11  18   3  240.18   42.20
  11 -18   3  274.07   38.80
  18  -3  11  279.37   35.80
  -3  11  18  223.28   47.90
   3  11  18  255.47   53.09
  11  18   3  269.77   50.49
  18   3  11  247.28   36.70
  18  -3 -11  255.47   28.60
  11 -18  -3  252.27   33.40
  18  -5  11  518.15   55.29
   5 -11  18  488.65   46.60
  11 -18   5  521.35   53.09
  -5  11  18  485.35   74.39
 -11  18   5  459.65   66.39
  18  -5 -11  505.65   47.00
  11  18   5  507.85   71.59
   5  11  18  564.54   77.49
  11 -18  -5  488.35   53.19
  18   5  11  516.35   55.69
  -7  11  18  626.84   79.79
  18  -7  11  647.24   60.09
 -11  18   7  591.64   73.39
  11 -18   7  593.14   58.49
   7 -11  18  587.14   54.39
   7  11  18  577.44   80.39
  18   7  11  577.74   62.59
  18  -7 -11  569.44   53.59
  11  18   7  604.44   77.79
  11 -18  -7  524.95   58.29
   9 -11  18  743.43   66.79
  18  -9  11  786.42   72.49
  11 -18   9  742.23   69.19
  -9  11  18  750.12   89.59
 -11  18   9  771.72   85.29
  11  18   9  677.43   88.99
  11 -18  -9  687.23   69.59
  18  -9 -11  721.23   65.99
  18   9  11  753.92   76.99
   9  11  18  720.53   91.79
  11 -18  11  139.69   28.80
 -11  18  11  127.69   42.20
  18 -11  11  138.79   31.30
  11 -11  18  168.78   27.90
 -11  11  18  170.88   44.60
  11  11  18  119.89   48.70
  11  18  11   76.19   47.00
  18 -11 -11  142.19   25.60
  18  11  11  156.18   39.40
 -13  11  18   80.99   40.70
  18 -13  11   99.99   27.80
  11 -18  13   97.99   24.90
  13 -11  18   71.69   25.10
 -11  18  13   82.99   40.60
  18 -13 -11  130.59   27.10
  18  13  11  112.19   41.40
  11  18  13   97.59   51.19
  13  11  18  129.29   49.10
  18 -15  11   17.40   28.00
 -11  18  15   12.90   42.30
 -15  11  18   -4.20   11.90
  11 -18  15   23.70   24.80
  15 -11  18  -11.50   25.80
  11  18  15   -0.60   46.80
  18 -15 -11    5.60   25.00
  18  15  11   17.30   39.30
  15  11  18   27.90   43.80
 -11  18  17   73.49   45.00
  18 -17  11   46.60   30.00
  11 -18  17   51.89   26.00
  17 -11  18   40.80   30.10
  11  18  17   53.49   50.69
  17  11  18   12.70   45.50
  18  17  11   -4.00   40.70
  18 -17 -11    8.70   27.40
   0  12  18  782.72   96.49
  12 -18   0  869.51   76.19
  12 -18   2  217.28   31.00
  18  -2  12  162.68   32.20
 -12  18   2  222.38   43.60
  -2  12  18  221.38   52.09
  18   2  12  245.08   32.90
  12  18   2  267.27   47.20
  12 -18  -2  272.37   37.40
   2  12  18  221.78   52.89
  12 -18   4  128.89   25.40
 -12  18   4  162.38   38.30
  18  -4  12  145.69   28.40
  -4  12  18   79.09   42.10
  18   4  12  143.79   29.30
  12 -18  -4  143.99   27.20
  12  18   4  103.39   41.00
   4  12  18  100.49   42.70
 -12  18   6  284.27   49.70
  18  -6  12  373.46   47.30
  -6  12  18  387.26   61.79
   6 -12  18  287.57   38.00
  18   6  12  490.95   52.09
  18  -6 -12  393.96   37.80
   6  12  18  388.76   61.79
  12  18   6  384.76   56.09
  12 -18  -6  382.06   45.50
  18  -8  12  150.38   30.10
 -12  18   8  169.38   40.30
  -8  12  18  120.89   44.00
   8 -12  18  175.68   25.00
  12 -18   8  156.68   28.70
  12  18   8  179.88   49.00
  18  -8 -12  164.18   23.80
   8  12  18  222.88   53.09
  18   8  12  120.89   34.60
  12 -18  -8  151.88   27.40
 -12  18  10  296.37   50.09
  12 -18  10  381.86   44.30
 -10  12  18  385.96   58.99
  10 -12  18  366.56   41.20
  18 -10  12  356.76   46.80
  18 -10 -12  263.37   38.10
  18  10  12  335.47   49.90
  10  12  18  202.08   53.99
  12  18  10  252.17   53.79
  12 -18  12  642.34   59.59
 -12  12  18  637.74   79.39
  18 -12  12  664.53   62.79
  12 -12  18  603.94   59.09
 -12  18  12  589.94   77.09
  12  18  12  426.96   70.89
  18  12  12  588.14   75.99
  12  12  18  497.55   74.29
  18 -12 -12  487.45   56.49
  14 -12  18   88.49   28.80
  18 -14  12   76.79   30.00
 -14  12  18   71.39   39.80
  12 -18  14   64.29   25.90
 -12  18  14   59.89   40.90
  18 -14 -12   45.30   24.80
  14  12  18   69.29   48.00
  18  14  12   62.19   41.60
  12  18  14   98.29   50.99
  16 -12  18   42.30   27.20
 -16  12  18   -3.70   13.00
  12 -18  16   30.70   25.20
 -12  18  16   26.90   42.50
  18 -16  12   33.50   27.60
  18  16  12   79.89   43.90
  16  12  18   95.39   47.50
  12  18  16   90.39   54.89
  -1  13  18  276.17   55.69
  18  -1  13  329.07   44.00
  13 -18   1  295.97   41.60
 -13  18   1  289.57   44.90
  13 -18  -1  290.87   41.10
  13  18   1  309.37   50.79
  18   1  13  275.57   38.70
   1  13  18  222.58   51.79
  18  -3  13  379.46   48.60
 -13  18   3  379.46   58.09
  13 -18   3  381.06   46.80
  -3  13  18  399.36   65.49
   3  13  18  329.87   57.69
  13  18   3  414.66   55.79
  13 -18  -3  407.86   46.50
  18   3  13  409.06   50.09
  18  -5  13   25.60   25.20
  -5  13  18   50.39   46.40
  13 -18   5   42.40   21.80
 -13  18   5   47.50   32.80
   5 -13  18   51.89   16.00
   5  13  18   29.50   41.70
  13  18   5    0.00   35.60
  18   5  13   28.20   26.80
  13 -18  -5   15.60   21.70
  13 -18   7  100.39   25.60
  -7  13  18   65.39   46.70
 -13  18   7   48.10   34.10
  18  -7  13   60.29   27.90
   7 -13  18   47.30   19.50
  13 -18  -7   82.99   25.50
   7  13  18   73.89   46.70
  18   7  13   37.50   30.10
  18  -7 -13   53.19   17.50
  13  18   7   75.39   44.90
  13 -18   9  160.38   29.50
  18  -9  13  153.28   31.40
   9 -13  18  151.38   25.50
 -13  18   9  107.49   39.20
  -9  13  18  142.69   46.90
  18  -9 -13  115.99   22.30
  18   9  13  116.39   40.10
   9  13  18  104.19   46.50
  13 -18  -9  100.79   26.30
  13  18   9  160.58   48.70
 -11  13  18   59.39   43.10
  18 -11  13   63.39   27.40
  13 -18  11   57.59   24.90
 -13  18  11   72.19   38.70
  11 -13  18   79.39   25.10
  11  13  18   89.29   48.70
  18  11  13  160.88   41.80
  13  18  11  100.69   49.60
 -13  13  18   32.10   39.60
 -13  18  13   26.50   35.30
  18 -13  13    4.40   27.90
  13 -13  18    9.90   24.30
  13 -18  13   47.60   27.30
  18  13  13    7.20   39.50
  13  13  18   -1.20   46.30
  13  18  13  -35.30   46.70
  13 -18  15  289.17   36.90
  15 -13  18  241.68   36.40
 -13  18  15  313.07   54.69
  18 -15  13  281.77   40.90
  18  15  13  253.17   52.89
  13  18  15  216.98   57.49
  15  13  18  248.78   57.29
  18   0  14  108.89   27.40
   0  14  18  166.48   52.39
  14 -18   0  128.09   26.60
  14  18   0  164.68   40.10
 -14  18   0  175.28   38.20
  -2  14  18  166.08   53.09
  18  -2  14  229.28   33.20
 -14  18   2  160.28   36.30
  14 -18   2  156.08   28.50
  14  18   2  155.88   40.40
   2  14  18  175.58   54.19
  14 -18  -2  110.09   27.20
  18   2  14  144.19   32.40
  -4  14  18    9.00   40.70
   4 -14  18    2.30    5.70
  14 -18   4   18.40   21.80
  18  -4  14    2.40   24.80
 -14  18   4   21.20   30.40
  14 -18  -4   53.79   25.50
  18   4  14   53.79   28.80
   4  14  18   25.50   43.30
  14  18   4   47.20   40.10
  -6  14  18  296.47   59.39
 -14  18   6  333.67   47.90
   6 -14  18  267.57   35.30
  14 -18   6  235.58   37.10
  18  -6  14  276.97   39.00
   6  14  18  443.96   65.39
  14  18   6  369.66   54.89
  14 -18  -6  371.66   44.10
  18   6  14  378.06   54.59
  -8  14  18   26.20   43.70
   8 -14  18   51.29   21.30
  18  -8  14   57.59   29.60
 -14  18   8   70.49   33.80
  14 -18   8   24.40   23.20
   8  14  18   18.80   50.29
  18   8  14   12.80   33.30
  14  18   8   13.80   40.20
  14 -18  -8   29.60   24.70
  14 -18  10   51.99   27.20
 -14  18  10   64.09   34.70
  10 -14  18   50.19   23.10
  18 -10  14   58.89   28.10
 -10  14  18   32.60   41.20
  18  10  14   44.70   39.10
  14 -18 -10   54.89   28.40
  14  18  10   13.30   42.70
  10  14  18   74.29   47.00
  14 -18  12   79.59   29.20
 -12  14  18  103.99   46.30
  12 -14  18   79.69   25.60
 -14  18  12   68.59   35.40
  18 -12  14   45.90   26.90
  12  14  18   57.29   51.29
  14  18  12   66.69   49.20
  18  12  14   70.49   43.30
  14 -18  14    5.00   26.30
 -14  14  18   14.30   39.20
  14 -14  18   32.10   26.80
 -14  18  14   39.90   37.40
  18 -14  14   14.90   29.10
  14  18  14   42.00   47.30
  18  14  14   29.00   43.40
  14  14  18   35.10   47.60
  15 -18   1  309.77   38.40
  -1  15  18  196.58   54.69
  15  18  -1  250.87   47.80
 -15  18   1  264.97   41.60
 -15  18  -1  336.47   44.50
   1  15  18  308.27   60.79
  18   1  15  345.87   44.60
  15  18   1  287.37   48.40
  15 -18  -1  313.97   43.40
  -3  15  18  355.06   64.19
 -15  18   3  561.64   59.09
  18  -3  15  528.85   56.39
  15 -18   3  547.05   54.79
  18   3  15  417.46   61.29
  15 -18  -3  500.45   55.59
  15  18   3  474.45   70.99
   3  15  18  510.15   74.29
  18  -5  15   17.80   27.20
  -5  15  18    6.50   41.30
   5 -15  18   -7.70    7.70
  15 -18   5   -5.20   26.20
   5  15  18   28.30   51.39
  15  18   5  -20.30   36.70
  18   5  15  -15.70   31.50
  15 -18  -5   -1.00   24.60
  15 -18   7   14.20   24.30
  -7  15  18   -7.30   44.90
 -15  18   7    4.90   13.70
  18  -7  15   42.90   28.00
   7 -15  18   20.00   19.30
  15 -18  -7   27.20   23.40
  15  18   7   32.80   41.50
   7  15  18   16.60   47.30
  18   7  15    7.30   33.80
   9 -15  18    9.90   21.40
 -15  18   9   -5.10   11.70
  18  -9  15   20.00   27.20
  15 -18   9   22.00   24.20
  -9  15  18   -3.20   44.10
   9  15  18   40.30   53.29
  15 -18  -9   -5.00   25.30
  15  18   9   35.10   43.70
  18   9  15  -26.00   36.50
  11 -15  18   16.50   23.20
  18 -11  15   26.20   26.20
  15 -18  11    4.50   26.80
 -15  18  11    0.00   10.70
 -11  15  18    8.80   41.90
  15  18  11   -3.20   42.90
  18  11  15   10.60   41.10
  11  15  18   35.00   53.19
  15 -18  13  220.98   36.30
 -13  15  18  327.37   56.89
  13 -15  18  316.57   38.40
  18 -13  15  276.17   40.10
  15  18  13  229.58   56.49
  18  13  15  289.47   56.59
  13  15  18  280.37   65.29
  16  18   0  195.48   42.10
   0  16  18  273.37   61.09
  18   0  16  152.58   30.90
  16 -18   0  196.88   31.50
  16 -18   2  171.68   30.10
  -2  16  18  122.79   51.29
  16  18  -2  170.48   40.70
  16  18   2   67.49   37.60
  18   2  16   45.90   32.90
   2  16  18   40.20   53.19
  16 -18  -2   86.89   28.00
  16 -18   4   63.19   25.00
  -4  16  18   79.39   47.20
  18  -4  16   53.09   25.50
  18   4  16  134.49   36.60
  16  18   4  129.09   41.60
   4  16  18   64.29   47.50
  16 -18  -4  130.59   28.30
  16 -18   6  316.97   48.90
  -6  16  18  236.28   58.09
   6 -16  18  378.86   40.90
  18   6  16  433.96   57.09
  16  18   6  432.56   59.39
  16 -18  -6  475.35   50.39
   6  16  18  423.16   70.09
  -8  16  18  141.09   50.79
  18  -8  16   63.29   28.10
   8 -16  18   97.19   24.00
  16 -18   8   71.59   27.20
  16 -18  -8   94.19   30.10
  16  18   8   94.49   43.50
   8  16  18   42.60   52.19
  18   8  16   98.39   42.60
  16 -18  10   49.30   28.30
  10 -16  18   32.00   22.90
  18 -10  16   31.90   28.10
 -10  16  18   59.09   48.50
  10  16  18   47.50   45.60
  18  10  16   45.00   42.10
  16 -18 -10   36.30   26.20
  16  18  10   63.89   43.60
  18 -12  16   47.40   30.40
 -12  16  18   16.90   43.70
  16 -18  12   67.89   29.90
  12 -16  18   57.79   26.40
  12  16  18   81.59   55.89
  16  18  12   68.99   46.90
  18  12  16   49.30   46.40
  -1  17  18  126.09   51.49
  17  18  -1  232.38   44.90
  17 -18   1  182.38   33.10
  18  -1  17  210.68   34.80
  18   1  17  239.38   43.50
  17  18   1  183.48   44.00
   1  17  18  140.09   57.09
  17 -18  -1  233.08   34.90
  18   1  17  179.78   34.40
  17  18  -3  224.58   46.50
  -3  17  18  243.88   57.19
  17 -18   3  212.78   33.30
  18  -3  17  276.57   36.80
  17 -18  -3  290.97   38.60
  18   3  17  254.87   45.90
   3  17  18  131.89   52.99
  17  18   3  208.88   46.80
   5 -17  18    8.90    6.80
  18  -5  17  -17.70   26.80
 -17  18   5  -23.30   14.30
  -5  17  18    4.10   43.50
  17 -18   5   -0.90   25.80
   5  17  18   42.80   49.00
  18   5  17   -0.40   35.40
  17 -18  -5   14.70   26.90
  17  18   5   -4.30   37.80
  -7  17  18   10.60   46.80
   7 -17  18    8.60   20.50
  17 -18   7   16.00   26.50
  18  -7  17   45.70   28.90
  18   7  17   25.30   37.70
  17 -18  -7    4.20   24.50
  17  18   7   -7.10   41.70
   7  17  18  -18.90   55.49
   9 -17  18   38.00   23.30
  18  -9  17   30.90   30.80
  -9  17  18   33.40   48.60
  17 -18   9   40.60   28.60
  17 -18  -9    5.30   27.50
  18   9  17   31.30   42.40
   9  17  18   28.90   52.09
  17  18   9   44.20   43.60
 -11  17  18   36.50   44.60
  17 -18  11   46.50   26.80
  18 -11  17   21.60   28.60
  11 -17  18   20.20   24.10
  17  18  11   15.40   41.20
  11  17  18   14.00   51.49
  18  11  17   18.40   43.90
   0  18  18  885.31  110.09
  18 -18   0  860.31   82.29
  18   0  18  865.31   82.39
  18  18   0  850.21   91.79
  -2  18  18   91.99   48.60
  18  -2  18   99.39   29.40
  18  18  -2  160.68   39.70
  18 -18   2  131.19   29.40
   2  18  18   34.60   49.30
  18   2  18  108.19   38.80
  18 -18  -2   83.59   28.30
  18  18   2   85.49   39.00
  -4  18  18  134.69   57.49
  18  -4  18   87.39   29.90
  18  18  -4   89.79   36.90
  18 -18   4  103.99   31.10
   4  18  18   92.09   55.59
  18   4  18  146.39   42.90
  18 -18  -4  170.78   32.30
  18  18   4   97.29   41.70
  -6  18  18  266.27   61.69
  18  -6  18  194.88   34.10
  18  18  -6  215.98   45.10
  18 -18   6  229.68   36.40
   6  18  18  283.87   58.99
  -8  18  18   -9.20   46.50
   8 -18  18   18.10   23.20
  18  -8  18    4.90   28.10
  18 -18   8   11.30   30.30
  18 -18  -8   76.19   28.10
   8  18  18   44.60   50.09
  18   8  18   63.89   44.40
  18  18   8   39.30   41.80
  19   1   0  564.04   53.09
  -1   0  19  501.45   71.19
   1   0  19  557.54   73.19
  19  -1   0  550.44   53.09
  19  -3   0    8.80   18.10
   3   0  19   17.30   35.80
  -3   0  19    0.60   37.50
   5   0  19  253.97   46.30
  19  -5   0  277.77   36.90
  -5   0  19  220.98   46.00
   0  19   5  270.87   53.79
   7   0  19  300.07   51.79
  -7   0  19  341.37   52.09
   0  19   7  337.77   57.29
  19  -7   0  252.27   34.20
  19  -9   0   10.20   21.10
  -9   0  19    8.60   34.30
   0  19   9   -1.00   42.80
   9   0  19   -3.90   34.30
  19 -11   0   21.30   22.90
   0  19  11   13.40   41.60
  11   0  19   -9.80   37.90
 -11   0  19   32.20   35.30
   0  19  13    6.70   46.10
  13   0  19   38.40   40.20
 -13   0  19   14.50   35.10
  19 -13   0    8.10   24.50
  19  13   0  -26.40   20.70
   0  19  15   13.30   46.50
  15   0  19   30.70   26.00
  15   0  19    5.00   36.70
  19 -15   0   30.10   24.80
  19  15   0   26.00   26.70
  19  17   0   -7.40   29.90
   0  19  17  -28.90   53.79
  17   0  19   -1.00   27.60
  17   0  19   -0.80   37.20
  19 -17   0    3.20   26.80
   0   1  19  569.14   71.09
   0  -1  19  587.54   73.09
  19   0   1  508.95   52.79
  19   0  -1  539.95   52.39
  19   2  -1  882.81   76.39
  -2   1  19  898.31   92.69
   2  -1  19  879.21   72.69
  19  -2   1  955.40   77.49
   2  -1  19  907.81   92.29
  19  -2  -1  830.52   76.49
   2   1  19  832.52   92.69
  -2  -1  19  888.21   93.59
  19   2   1  852.21   77.19
   4  -1  19  128.89   18.20
   1 -19   4  117.39   22.80
  -4   1  19   67.99   37.20
   4  -1  19  113.79   41.00
  19  -4   1  129.19   24.50
  19  -4  -1  114.99   22.40
  -4  -1  19  139.79   41.80
   4   1  19   66.19   36.20
  -6   1  19  320.47   53.19
  -1  19   6  480.65   64.39
   1 -19   6  362.96   43.60
  19  -6   1  417.26   45.50
   6  -1  19  448.06   60.59
   6   1  19  345.37   54.49
  19  -6  -1  399.86   44.70
  -6  -1  19  465.55   66.29
   1  19   6  477.95   63.69
   8  -1  19   99.19   43.10
  -1  19   8   98.89   46.10
   1 -19   8   75.69   22.10
  -8   1  19  101.39   37.60
  19  -8   1   85.89   23.50
   8   1  19   78.49   38.60
  -8  -1  19  146.49   42.10
   1  19   8   59.89   45.80
  19  -8  -1   82.19   23.70
  10  -1  19  465.95   70.49
 -10   1  19  439.26   59.89
   1 -19  10  453.95   48.70
  -1  19  10  540.55   72.49
  10  -1  19  466.65   49.40
  19 -10   1  493.85   52.39
  19 -10  -1  470.55   51.49
   1  19  10  543.05   69.99
 -10  -1  19  495.75   67.19
  10   1  19  487.15   71.79
 -12   1  19   26.60   35.40
  12  -1  19    6.70   21.60
  12  -1  19    5.00   34.90
  -1  19  12   -7.90   42.60
  19 -12   1    9.20   21.80
  12   1  19   16.90   37.10
  19  12   1   -5.70   20.60
  19 -12  -1    5.20   22.40
   1  19  12   28.10   42.20
 -12  -1  19    9.50   35.30
 -14   1  19  530.15   67.69
  14  -1  19  489.15   72.49
  14  -1  19  521.45   54.59
  19 -14   1  540.95   56.89
  19  14  -1  454.05   56.39
  -1  19  14  488.45   73.19
  14   1  19  535.75   69.09
  19 -14  -1  518.75   55.89
   1  19  14  492.75   75.49
  19  14   1  535.35   58.99
  19 -16   1  350.96   46.50
  16  -1  19  263.47   49.99
  -1  19  16  191.28   57.29
  19  16  -1  335.37   45.20
  16  -1  19  303.77   39.00
  19  16   1  318.07   45.30
  19 -16  -1  335.97   46.00
  16   1  19  328.87   53.59
  16   1  19  213.78   36.10
   1  19  16  298.77   68.19
  19 -18   1  194.48   34.10
  -1  19  18   89.69   52.09
  18  -1  19  155.88   32.90
  19  18  -1  218.58   41.00
  18   1  19  128.49   44.00
   1  19  18  125.49   60.19
  19 -18  -1  125.29   30.50
  19  18   1  122.09   38.20
  18   1  19  166.18   33.90
   1  -2  19  948.71   74.29
  19   1  -2  969.90   78.69
   2 -19   1  932.11   79.99
  19  -1   2  918.01   79.89
  -1   2  19  936.01   96.09
   1  -2  19  894.51   94.09
  19   1   2  864.21   79.59
  19  -1  -2  859.81   78.39
   1   2  19  901.61   94.19
  -1  -2  19  827.32   94.99
   2 -19   3  113.49   25.00
   3  -2  19  104.39   16.20
  19  -3   2  149.09   24.70
  19   3  -2  103.79   20.50
  -3   2  19  124.29   40.60
   3  -2  19  100.49   37.90
  19  -3  -2   92.69   21.70
  -3  -2  19  122.39   41.30
   3   2  19   59.19   36.30
   2 -19   5  247.38   34.60
  -2  19   5  269.17   49.60
  19  -5   2  229.28   29.70
   5  -2  19  227.78   27.60
  -5   2  19  199.08   43.80
   5  -2  19  197.58   46.80
  19  -5  -2  248.68   29.70
   5   2  19  191.88   43.30
  -5  -2  19  222.28   45.00
   2  19   5  182.68   45.50
  19  -7   2  408.86   44.40
  -2  19   7  310.67   53.49
   2 -19   7  427.46   41.60
   7  -2  19  412.26   55.69
  -7   2  19  418.96   53.89
   7  -2  19  350.36   38.10
   2  19   7  227.08   51.99
  19  -7  -2  278.77   41.90
   7   2  19  339.07   56.89
  -7  -2  19  363.36   53.29
  -9   2  19    7.50   37.30
  -2  19   9   23.50   38.70
  19  -9   2   -7.80   21.60
   2 -19   9    0.70   20.20
   9  -2  19   -5.30   38.50
   9  -2  19    8.20   18.10
  -9  -2  19    8.20   35.30
   9   2  19   26.90   35.30
   2  19   9   30.90   42.70
  19  -9  -2   26.20   20.80
  19 -11   2  496.65   53.69
  11  -2  19  439.26   50.19
 -11   2  19  470.55   69.89
  -2  19  11  394.96   66.49
  11  -2  19  372.76   58.29
   2 -19  11  464.15   49.50
  11   2  19  544.65   72.99
  19  11   2  513.85   62.89
   2  19  11  594.84   82.19
 -11  -2  19  568.74   69.99
  19 -11  -2  570.04   52.09
 -13   2  19  336.97   48.50
  -2  19  13  274.37   60.19
  13  -2  19  236.78   48.10
  13  -2  19  349.57   40.80
  19  13  -2  303.97   40.10
  19 -13   2  305.77   43.20
   2 -19  13  295.37   37.50
   2  19  13  168.28   53.19
  19 -13  -2  261.57   35.20
  19  13   2  264.57   38.50
  13   2  19  277.77   54.09
  15  -2  19   -6.70   38.40
  19 -15   2   34.40   27.70
  19  15  -2   19.70   25.10
  -2  19  15   12.20   47.70
  15  -2  19   21.60   26.20
  19 -15  -2   14.20   23.60
  19  15   2   47.10   28.60
   2  19  15   -1.10   46.80
  15   2  19   27.10   37.30
  19 -17   2  383.56   51.79
  -2  19  17  292.37   62.89
  17  -2  19  380.56   50.79
  19  17  -2  369.96   56.29
  19  17   2  414.16   60.29
  19 -17  -2  441.96   52.49
  17   2  19  448.56   61.09
   2  19  17  336.17   71.19
   0  -3  19    1.10   35.20
  19   0  -3   22.70   17.20
  19   0   3   20.80   19.40
   0   3  19   -3.10   34.70
   3 -19   0    6.40   21.00
   3 -19   2  142.89   25.50
  19   2  -3  110.49   20.70
  -2   3  19   94.09   37.60
  19  -2   3  105.29   24.50
   2  -3  19   99.59   40.70
   2  -3  19  127.99   15.30
   2   3  19   99.09   42.10
  19  -2  -3  103.39   20.80
  -2  -3  19  139.39   42.60
   3 -19   4  765.02   63.79
   4  -3  19  795.02   81.59
  -4   3  19  793.72   80.89
  19  -4   3  704.73   64.19
  19   4  -3  718.63   61.39
   4  -3  19  705.53   58.89
  19  -4  -3  586.34   62.19
  -4  -3  19  513.85   79.29
   4   3  19  534.65   78.69
   3 -19   6 1249.57   99.99
  -6   3  19 1245.18  114.39
  -3  19   6 1252.97  117.39
   6  -3  19 1194.48  114.99
   6  -3  19 1178.78   97.39
  19  -6   3 1242.48  100.79
   6   3  19 1088.09  113.49
  -6  -3  19 1056.59  112.59
  19  -6  -3 1058.19   99.19
   3  19   6 1222.38  117.89
  -8   3  19  504.55   66.09
   8  -3  19  357.96   56.39
  -3  19   8  477.15   63.19
   3 -19   8  390.56   43.90
   8  -3  19  378.26   41.60
  19  -8   3  389.56   47.10
   3  19   8  348.77   57.19
   8   3  19  370.16   55.89
  19  -8  -3  377.06   43.90
  -8  -3  19  434.46   56.79
  -3  19  10  321.77   56.59
  19 -10   3  251.57   33.40
  10  -3  19  207.88   44.80
  10  -3  19  195.88   28.80
   3 -19  10  225.48   29.60
 -10   3  19  266.67   49.70
  10   3  19  216.28   44.90
 -10  -3  19  260.17   46.40
  19 -10  -3  290.57   37.50
   3  19  10  202.28   49.30
   3 -19  12  267.67   37.30
 -12   3  19  241.98   47.10
  12  -3  19  249.38   48.20
  12  -3  19  244.98   33.20
  19 -12   3  262.37   35.50
  -3  19  12  205.78   52.39
  19 -12  -3  296.27   40.30
  12   3  19  300.57   51.29
   3  19  12  414.36   65.79
  19  12   3  305.17   39.70
  14  -3  19   46.40   23.70
  19 -14   3   97.99   28.20
  -3  19  14   72.69   48.90
 -14   3  19   62.09   34.40
   3 -19  14   84.29   21.50
  19  14  -3   45.10   23.90
  14  -3  19   79.39   41.60
  14   3  19   32.10   42.60
  19 -14  -3   96.09   27.80
   3  19  14   46.20   48.20
  19  14   3   54.39   28.40
  -3  19  16   55.99   48.10
  16  -3  19   96.19   27.30
  19  16  -3  155.28   34.30
  19 -16   3  163.38   31.20
  19 -16  -3  151.48   32.10
   3  19  16  106.09   52.29
  16   3  19  160.28   46.50
  19  16   3  145.59   37.30
  19  18  -3   17.70   32.60
  -3  19  18   44.80   51.19
  18  -3  19   46.70   30.00
  19 -18   3   52.39   28.00
  18   3  19   39.50   39.70
  19 -18  -3   46.20   29.30
  19  18   3   20.70   35.40
   3  19  18   33.00   49.70
  19  -1   4  119.19   25.00
   1  -4  19   89.79   38.40
   4 -19   1   99.09   23.70
  -1   4  19  103.49   38.10
  19   1  -4  131.49   21.00
   1   4  19  136.19   42.20
  19   1   4  127.89   24.20
  19  -1  -4  116.99   20.30
   4 -19  -1   91.49   23.40
  -1  -4  19   89.29   39.90
  -3   4  19  730.43   82.39
   3  -4  19  703.93   57.19
   4 -19   3  727.13   62.99
  19  -3   4  788.82   64.29
  19   3  -4  681.63   60.19
   3  -4  19  736.93   81.49
  19  -3  -4  557.24   60.59
   3   4  19  512.75   80.39
  -3  -4  19  550.14   78.99
  -4  19   5  145.39   41.60
  -5   4  19  138.89   40.00
  19  -5   4  108.29   24.70
   4 -19   5  124.79   24.00
   5  -4  19  166.38   20.30
  19   5  -4  174.58   22.80
   5  -4  19  204.28   46.20
  19  -5  -4  142.79   24.20
   4  19   5   73.19   40.70
  -5  -4  19  145.09   40.40
   5   4  19  142.49   41.40
  -4  19   7 1022.40  104.99
  19  -7   4 1081.99   89.49
   4 -19   7 1058.89   87.49
   7  -4  19  963.10  102.69
   7  -4  19 1005.10   85.39
  -7   4  19  992.00  103.49
  -7  -4  19  934.51  102.19
   4  19   7  994.30  104.69
   7   4  19  986.70  103.29
  19  -7  -4  994.10   86.89
  19  -9   4  512.15   57.39
  -9   4  19  560.74   73.79
   9  -4  19  521.85   52.79
  -4  19   9  595.34   78.19
   4 -19   9  528.75   54.19
   9  -4  19  540.85   74.09
   4  19   9  572.54   80.79
  19  -9  -4  586.34   54.79
   9   4  19  593.34   75.99
  -4  19  11   39.50   41.00
  11  -4  19   69.29   40.10
  11  -4  19   33.30   20.40
 -11   4  19   34.10   36.70
  19 -11   4   38.50   23.90
   4 -19  11   51.49   21.40
   4  19  11   38.60   46.00
  19 -11  -4   23.10   20.80
  11   4  19   74.59   45.10
  19  11   4   30.10   20.40
 -13   4  19  119.39   40.40
  19 -13   4  117.49   27.80
  -4  19  13   99.29   48.00
   4 -19  13  127.79   24.10
  13  -4  19  164.28   27.80
   4  19  13  124.79   54.29
  13   4  19  103.49   44.80
  19 -13  -4  138.79   26.90
  19  13   4  141.39   30.30
  19 -15   4   19.20   26.20
  19  15  -4   11.60   23.40
  15  -4  19   11.80   23.60
  -4  19  15   27.90   47.00
   4 -19  15    7.20   19.90
  19  15   4   15.70   29.60
  19 -15  -4    9.30   23.50
  15   4  19   -7.40   38.20
   4  19  15  -16.20   46.70
  19  17  -4   80.49   32.80
  17  -4  19  107.99   29.60
  19 -17   4   83.19   31.80
  -4  19  17  112.69   58.49
   4  19  17   25.70   49.80
  19 -17  -4  134.19   30.20
  17   4  19   81.19   42.60
  19  17   4   91.99   37.50
   0  -5  19  262.17   47.00
   0   5  19  321.57   51.99
   5 -19   0  237.08   33.80
  19   0  -5  276.67   33.20
  19   0   5  312.47   39.00
  19   2  -5  268.77   31.00
   5 -19   2  256.57   32.60
  19  -2   5  183.18   30.30
  -2   5  19  338.07   51.59
   2  -5  19  265.97   48.40
  -2  -5  19  211.78   48.00
  19  -2  -5  246.98   31.90
   2   5  19  231.38   46.10
   5 -19  -2  234.98   31.70
  19   4  -5  187.68   22.30
  -5  19   4  197.98   47.10
   5 -19   4  100.29   23.60
  -4   5  19  182.58   45.70
  19  -4   5  137.19   25.90
   4  -5  19  165.28   19.30
   4  -5  19  151.18   40.80
  -4  -5  19  115.29   43.10
   5  19   4  117.89   41.70
   4   5  19  124.09   44.40
   5 -19  -4  132.29   27.40
  19  -4  -5  115.59   22.40
  -5  19   6  346.07   53.09
  19  -6   5  396.76   43.90
  -6   5  19  365.06   52.89
   6  -5  19  326.17   52.19
   6  -5  19  359.76   35.60
  19   6  -5  367.76   36.20
   5 -19   6  379.06   41.10
  19  -6  -5  271.37   38.30
   6   5  19  205.18   48.60
  -6  -5  19  303.17   52.19
   5  19   6  260.87   51.59
   8  -5  19 1167.48  116.29
   8  -5  19 1242.18   99.89
   5 -19   8 1219.18  101.29
  19  -8   5 1241.38  103.29
  -5  19   8 1187.78  118.09
  -8   5  19 1240.18  117.39
   8   5  19 1132.49  116.69
  19  -8  -5 1144.29  100.69
   5  19   8 1093.19  119.79
  19 -10   5  889.91   78.29
  10  -5  19  832.62   74.79
  -5  19  10  901.41   98.19
 -10   5  19  909.21   93.29
   5 -19  10  924.51   76.19
  10  -5  19  860.91   94.39
  10   5  19  792.32   93.99
   5  19  10  857.21  100.09
  19 -10  -5  827.72   75.99
  19  10   5  747.23   75.59
  19 -12   5  231.88   36.10
  12  -5  19  323.37   39.30
 -12   5  19  241.78   48.90
   5 -19  12  265.47   38.60
  -5  19  12  224.78   51.99
  19  12   5  307.47   42.20
   5  19  12  326.97   61.59
  19 -12  -5  294.27   41.30
  12   5  19  343.17   57.09
  -5  19  14  174.98   55.99
  19 -14   5  179.08   31.00
   5 -19  14  203.58   28.20
 -14   5  19  216.08   42.00
  14  -5  19  127.19   27.20
  19  14  -5  162.48   35.40
  19 -14  -5  162.08   28.50
  19  14   5  125.99   34.10
   5  19  14  151.48   50.49
  14   5  19  168.28   46.50
  -5  19  16  247.58   56.29
  19  16  -5  317.97   41.20
  19 -16   5  180.58   33.40
   5 -19  16  281.27   37.00
  16  -5  19  245.58   34.10
  19  16   5  191.48   42.90
  16   5  19  197.68   49.70
  19 -16  -5  267.97   37.50
   5  19  16  137.19   54.79
  19 -18   5  125.29   32.10
  19  18  -5  144.49   37.70
  18  -5  19   80.19   28.60
  -5  19  18   96.49   48.40
  19 -18  -5  107.79   29.40
  19  18   5  115.09   40.00
   5  19  18   45.40   52.19
  18   5  19  156.88   45.20
  -1   6  19  313.67   52.39
  19  -1   6  390.56   44.70
  19   1  -6  331.57   37.60
   1  -6  19  336.37   54.29
   6 -19   1  364.46   43.40
   6 -19  -1  385.86   43.50
  -1  -6  19  422.66   57.49
   1   6  19  329.57   53.99
  19  -1  -6  391.86   38.30
  19  -3   6 1232.08  101.59
  19   3  -6 1217.48   97.39
   3  -6  19 1248.28   95.69
  -3   6  19 1285.07  115.29
   3  -6  19 1219.18  116.29
   6 -19   3 1261.37  100.49
  -3  -6  19 1054.29  113.99
  19  -3  -6 1088.79   97.89
   3   6  19 1065.99  114.49
   6 -19  -3 1043.60   99.99
   6 -19   5  385.26   41.90
   5  -6  19  465.35   60.49
  19  -5   6  388.96   43.10
  -5   6  19  448.56   57.29
  -6  19   5  321.57   51.79
  19   5  -6  342.57   35.80
   5  -6  19  367.56   35.30
   6  19   5  275.77   51.89
   6 -19  -5  277.37   43.20
   5   6  19  223.58   50.99
  19  -5  -6  296.27   37.90
  -6  19   7  811.72   91.39
  -7   6  19  862.81   92.09
   7  -6  19  780.62   91.69
  19  -7   6  791.72   75.19
  19   7  -6  760.32   69.69
   6 -19   7  770.92   73.69
   7  -6  19  775.92   70.79
   7   6  19  857.21   91.59
  19  -7  -6  935.51   72.69
   6  19   7  935.81   94.59
  19  -9   6 1422.96  123.19
  -9   6  19 1438.26  135.79
   6 -19   9 1370.16  121.09
  -6  19   9 1389.56  136.69
   9  -6  19 1333.07  119.99
  19   9   6 1507.35  121.89
  19  -9  -6 1535.75  121.09
   6  19   9 1556.74  139.99
   9   6  19 1597.44  137.49
  11  -6  19  285.27   39.50
  -6  19  11  272.37   53.89
  19 -11   6  312.77   38.70
 -11   6  19  387.96   54.79
   6 -19  11  318.67   39.80
  11   6  19  336.47   58.29
  19  11   6  261.07   37.80
  19 -11  -6  295.67   40.70
   6  19  11  235.38   53.39
  -6  19  13   -3.80   40.70
   6 -19  13    6.80   22.30
 -13   6  19   32.70   38.00
  19 -13   6   10.70   26.30
  13  -6  19   18.60   23.60
  13   6  19    5.90   41.80
  19  13   6   26.30   26.20
   6  19  13   38.00   44.40
  19 -13  -6    7.50   23.90
   6 -19  15   44.50   22.30
  19  15  -6   41.60   25.50
  15  -6  19   44.60   25.70
  19 -15   6   42.10   27.20
  -6  19  15   31.30   48.60
 -15   6  19   14.90   16.30
  19  15   6   29.80   32.70
   6  19  15   73.29   52.99
  15   6  19    1.80   40.60
  19 -15  -6   56.89   26.00
   6 -19  17   36.80   21.10
  17  -6  19    4.80   27.00
  19 -17   6   16.70   30.60
  -6  19  17   -7.90   49.60
  19  17  -6   49.50   30.20
   6  19  17   33.80   51.59
  17   6  19   18.90   44.20
  19  17   6  -15.80   34.40
  19 -17  -6   27.30   26.20
   0   7  19  276.87   52.39
   7 -19   0  325.07   40.60
  19   0  -7  309.07   34.10
  19   0   7  312.07   42.30
  -2   7  19  431.66   56.79
  19  -2   7  396.16   45.00
   7 -19   2  359.36   43.10
  19   2  -7  399.86   36.50
   2  -7  19  417.16   57.09
   2   7  19  322.57   57.09
   7 -19  -2  266.27   42.80
  19  -2  -7  289.57   37.00
   7 -19   4  980.40   86.59
  -7  19   4 1049.89  102.99
  19  -4   7 1045.70   88.39
  19   4  -7 1004.20   82.79
  -4   7  19 1022.70  103.69
   4  -7  19  969.10   82.19
  19  -4  -7  976.60   84.09
   7 -19  -4  972.40   86.89
   7  19   4 1079.29  105.69
   4   7  19  892.31  101.29
  -6   7  19  810.92   93.59
  19   6  -7  808.62   72.99
  19  -6   7  818.52   78.79
   7 -19   6  829.52   77.19
   6  -7  19  789.22   73.59
  -7  19   6  806.52   93.59
  19  -6  -7  961.70   75.29
   7 -19  -6  983.00   78.49
   7  19   6  937.21   96.39
   6   7  19  970.20   96.09
   7 -19   8  846.42   71.79
  -7  19   8  744.53   90.39
   8  -7  19  827.02   69.19
  19   8  -7  793.52   66.29
  19  -8   7  769.62   73.29
  -8   7  19  840.42   90.89
   7  19   8  705.63   91.59
  19   8   7  701.23   71.99
   8   7  19  711.73   90.19
  19  -8  -7  752.32   69.69
  10  -7  19  980.30   85.99
  19  10  -7  918.31   82.39
   7 -19  10  979.60   86.99
  19 -10   7 1010.20   89.69
 -10   7  19 1014.00  102.89
  -7  19  10  967.70  105.69
  10   7  19  967.50  105.39
   7  19  10 1093.19  109.99
  19  10   7  982.10   88.69
  19 -10  -7 1055.39   86.69
 -12   7  19  290.67   50.49
  19 -12   7  297.37   39.30
   7 -19  12  271.67   35.20
  12  -7  19  226.98   33.70
  -7  19  12  300.37   59.29
  19  12   7  319.67   47.50
  12   7  19  343.47   56.69
  19 -12  -7  349.27   42.60
   7  19  12  399.06   66.39
  19 -14   7   -1.90   28.10
   7 -19  14    4.90   22.70
  14  -7  19   15.00   22.70
  -7  19  14  -19.40   40.30
 -14   7  19   -8.10   35.60
   7  19  14   16.90   49.80
  19  14   7  -17.10   29.10
  19 -14  -7   16.70   25.40
  14   7  19   36.20   43.60
  19  16  -7    6.10   29.30
  16  -7  19   -6.30   27.00
 -16   7  19   24.60   10.60
   7 -19  16   -2.80   22.00
  19 -16   7  -19.80   28.30
  -7  19  16  -30.90   49.99
  19 -16  -7   -6.80   27.30
  19  16   7   29.00   34.80
  16   7  19   13.70   43.00
   7  19  16   -4.10   54.79
  -7  19  18  212.48   60.29
  18  -7  19  130.29   31.80
  19  18  -7  235.68   46.10
  19 -18   7  145.79   32.80
   7  19  18  192.18   65.09
  19  18   7   94.59   42.20
  19 -18  -7  150.68   33.20
  18   7  19  127.79   48.20
   8 -19   1   32.70   21.30
  19   1  -8   78.79   16.40
  19  -1   8   67.49   26.80
  -1   8  19   98.99   45.20
   8 -19  -1   82.79   24.40
  19  -1  -8   87.09   16.90
   1   8  19   42.00   39.00
  19   3  -8  404.16   37.80
  19  -3   8  427.16   47.80
  -3   8  19  380.06   56.29
  -8  19   3  497.65   62.09
   8 -19   3  382.56   45.20
   8 -19  -3  368.86   46.10
  19  -3  -8  371.86   39.90
   8  19   3  390.06   58.79
   3   8  19  371.06   57.09
   8 -19   5 1197.88  100.49
   5  -8  19 1236.28   96.59
  -8  19   5 1196.28  114.59
  19   5  -8 1222.38   96.09
  -5   8  19 1190.68  115.29
  19  -5   8 1303.87  102.19
  19  -5  -8 1113.79   97.69
   5   8  19 1053.09  115.49
   8 -19  -5 1050.69  100.39
   8  19   5 1061.69  115.19
   8 -19   7  759.72   70.19
  19  -7   8  765.22   71.99
   7  -8  19  791.52   66.99
  -8  19   7  765.22   87.89
  -7   8  19  792.22   88.19
  19   7  -8  844.52   68.69
  19   7   8  687.83   70.69
   8  19   7  679.73   90.29
   7   8  19  736.83   90.49
  19  -7  -8  718.03   67.69
  -8  19   9  311.97   52.19
  -9   8  19  334.67   54.69
   8 -19   9  313.37   34.60
   9  -8  19  275.27   34.60
  19  -9   8  211.68   33.10
   8  19   9  178.38   48.90
   9   8  19  125.99   45.60
  19   9   8  187.58   32.00
  19  -9  -8  215.68   30.70
   8 -19  11   98.59   26.60
  19 -11   8   91.09   27.70
  11  -8  19  115.69   24.40
  -8  19  11   97.49   44.60
 -11   8  19   74.99   42.30
  19 -11  -8  104.29   25.10
  11   8  19   47.70   43.40
  19  11   8   75.79   28.10
   8  19  11   63.39   45.20
 -13   8  19  298.47   51.29
  -8  19  13  163.18   47.10
   8 -19  13  254.77   33.30
  13  -8  19  211.58   32.40
  19 -13   8  243.38   36.80
  19  13   8  181.38   38.90
  19 -13  -8  255.67   34.30
   8  19  13  201.58   58.39
  13   8  19  199.58   54.19
  15  -8  19   87.89   28.50
  19 -15   8  135.99   31.80
   8 -19  15  127.89   27.20
  -8  19  15  153.28   53.49
  15   8  19  206.68   52.69
  19 -15  -8  179.68   31.40
  19  15   8  113.49   37.80
   8  19  15  104.69   56.79
  17  -8  19  118.39   31.20
  19 -17   8  113.79   32.20
   8 -19  17  132.19   27.90
  -8  19  17  133.39   53.69
  19 -17  -8  234.38   34.40
  17   8  19  235.28   52.79
   8  19  17   80.49   52.09
  19  17   8  173.48   42.80
  19   0   9    8.30   22.50
   9 -19   0   19.50   22.10
  19   0  -9    6.20   13.20
   0   9  19   30.60   39.00
   9 -19   2   11.80   23.10
  19   2  -9   15.30   12.70
  19  -2   9  -12.40   23.10
  -2   9  19   25.80   39.80
  19  -2  -9   17.00   14.80
   2   9  19    8.10   41.30
   9 -19  -2   41.30   23.60
  -4   9  19  554.94   79.29
  19  -4   9  558.24   58.59
  -9  19   4  541.95   73.39
   9 -19   4  499.25   56.09
   4   9  19  532.35   76.89
  19  -4  -9  602.64   52.09
   9 -19  -4  585.34   56.69
   9  19   4  606.44   76.99
   9 -19   6 1358.86  120.99
   6  -9  19 1317.37  117.99
  -6   9  19 1336.77  135.79
  -9  19   6 1451.75  133.59
  19  -6   9 1383.46  122.49
  19   6   9 1485.65  121.19
  19  -6  -9 1516.35  119.09
   6   9  19 1549.54  138.39
   9  19   6 1533.75  136.69
   9 -19  -6 1568.94  121.69
   9 -19   8  276.57   37.70
  19  -8   9  219.28   32.30
  -8   9  19  301.57   53.19
  -9  19   8  207.58   46.00
   8  -9  19  268.97   33.80
   9  19   8  233.68   51.99
  19   8   9  199.48   32.00
   8   9  19  188.68   53.19
  19  -8  -9  211.48   28.90
  -9  19  10  354.96   58.59
  10  -9  19  382.26   45.40
   9 -19  10  412.96   47.20
 -10   9  19  397.96   61.59
  19 -10   9  409.36   50.59
  19 -10  -9  414.06   45.20
  19  10   9  456.35   51.99
   9  19  10  298.57   57.79
  10   9  19  450.85   61.99
  19 -12   9  290.77   38.40
 -12   9  19  268.17   51.69
  -9  19  12  208.08   48.50
   9 -19  12  301.97   35.60
  12  -9  19  279.27   40.00
  19 -12  -9  280.97   40.70
  12   9  19  268.37   54.89
   9  19  12  212.98   53.89
  19  12   9  286.37   43.10
 -14   9  19   67.99   38.30
  14  -9  19   29.60   24.20
   9 -19  14   30.80   23.40
  -9  19  14   40.90   46.60
  19 -14   9   35.10   29.20
  19 -14  -9   38.00   24.70
  14   9  19   48.80   47.60
   9  19  14   37.90   47.70
  19  14   9   50.29   35.40
  -9  19  16   14.00   40.90
  19 -16   9   47.60   29.90
  16  -9  19   27.20   26.70
   9 -19  16   29.00   24.70
   9  19  16   41.50   49.30
  19 -16  -9   49.90   28.60
  16   9  19   18.90   42.60
  19  16   9   30.00   35.70
  -1  10  19  356.46   60.69
  10 -19   1  501.25   51.79
  19  -1  10  472.55   53.19
  19  -1 -10  496.45   43.70
   1  10  19  525.45   75.79
  10 -19  -1  476.85   51.19
 -10  19   3  258.27   47.60
  19  -3  10  230.88   33.00
  10 -19   3  264.17   33.90
  -3  10  19  243.98   52.09
  10  19   3  213.48   45.60
  19  -3 -10  253.37   29.20
   3  10  19  250.47   52.99
  10 -19  -3  204.58   30.70
  19  -5  10  881.31   79.79
  -5  10  19  882.81   98.69
  10 -19   5  863.81   78.09
 -10  19   5  917.11   92.69
   5 -10  19  938.81   72.99
   5  10  19  884.41   99.19
  10 -19  -5  801.42   78.29
  19  -5 -10  884.31   74.39
  19   5  10  759.72   76.29
  10  19   5  876.01   96.79
  -7  10  19 1011.40  106.79
   7 -10  19  928.81   84.59
 -10  19   7  979.40  102.79
  19  -7  10  922.01   89.19
  10 -19   7  999.80   88.49
  10 -19  -7 1043.50   88.89
   7  10  19 1063.59  108.19
  19  -7 -10 1044.70   85.39
  10  19   7  999.00  105.49
  19   7  10 1048.80   90.09
  -9  10  19  484.45   66.99
 -10  19   9  460.25   63.09
  19  -9  10  418.66   54.29
   9 -10  19  422.76   46.50
  10 -19   9  403.46   49.90
   9  10  19  559.34   72.79
  19   9  10  451.95   53.59
  10  19   9  348.67   59.39
  19  -9 -10  466.75   47.20
  19 -11  10  446.26   53.09
 -11  10  19  517.65   65.39
 -10  19  11  420.76   61.39
  10 -19  11  490.05   49.30
  11 -10  19  391.46   47.00
  11  10  19  373.96   64.49
  10  19  11  341.57   63.69
  19 -11 -10  394.76   46.00
  19  11  10  321.97   49.80
  10 -19  13  169.28   29.70
  19 -13  10  170.58   33.70
 -13  10  19  130.19   44.60
 -10  19  13   90.29   44.10
  13 -10  19  147.69   28.30
  13  10  19   78.79   49.10
  19  13  10   89.29   36.00
  10  19  13   43.50   51.09
  19 -13 -10   92.79   26.20
 -10  19  15  167.48   52.89
  10 -19  15  165.38   29.20
  15 -10  19  162.38   30.60
  19 -15  10  203.48   35.20
  10  19  15   79.99   50.19
  19 -15 -10  131.69   29.60
  15  10  19  105.49   50.99
  19  15  10  132.59   42.50
  19   0  11   23.50   24.10
  11 -19   0   11.60   24.10
   0  11  19   57.29   43.30
 -11  19   2  480.65   63.29
  19  -2  11  491.75   55.39
  11 -19   2  473.85   53.59
  -2  11  19  483.55   69.39
  11  19   2  524.65   73.69
   2  11  19  542.45   79.09
  11 -19  -2  517.85   53.29
  19  -4  11   34.90   26.30
  11 -19   4   38.10   22.90
  -4  11  19   65.79   43.50
 -11  19   4   15.10   31.90
  19  -4 -11   47.10   15.90
   4  11  19   35.00   41.40
  11  19   4   33.40   37.20
  19   4  11   42.30   20.20
  11 -19  -4   36.80   23.70
  -6  11  19  288.07   53.79
   6 -11  19  286.37   33.50
  11 -19   6  282.87   41.50
  19  -6  11  319.27   39.80
 -11  19   6  333.17   52.59
  11  19   6  260.07   51.09
  11 -19  -6  263.37   35.80
  19   6  11  303.47   41.50
  19  -6 -11  260.97   34.00
   6  11  19  330.27   58.59
  -8  11  19  154.98   47.00
 -11  19   8   90.99   40.30
  19  -8  11   90.99   30.10
  11 -19   8   92.99   27.00
   8 -11  19  109.09   22.40
  19  -8 -11  112.19   21.90
  11 -19  -8  119.29   28.50
  19   8  11   84.09   28.80
   8  11  19   66.69   48.30
  11  19   8   69.49   47.80
 -10  11  19  421.56   61.89
  11 -19  10  444.06   48.20
  19 -10  11  422.06   51.99
  10 -11  19  386.46   44.30
 -11  19  10  352.56   55.39
  19 -10 -11  366.96   43.70
  10  11  19  273.87   58.89
  11  19  10  449.95   69.09
  19  10  11  357.76   54.39
  11 -19  12   35.80   26.30
  19 -12  11    4.20   26.30
  12 -11  19   39.10   23.70
 -12  11  19   16.40   43.40
 -11  19  12   42.50   42.00
  12  11  19   65.69   49.99
  19 -12 -11   43.80   23.60
  19  12  11   49.70   34.80
  11  19  12   78.29   53.49
  11 -19  14   55.69   27.80
  19 -14  11   10.40   27.00
  14 -11  19   36.30   25.10
 -11  19  14   31.10   41.60
 -14  11  19   25.00   39.80
  19  14  11   11.10   36.00
  14  11  19    5.60   45.00
  19 -14 -11   49.80   25.90
  11  19  14   72.09   54.19
  -1  12  19  -39.60   42.10
 -12  19   1   -5.70   32.30
  12 -19   1   22.50   24.70
  19  -1  12   10.00   24.20
  12 -19  -1   11.60   21.40
   1  12  19  -11.60   41.00
  12  19   1    6.90   40.40
  12 -19   3  284.67   41.60
  -3  12  19  319.67   59.39
 -12  19   3  256.17   47.50
  19  -3  12  268.17   37.60
  12  19   3  365.96   55.69
  12 -19  -3  299.37   41.00
  19   3  12  274.87   38.80
   3  12  19  250.57   52.89
  19  -5  12  198.08   34.00
  12 -19   5  294.07   36.40
 -12  19   5  218.88   44.20
  -5  12  19  285.47   56.19
  12 -19  -5  221.78   32.30
   5  12  19  222.28   51.79
  19   5  12  259.87   35.70
  12  19   5  245.58   48.10
  19  -5 -12  264.47   32.70
  12 -19   7  294.67   43.30
  -7  12  19  329.77   60.29
  19  -7  12  250.97   37.70
 -12  19   7  328.77   53.29
   7 -12  19  250.87   35.20
  19  -7 -12  333.97   35.20
   7  12  19  423.46   66.19
  19   7  12  320.47   47.40
  12  19   7  225.78   49.99
  12 -19  -7  298.37   43.50
  19  -9  12  303.07   39.50
  -9  12  19  348.77   58.89
   9 -12  19  268.57   37.30
 -12  19   9  281.57   49.99
  12 -19   9  237.98   34.20
   9  12  19  213.18   54.29
  12  19   9  252.67   52.49
  19  -9 -12  278.47   36.30
  19   9  12  282.67   42.30
 -11  12  19   52.69   43.80
  12 -19  11   33.30   24.10
  19 -11  12   72.39   30.00
  11 -12  19   33.60   23.60
 -12  19  11   50.29   40.60
  12  19  11   31.60   44.40
  19 -11 -12   56.09   22.50
  11  12  19   55.49   45.50
  19  11  12   21.70   33.50
  19 -13  12  104.79   33.10
  13 -12  19   96.49   27.90
  12 -19  13   94.59   30.30
 -13  12  19  134.49   45.00
 -12  19  13   72.89   43.30
  19 -13 -12   83.19   26.00
  12  19  13   56.19   48.10
  19  13  12   54.79   39.30
  13  12  19   43.20   47.00
  19 -15  12   46.50   31.00
 -15  12  19   25.50   15.00
 -12  19  15   71.29   42.80
  12 -19  15   40.40   26.00
  15 -12  19   45.60   27.20
  15  12  19   16.90   47.20
  19  15  12   17.80   37.20
  12  19  15    8.20   51.19
   0  13  19   -4.40   48.80
  13  19   0    5.20   38.20
  13 -19   0   15.80   22.30
  19   0  13    8.30   24.20
  13 -19   2  288.17   40.00
  -2  13  19  281.17   57.89
 -13  19   2  345.87   48.60
  19  -2  13  320.47   44.00
  13 -19  -2  184.18   32.50
  19   2  13  246.88   35.00
  13  19   2  213.68   48.50
   2  13  19  230.28   56.09
  13 -19   4  172.68   30.30
  -4  13  19   85.99   44.50
 -13  19   4  102.89   38.30
  19  -4  13   89.19   27.00
  13 -19  -4  160.08   29.20
  13  19   4  110.39   41.30
   4  13  19  113.79   47.80
  19   4  13  106.19   28.60
 -13  19   6   -6.70   35.50
  13 -19   6   12.80   25.90
  -6  13  19   37.10   45.80
  19  -6  13   16.30   23.70
  19   6  13   28.30   26.70
  13  19   6  -17.20   36.30
   6  13  19   26.60   44.40
  13 -19  -6   28.20   25.70
 -13  19   8  201.48   44.40
  19  -8  13  166.78   32.50
  -8  13  19  248.98   56.09
  13 -19   8  249.28   33.50
   8 -13  19  247.88   28.60
  19  -8 -13  215.18   26.20
  13  19   8  142.39   45.30
  13 -19  -8  136.79   29.80
  19   8  13  175.48   38.80
   8  13  19  150.78   50.79
  13 -19  10  111.79   28.20
  19 -10  13   75.49   28.30
 -13  19  10  129.49   41.20
 -10  13  19  113.29   46.90
  10 -13  19  150.78   26.10
  13  19  10   59.19   44.70
  19  10  13  110.89   39.00
  10  13  19   95.29   50.39
  19 -10 -13  102.79   22.60
 -12  13  19  139.39   48.60
  12 -13  19   87.09   26.10
  13 -19  12   73.59   25.70
 -13  19  12   90.69   40.20
  19 -12  13   73.79   28.90
  13  19  12   91.29   50.59
  19  12  13   36.30   38.30
  12  13  19   30.70   50.39
  13 -19  14  140.59   29.50
  19 -14  13  126.89   33.10
  14 -13  19  128.69   29.70
 -14  13  19  201.48   47.00
 -13  19  14  132.59   44.30
  14  13  19  167.38   57.69
  19  14  13  125.29   45.20
  13  19  14  126.59   56.49
  19  -1  14  521.55   55.89
  14 -19   1  496.85   54.19
 -14  19   1  453.05   64.89
  -1  14  19  599.04   86.49
  14  19  -1  506.55   66.19
  14 -19  -1  524.95   55.19
   1  14  19  348.57   65.29
  14  19   1  460.05   62.79
 -14  19   3   89.09   35.70
  -3  14  19   69.39   49.00
  19  -3  14   75.29   29.00
  14 -19   3   61.29   26.30
   3  14  19   55.29   48.80
  14 -19  -3   37.60   23.60
  19   3  14   74.79   27.10
  14  19   3   80.69   39.60
  19  -5  14  118.19   28.40
 -14  19   5  155.38   40.40
  14 -19   5  188.38   33.10
  -5  14  19  188.78   55.19
  14 -19  -5  148.79   29.00
  19   5  14  145.79   33.60
   5  14  19  150.68   51.29
  14  19   5  141.89   43.90
  19  -7  14   15.60   24.00
  -7  14  19   11.70   47.00
  14 -19   7   11.20   23.00
 -14  19   7   14.80   33.90
  14  19   7    1.20   38.20
  19   7  14   30.90   30.60
   7  14  19   43.20   50.39
  14 -19  -7    8.10   25.10
  -9  14  19   16.20   45.10
 -14  19   9   29.20   34.30
   9 -14  19   45.50   21.90
  14 -19   9   40.80   25.20
  19  -9  14   24.60   26.50
  14  19   9   27.60   42.70
  14 -19  -9   22.20   26.00
   9  14  19   29.40   45.90
  19   9  14   47.60   34.40
  19 -11  14   35.60   26.80
 -14  19  11   37.30   36.10
 -11  14  19   -3.30   43.00
  11 -14  19   34.80   23.80
  14 -19  11   33.60   24.90
  11  14  19   21.40   45.10
  19  11  14   -1.60   36.20
  14  19  11   28.70   45.50
  13 -14  19  171.18   31.00
  14 -19  13  242.48   35.90
 -13  14  19  216.58   51.09
 -14  19  13  210.18   45.10
  19 -13  14  109.19   32.30
  14  19  13  177.18   59.19
  13  14  19  106.19   52.49
  19  13  14  162.68   45.90
  15  19   0   10.90   36.90
  15 -19   0   33.80   27.50
  19   0  15   27.40   27.30
 -15  19   0   59.99   31.20
   0  15  19  -11.50   44.30
  15 -19   2   -2.20   26.10
  19  -2  15   16.60   25.00
  -2  15  19   -6.40   45.80
  15  19  -2   36.90   40.80
   2  15  19   18.80   45.60
  15  19   2   -1.20   35.90
  15 -19  -2   16.00   25.60
  19   2  15   27.90   27.50
  15 -19   4    6.10   23.50
  19  -4  15   17.70   27.60
  -4  15  19   11.50   49.60
   4 -15  19    0.30    5.50
  15  19   4    1.70   37.00
  19   4  15   37.30   29.90
  15 -19  -4    9.60   26.00
   4  15  19   24.10   54.29
  -6  15  19   59.99   48.50
  15 -19   6   10.90   23.80
  19  -6  15   41.70   26.80
  15 -19  -6   23.80   26.70
  19   6  15   52.69   32.40
   6  15  19   39.30   51.19
  15  19   6   72.29   41.50
  19  -8  15   86.99   29.60
  15 -19   8   95.19   28.90
  -8  15  19  134.89   48.70
   8 -15  19  141.19   24.60
  15 -19  -8  160.08   32.50
   8  15  19  164.48   60.69
  19   8  15  118.09   39.60
  15  19   8  178.88   50.49
  15 -19  10  194.18   33.30
  10 -15  19  200.18   29.20
  19 -10  15  111.19   31.10
 -10  15  19  125.99   49.40
  15  19  10  105.19   50.79
  10  15  19  140.99   56.99
  19  10  15  194.08   44.20
  12 -15  19   68.59   25.60
  15 -19  12   51.69   30.50
 -12  15  19   55.39   46.20
  19 -12  15   42.50   28.30
  15  19  12   20.80   45.70
  12  15  19   28.40   52.89
  19  12  15   21.70   40.80
  16  19  -1  378.06   54.19
  16 -19   1  293.47   38.40
  19  -1  16  240.18   37.50
  -1  16  19  267.77   64.39
  16  19   1  291.97   49.30
   1  16  19  222.38   56.79
  19   1  16  217.28   36.50
  16 -19  -1  309.07   38.90
  19  -3  16   76.09   27.60
  16 -19   3  155.98   31.90
  -3  16  19  139.79   59.09
  16  19  -3  104.69   43.20
  19   3  16  138.69   35.80
  16  19   3  108.49   42.10
  16 -19  -3  144.39   29.70
   3  16  19  112.99   52.99
  -5  16  19  284.47   62.99
  16 -19   5  269.07   38.20
  19  -5  16  278.07   38.50
  16  19   5  210.38   49.20
  16 -19  -5  286.07   39.00
   5  16  19  160.38   55.89
  19   5  16  230.48   43.60
 -16  19   7   26.20   11.60
  16 -19   7   -6.10   24.80
  19  -7  16   -9.10   28.20
  -7  16  19  -31.60   43.90
   7  16  19   -9.70   54.89
  19   7  16   13.80   34.00
  16 -19  -7   17.60   25.30
  16  19   7    7.20   43.10
  -9  16  19   31.40   46.40
  19  -9  16   35.10   30.10
   9 -16  19   28.40   22.70
  16 -19   9   36.00   25.70
  16 -19  -9   15.50   25.50
   9  16  19   47.70   50.89
  19   9  16   43.50   39.20
  16  19   9   39.40   43.90
  17 -19   0    5.60   28.00
  17  19   0  -16.70   36.70
  19   0  17    0.30   25.80
 -17  19   0    1.70    8.90
   0  17  19   16.80   55.09
  17  19  -2  351.46   57.29
  -2  17  19  233.38   61.39
  17 -19   2  393.96   52.69
   2  17  19  315.77   66.29
  19   2  17  436.26   53.89
  17  19   2  449.16   61.09
  19   2  17  403.56   60.29
  17 -19  -2  401.56   52.19
  -4  17  19  126.99   59.59
  17 -19   4   40.30   25.90
 -17  19   4   -5.50   18.40
  17  19  -4   54.99   39.60
  19  -4  17  103.89   30.20
  19   4  17   71.39   34.50
  17 -19  -4  105.29   29.50
  17  19   4   68.29   40.70
   4  17  19   28.80   54.49
  19  -6  17   -7.00   24.40
   6 -17  19    5.10    6.30
  17 -19   6   -2.00   28.20
  -6  17  19  -18.40   46.90
   6  17  19  -19.20   48.90
  17 -19  -6   25.80   27.50
  17  19   6   31.50   42.50
  19   6  17    5.70   34.20
  19  -8  17  132.39   33.30
  -8  17  19   79.29   48.10
  17 -19   8   62.89   29.30
  19   8  17  218.18   47.20
  17 -19  -8  251.07   36.40
  17  19   8  289.87   55.49
   8  17  19  133.29   54.39
  18  19  -1  193.18   43.20
  19  -1  18  173.38   34.30
  18 -19   1  149.69   32.30
  -1  18  19  107.39   53.29
   1  18  19  128.39   64.29
  19   1  18  164.38   35.50
  18  19   1  143.69   43.40
  18 -19  -1  138.09   32.60
  18  19  -3   32.50   36.10
  19  -3  18   63.99   30.30
  18 -19   3   24.80   25.40
  -3  18  19   45.30   49.80
  18 -19  -3   16.80   27.90
  19   3  18   35.80   34.70
  18  19   3   -4.60   37.00
   3  18  19   47.90   54.99
  -5  18  19   88.79   49.99
  18 -19   5  103.79   28.60
  18  19  -5  138.09   41.20
  19  -5  18   97.89   29.40
  19   5  18  145.09   41.20
   5  18  19   94.69   60.29
  18 -19  -5  104.79   29.10
  18  19   5  115.49   44.90
  -7  18  19  279.77   62.99
  18 -19   7  198.88   37.00
  19  -7  18  198.08   38.20
  19   7  18  126.49   43.90
  18  19   7  175.98   49.30
   7  18  19  182.88   63.49
  18 -19  -7  146.39   34.40
   0  19  19   38.90   60.19
  19 -19   0   35.60   30.40
  19   0  19   49.00   28.50
  19  19   0   25.30   36.40
  -2  19  19  338.87   70.59
  19  19  -2  431.26   66.99
  19  -2  19  441.56   58.29
  19 -19   2  402.96   59.69
  19 -19  -2  537.05   60.69
  19   2  19  597.34   60.99
  19   2  19  569.74   71.09
   2  19  19  486.35   79.49
  19  19   2  599.24   70.29
  19  19  -4   99.59   37.30
  19   4  19   66.19   38.00
  19  19   4   58.59   40.40
   0   0  20 1192.58  118.09
  20   0   0 1207.98  101.99
  20  -2   0   91.99   21.50
  20   2   0   98.59   22.10
   2   0  20   65.19   38.90
  -2   0  20  126.19   43.60
   2   0  20  111.99   16.10
  -4   0  20  515.85   75.49
  20  -4   0  554.94   54.79
   4   0  20  564.44   76.89
  -6   0  20   93.59   43.60
  20  -6   0   80.29   22.50
   6   0  20   53.59   42.30
   0  20   6   61.49   43.70
   0  20   8 1023.30  111.59
  -8   0  20 1130.69  108.99
   8   0  20 1061.59  109.19
  20  -8   0 1040.70   92.79
   0  20  10   40.80   49.20
  20 -10   0   28.10   22.10
 -10   0  20    7.70   35.90
  10   0  20   31.10   41.40
  12   0  20  346.87   55.09
  20 -12   0  366.66   46.90
 -12   0  20  340.07   54.29
   0  20  12  287.27   59.59
  12   0  20  376.76   44.60
  20 -14   0   60.59   24.70
  14   0  20   65.59   43.60
  14   0  20   73.89   25.70
   0  20  14   77.59   55.59
  16   0  20  276.27   52.09
   0  20  16  266.97   69.29
  16   0  20  215.48   34.20
  20 -16   0  244.08   38.10
   0  20  18  409.06   79.19
  20 -18   0  379.06   54.59
  -1   1  20  141.09   45.60
  20  -1   1  128.79   24.60
  20   1  -1  115.69   24.00
   1  -1  20  100.99   41.10
   1   1  20  145.19   44.20
  20   1   1  182.38   25.50
  20  -1  -1  162.18   24.20
  -1  -1  20  149.19   45.70
  -3   1  20  227.88   46.70
  20  -3   1  276.37   36.60
  20   3  -1  276.57   35.40
   3  -1  20  291.17   49.00
   3  -1  20  255.47   27.40
  -3  -1  20  243.58   48.20
   3   1  20  244.78   49.30
  20  -3  -1  206.68   29.30
  20   3   1  256.37   36.60
  -1  20   5   24.00   45.00
  20  -5   1   52.89   23.60
   5  -1  20    9.10   14.90
   5  -1  20   -4.70   40.80
  -5   1  20   -8.00   39.30
  -5  -1  20   16.40   41.20
   5   1  20   16.20   41.60
  20  -5  -1   20.50   19.90
   1  20   5   30.50   45.40
  -7   1  20    7.10   39.70
  -1  20   7   14.80   41.90
   7  -1  20   52.39   38.80
   7  -1  20   24.90   17.30
  20  -7   1   37.40   24.20
  -7  -1  20   14.00   37.40
   1  20   7   43.80   41.30
   7   1  20   37.00   38.20
  20  -7  -1   17.70   20.60
   9  -1  20  242.38   51.69
  -1  20   9  157.48   49.20
  20  -9   1  273.37   34.60
  -9   1  20  240.68   47.60
   9  -1  20  202.88   28.50
   9   1  20  239.58   51.29
  -9  -1  20  247.28   47.80
  20  -9  -1  229.08   31.50
   1  20   9  194.88   49.70
  11  -1  20   23.80   20.30
  20 -11   1   -8.60   24.00
 -11   1  20    6.30   38.20
  -1  20  11   33.60   51.39
  11  -1  20   45.50   42.60
 -11  -1  20   17.30   39.20
   1  20  11   13.00   48.30
  11   1  20   16.50   43.60
  20 -11  -1   22.40   24.80
  20 -13   1  147.49   28.60
  -1  20  13  107.49   50.59
 -13   1  20  129.29   42.40
  13  -1  20  158.48   28.10
  13  -1  20  150.48   46.20
  13   1  20  185.38   48.60
  20 -13  -1  167.28   28.90
   1  20  13  208.68   56.39
  -1  20  15  175.18   59.09
  20 -15   1  228.18   34.20
  15  -1  20  190.98   45.80
  15  -1  20  169.98   30.90
  15   1  20  171.28   32.20
  20 -15  -1  173.58   31.80
  15   1  20  170.68   45.30
   1  20  15  178.18   54.49
  -1  20  17  126.29   61.49
  20 -17   1  187.48   33.20
  17  -1  20  145.99   33.00
   1  20  17   39.90   52.89
  17   1  20   94.29   43.10
  17   1  20  124.49   32.20
  20 -17  -1  103.89   32.10
  20   0  -2   92.49   21.10
   0  -2  20   77.49   40.60
   0   2  20  187.98   47.60
  20   0   2  103.19   23.20
  20   2  -2   53.49   18.80
   2  -2  20   70.89   41.70
  20  -2   2   56.69   20.80
  -2   2  20   49.20   39.50
  -2  -2  20   17.20   37.40
   2   2  20   19.70   37.00
  20   2   2    4.50   19.70
  20  -2  -2    9.90   18.60
  -4   2  20  332.37   57.49
   4  -2  20  350.56   36.20
   4  -2  20  342.17   56.19
  20  -4   2  374.56   43.90
  20   4  -2  371.16   41.70
   2 -20   4  391.96   43.80
  -4  -2  20  381.56   55.09
  20  -4  -2  370.66   42.50
   4   2  20  423.66   60.09
   2 -20   6  105.79   23.20
   6  -2  20  116.19   20.00
   6  -2  20   80.59   41.30
  -2  20   6  132.19   49.20
  -6   2  20  143.29   45.80
  20  -6   2  107.19   25.00
  20  -6  -2  154.28   25.50
   6   2  20   99.59   40.70
  -6  -2  20  111.29   41.60
   2  20   6  182.48   48.50
   8  -2  20 1306.47  114.79
   2 -20   8 1395.56  116.29
  -2  20   8 1452.65  135.69
   8  -2  20 1369.76  131.99
  20  -8   2 1401.06  117.69
  -8   2  20 1496.05  132.49
  -8  -2  20 1352.36  130.19
   8   2  20 1432.46  132.79
   2  20   8 1398.76  135.59
  20  -8  -2 1368.16  117.29
   2 -20  10  323.67   40.70
  10  -2  20  289.77   39.10
  10  -2  20  407.06   58.39
 -10   2  20  321.77   52.09
  -2  20  10  220.68   54.49
  20 -10   2  308.57   44.30
 -10  -2  20  357.86   54.79
   2  20  10  257.67   56.89
  20 -10  -2  285.67   41.90
  10   2  20  371.86   58.49
  12  -2  20   40.20   22.20
  20 -12   2   22.10   23.80
 -12   2  20   37.60   38.00
   2 -20  12   45.30   21.40
  12  -2  20   12.80   37.70
  -2  20  12   -2.00   49.30
  20 -12  -2   16.40   22.00
  12   2  20   55.29   39.80
   2  20  12    7.60   47.40
  14  -2  20   27.50   24.40
 -14   2  20   -4.40   34.70
  20 -14   2   38.00   28.50
  -2  20  14  -17.50   44.30
  14  -2  20    8.50   39.50
   2  20  14   29.00   55.29
  20 -14  -2   28.00   26.00
  14   2  20   27.80   42.10
  16  -2  20   54.29   28.20
  -2  20  16   72.39   55.09
  20 -16   2   28.30   26.30
   2  20  16   70.89   60.99
  16   2  20   38.80   42.00
  20 -16  -2   49.00   28.60
  -2  20  18   37.40   55.99
  18  -2  20    0.80   24.70
  20 -18   2    8.10   29.70
  18   2  20    0.00   28.50
  20 -18  -2   25.80   29.00
  18   2  20  -12.90   38.00
   2  20  18   19.10   63.59
   3 -20   1  295.07   38.60
  20  -1   3  285.17   38.60
  20   1  -3  288.67   34.40
  -1   3  20  254.97   49.70
   1  -3  20  255.57   49.10
  20   1   3  201.48   30.50
   1   3  20  207.08   45.80
  -1  -3  20  161.78   45.10
  20  -1  -3  285.77   34.10
  20  -3   3  202.78   30.90
   3  -3  20  176.78   46.70
   3  -3  20  266.37   25.20
  -3   3  20  190.68   47.00
   3 -20   3  191.88   30.00
  20   3  -3  224.88   33.00
  20  -3  -3  338.37   36.10
   3   3  20  199.18   45.80
  -3  -3  20  340.57   52.59
  20  -5   3  181.98   27.90
  -5   3  20  267.07   50.59
   5  -3  20  155.68   44.60
  20   5  -3  201.18   26.10
   3 -20   5  225.28   28.20
  -3  20   5  145.99   46.20
   5  -3  20  218.28   26.50
  20  -5  -3  150.98   26.30
   5   3  20  179.78   43.70
   3  20   5  189.98   50.69
  -5  -3  20  159.08   42.80
  -3  20   7   73.69   42.80
  20  -7   3  145.39   26.80
   3 -20   7  118.89   24.70
   7  -3  20  154.48   46.80
   7  -3  20  152.08   22.50
  -7   3  20  146.49   42.70
  -7  -3  20  173.68   44.10
   7   3  20  152.68   47.70
  20  -7  -3  147.19   26.50
   3  20   7  118.99   44.30
   9  -3  20  320.17   54.39
  -9   3  20  283.07   51.79
  20  -9   3  246.68   36.60
  -3  20   9  258.77   55.89
   3 -20   9  349.87   41.40
   9  -3  20  347.67   38.20
   9   3  20  306.77   54.69
   3  20   9  384.86   63.29
  -9  -3  20  379.86   56.99
  20  -9  -3  312.47   41.20
  -3  20  11  306.47   60.39
  20 -11   3  203.48   32.90
 -11   3  20  284.07   52.29
  11  -3  20  183.28   46.40
   3 -20  11  290.87   32.40
  11  -3  20  253.27   35.80
   3  20  11  125.69   50.89
  20 -11  -3  259.37   34.90
  11   3  20  164.98   47.40
  -3  20  13   95.09   47.80
   3 -20  13   97.99   25.10
  13  -3  20   99.29   42.30
  20 -13   3  137.49   30.30
  13  -3  20  118.89   27.00
 -13   3  20  149.69   42.50
  13   3  20   86.69   42.50
  20 -13  -3  156.78   29.60
   3  20  13   90.99   51.29
   3 -20  15  297.27   36.30
 -15   3  20  246.38   39.30
  20 -15   3  228.58   36.70
  15  -3  20  153.38   32.00
  -3  20  15  201.28   60.19
  15   3  20  246.28   51.09
   3  20  15  240.78   65.19
  20 -15  -3  290.87   37.10
  17  -3  20   88.49   27.20
  -3  20  17  110.49   62.09
  20 -17   3   82.99   29.70
   3  20  17   89.29   60.19
  20 -17  -3  140.09   32.90
  17   3  20   52.09   43.00
  20   0   4  522.35   52.89
   4 -20   0  490.25   52.09
   0  -4  20  478.95   65.09
  20   0  -4  498.35   48.90
   0   4  20  499.35   71.89
  20  -2   4  379.46   44.90
   2  -4  20  290.77   53.49
   4 -20   2  348.37   44.00
  -2   4  20  369.66   56.89
  20   2  -4  387.66   40.70
  20  -2  -4  393.76   42.10
  -2  -4  20  433.66   60.69
   2   4  20  388.16   56.59
  -4   4  20  343.97   54.79
   4 -20   4  387.56   44.20
   4  -4  20  383.26   57.39
   4  -4  20  396.76   35.90
  20   4  -4  405.56   40.20
  -4  20   4  331.97   55.49
  20  -4   4  394.76   44.60
   4   4  20  297.57   55.69
  20  -4  -4  333.27   42.20
  -4  -4  20  362.76   58.19
   4  20   4  317.87   57.89
  20  -6   4   42.50   22.20
   6  -4  20   29.20   15.70
   4 -20   6   33.60   23.50
  -4  20   6   48.20   42.10
  -6   4  20   41.80   38.10
   6  -4  20   91.99   42.30
  20   6  -4   40.80   18.30
  -6  -4  20  -11.40   39.50
   4  20   6    0.00   40.50
   6   4  20   10.90   42.00
  20  -6  -4   23.80   20.40
  20  -8   4  766.62   70.79
   8  -4  20  744.23   87.99
   8  -4  20  776.02   66.69
   4 -20   8  809.92   69.09
  -8   4  20  745.03   89.19
  -4  20   8  795.42   93.89
   8   4  20  677.93   89.29
  20  -8  -4  695.63   68.39
   4  20   8  669.03   92.79
  -8  -4  20  686.43   88.19
  20 -10   4  711.43   70.79
  10  -4  20  739.23   90.09
   4 -20  10  752.72   68.79
  -4  20  10  711.23   95.29
  10  -4  20  694.73   67.59
 -10   4  20  844.12   89.99
   4  20  10  782.92   97.39
  10   4  20  760.72   91.09
  20 -10  -4  756.22   69.29
 -12   4  20  291.37   51.79
   4 -20  12  267.27   31.60
  -4  20  12  160.28   51.39
  12  -4  20  333.47   56.39
  20 -12   4  221.58   33.90
  12  -4  20  218.58   30.90
  20 -12  -4  256.47   34.90
  12   4  20  244.78   52.79
   4  20  12  105.29   51.89
   4 -20  14   86.59   23.20
  20 -14   4   55.99   28.50
 -14   4  20   85.39   39.10
  14  -4  20   90.99   24.70
  -4  20  14   71.39   53.19
   4  20  14   27.90   49.99
  20 -14  -4   10.30   25.80
  14   4  20   16.80   43.40
  -4  20  16  164.38   59.09
  16  -4  20   87.19   27.90
  20 -16   4  101.39   30.70
  16   4  20   63.59   43.70
   4  20  16   42.10   56.19
  20 -16  -4   39.90   26.20
   1  -5  20  -29.60   36.10
   5 -20   1   33.80   22.30
  -1   5  20    1.10   42.10
  20   1  -5   20.40   16.50
  20  -1   5   29.30   23.60
  -1  -5  20  -11.00   39.20
   1   5  20   19.20   37.90
  20  -1  -5   24.20   17.60
   5 -20  -1    0.50   20.70
  20   1   5    3.00   22.00
  20   3  -5  212.38   25.00
   3  -5  20  201.08   46.00
   5 -20   3  201.68   28.20
  -3   5  20  185.68   45.80
  20  -3   5  188.68   29.50
   3   5  20  134.19   43.60
  20  -3  -5  164.48   25.80
  -3  -5  20  132.39   44.30
   5 -20  -3  169.88   29.40
   5 -20   5 2082.69  159.28
   5  -5  20 2010.10  156.28
  20   5  -5 2018.70  157.08
  20  -5   5 2047.80  159.98
   5  -5  20 1979.90  172.58
  -5  20   5 2131.99  174.38
  -5   5  20 2128.29  173.08
  20  -5  -5 1665.33  157.68
   5   5  20 1723.23  171.58
   5  20   5 1757.22  172.18
  -5  -5  20 1746.43  171.18
  -7   5  20 1713.23  152.28
  20   7  -5 1608.74  135.29
   5 -20   7 1638.54  137.59
   7  -5  20 1634.74  151.88
   7  -5  20 1616.64  135.19
  -5  20   7 1728.73  154.08
  20  -7   5 1730.93  139.09
   7   5  20 1601.64  152.18
  20  -7  -5 1660.73  136.49
   5  20   7 1691.43  154.98
   9  -5  20   58.89   20.00
  20  -9   5   41.40   26.70
  -5  20   9   40.20   46.50
   5 -20   9   78.79   24.50
  -9   5  20   18.60   40.50
   9  -5  20   63.39   43.30
  20  -9  -5   54.19   22.90
   5  20   9   40.10   44.00
   9   5  20   52.39   43.10
   5 -20  11  790.52   72.59
 -11   5  20  748.93   92.39
  20 -11   5  758.32   75.59
  -5  20  11  757.62   96.69
  11  -5  20  763.02   71.49
  11   5  20  830.52   95.09
   5  20  11  831.82   99.29
  20 -11  -5  826.72   73.19
  13  -5  20  120.49   26.70
   5 -20  13  124.39   25.60
  -5  20  13   92.99   52.09
 -13   5  20   99.49   42.20
  20 -13   5  159.08   30.30
  20 -13  -5  116.89   28.40
  13   5  20   78.19   44.30
   5  20  13   75.89   53.19
  20 -15   5  122.79   28.60
  -5  20  15   89.19   49.20
   5 -20  15  147.29   26.50
  15  -5  20  144.39   29.90
  20 -15  -5  106.19   27.80
   5  20  15  114.69   59.09
  15   5  20  130.99   46.80
  20 -17   5  276.07   41.40
  -5  20  17  268.07   61.99
  17  -5  20  238.48   36.90
  20 -17  -5  334.37   41.80
   5  20  17  217.78   66.29
  20  17   5  218.08   60.89
  17   5  20  296.37   57.39
  20   0  -6   52.89   17.60
   0  -6  20   42.10   39.80
   6 -20   0   36.50   21.90
   0   6  20   34.70   42.00
  20   0   6   67.59   24.50
  -2   6  20  136.79   45.50
   6 -20   2  120.29   25.00
  20  -2   6  112.89   26.20
   2  -6  20  154.68   49.40
  20   2  -6  117.49   21.00
  20  -2  -6  144.99   22.00
   6 -20  -2  156.68   27.50
   2   6  20  110.29   42.10
  -2  -6  20  114.19   42.60
  20   4  -6   48.90   16.40
  20  -4   6   33.50   22.80
  -4   6  20   66.39   41.20
  -6  20   4    6.40   39.20
   4  -6  20    6.80    6.30
   4  -6  20    8.70   39.40
   6 -20   4   22.60   23.50
   6  20   4    2.20   40.20
  20  -4  -6   11.30   17.80
   6 -20  -4   30.50   25.10
   4   6  20   10.00   43.40
  -6  20   6  212.48   49.10
  20  -6   6  194.88   29.90
  -6   6  20  181.28   46.60
   6  -6  20  168.48   46.40
   6  -6  20  211.08   28.40
   6 -20   6  182.08   28.20
  20   6  -6  240.68   28.80
   6   6  20  190.48   48.10
  20  -6  -6  182.68   27.80
   6  20   6  156.18   50.79
  -6  20   8  325.47   56.79
   8  -6  20  263.27   34.80
   8  -6  20  241.08   50.99
   6 -20   8  280.67   39.70
  20   8  -6  228.38   31.60
  -8   6  20  366.36   57.89
  20  -8   6  240.98   34.80
  20  -8  -6  291.07   37.20
   8   6  20  321.27   55.49
   6  20   8  198.48   49.99
 -10   6  20   48.50   41.40
  20 -10   6   44.80   25.70
  10  -6  20   43.20   21.00
  20  10  -6   39.40   17.30
  -6  20  10   43.80   48.40
   6 -20  10   50.79   22.40
   6  20  10   46.70   48.20
  10   6  20   24.90   45.70
  20 -10  -6   48.80   22.80
 -12   6  20   33.50   41.10
  12  -6  20   56.39   23.80
  20 -12   6   33.10   26.20
  -6  20  12   27.50   43.20
   6 -20  12   30.00   23.50
  12   6  20   39.50   39.70
   6  20  12   63.99   55.39
  20 -12  -6   16.20   23.20
  20 -14   6   45.70   28.90
  -6  20  14   35.60   53.09
   6 -20  14   15.40   22.10
  14  -6  20    3.10   23.90
 -14   6  20   55.59   37.70
  14   6  20    3.50   47.60
   6  20  14  -37.30   53.79
  20 -14  -6   19.10   24.90
   6 -20  16   30.70   22.80
  16  -6  20   28.50   27.50
  -6  20  16  154.98   53.19
  20 -16   6   23.50   30.00
 -16   6  20   30.20   12.20
  16   6  20   -9.00   42.30
  20  16   6    9.60   39.40
  20 -16  -6    8.30   27.90
   6  20  16    7.60   59.99
   7 -20   1   12.50   20.90
  20  -1   7   35.00   22.60
  -1   7  20    2.50   38.60
  20   1  -7   19.30   15.60
   1   7  20   23.30   43.90
  20  -1  -7   37.90   16.80
  20   1   7   29.40   25.70
   7 -20  -1   37.00   22.80
  20   3  -7  153.08   21.10
  -3   7  20  164.88   49.20
  20  -3   7  149.99   28.60
   7 -20   3  151.18   27.60
  20  -3  -7  124.39   21.90
   7  20   3  125.69   42.80
   7 -20  -3  105.29   26.50
   3   7  20  180.88   50.09
   5  -7  20 1611.74  130.49
  -5   7  20 1674.93  149.29
  -7  20   5 1684.93  148.79
  20   5  -7 1633.64  130.99
  20  -5   7 1689.93  135.69
   7 -20   5 1616.14  134.19
   5   7  20 1531.55  149.19
   7 -20  -5 1584.14  134.89
   7  20   5 1603.84  149.69
  20  -5  -7 1525.85  132.19
  20   7  -7 2034.90  158.88
  -7   7  20 2113.09  176.38
  20  -7   7 2046.40  163.38
   7  -7  20 1933.41  159.38
   7 -20   7 1988.50  161.78
  -7  20   7 1951.50  175.38
  20  -7  -7 1768.22  160.18
   7  20   7 2038.50  178.18
   7   7  20 1909.51  175.18
   9  -7  20   59.89   21.70
  20   9  -7   54.29   16.30
  -9   7  20   76.49   40.70
  -7  20   9   63.49   42.10
   7 -20   9   91.39   24.80
  20  -9   7   47.10   28.00
   9   7  20   24.80   45.10
  20  -9  -7   49.90   22.80
   7  20   9   38.40   44.80
 -11   7  20  420.36   58.19
  20  11  -7  342.37   48.10
   7 -20  11  387.06   45.60
  11  -7  20  358.06   45.20
  -7  20  11  369.16   64.09
  20 -11   7  366.36   50.39
  20 -11  -7  363.46   45.90
   7  20  11  273.77   59.19
  11   7  20  462.65   67.19
  -7  20  13   60.19   47.30
  13  -7  20  126.29   28.20
 -13   7  20  108.79   42.80
  20 -13   7  109.49   32.60
   7 -20  13   97.69   26.50
  13   7  20  133.69   51.99
  20 -13  -7   86.49   26.20
   7  20  13   41.50   47.30
  20 -15   7  189.58   36.50
  15  -7  20  247.58   35.30
   7 -20  15  298.27   34.90
  -7  20  15  274.57   63.39
  20  15   7  231.88   48.60
  15   7  20  258.47   58.89
   7  20  15  156.18   56.39
  20 -15  -7  262.67   35.20
  20   0   8 1087.69   92.19
  20   0  -8 1046.00   86.39
   0   8  20  953.20  108.79
   8 -20   0 1003.70   90.79
  -2   8  20 1387.76  130.79
  20   2  -8 1346.27  110.09
  20  -2   8 1402.36  115.49
   8 -20   2 1308.57  114.29
   2   8  20 1262.87  129.39
   8 -20  -2 1349.07  114.19
  20  -2  -8 1363.96  110.89
  -4   8  20  757.62   89.09
  20   4  -8  768.62   62.59
  -8  20   4  791.62   88.49
   8 -20   4  765.62   68.09
  20  -4   8  797.32   70.99
   8 -20  -4  673.73   69.19
   4   8  20  656.13   90.39
   8  20   4  633.64   87.89
  20  -4  -8  669.13   64.39
  -6   8  20  323.27   57.59
  -8  20   6  285.07   54.69
  20  -6   8  312.47   40.10
   6  -8  20  295.07   32.90
   8 -20   6  285.07   36.90
  20  -6  -8  280.77   37.10
   8  20   6  295.97   54.39
   6   8  20  315.37   56.29
  -8  20   8 1818.52  182.18
   8  -8  20 1968.10  167.48
  20  -8   8 2015.90  171.28
  -8   8  20 1903.41  183.58
   8 -20   8 1929.41  169.48
   8  20   8 2321.27  186.68
  20  -8  -8 2364.86  168.88
   8   8  20 2239.18  185.48
 -10   8  20 1460.95  133.59
  10  -8  20 1332.87  115.39
   8 -20  10 1361.76  117.29
  20 -10   8 1482.55  119.59
  -8  20  10 1299.67  133.69
  10   8  20 1373.06  135.39
   8  20  10 1370.26  137.79
  20 -10  -8 1353.66  116.19
   8 -20  12  100.29   27.70
  20 -12   8   96.29   30.30
  12  -8  20  100.59   26.10
  -8  20  12   64.89   43.20
 -12   8  20  153.88   46.90
  12   8  20   18.10   43.20
   8  20  12   62.79   51.99
  20 -12  -8   71.39   25.60
  20 -14   8   -3.40   27.60
  14  -8  20   -2.80   25.50
 -14   8  20   28.60   39.50
   8 -20  14    2.90   23.00
  -8  20  14   15.50   50.59
  20 -14  -8   13.60   24.40
  20  14   8  -16.50   31.50
  14   8  20   20.70   46.40
   8  20  14   15.50   52.79
   8 -20  16   44.00   25.60
  16  -8  20   18.60   26.60
  20 -16   8   -1.00   26.70
  -8  20  16   31.50   45.20
  20  16   8   24.60   37.30
  16   8  20    5.50   44.40
  20 -16  -8   44.40   27.10
   8  20  16   14.80   61.19
  -1   9  20  207.08   52.99
  20  -1   9  225.38   33.50
  20   1  -9  195.28   26.20
   9 -20   1  159.18   29.20
  20  -1  -9  238.68   28.00
   1   9  20  227.28   50.59
   9 -20  -1  271.07   33.90
  -9  20   3  417.06   58.29
   9 -20   3  321.07   42.20
  20  -3   9  304.47   44.50
  -3   9  20  266.47   56.49
   9 -20  -3  342.97   43.30
   9  20   3  227.88   50.59
   3   9  20  233.88   52.69
  20  -3  -9  332.17   35.10
  20  -5   9   40.90   25.50
  -5   9  20   36.70   41.30
   9 -20   5   36.00   24.10
  -9  20   5   72.59   41.70
  20  -5  -9   46.20   18.80
   9  20   5   54.29   41.80
   5   9  20   48.90   44.00
   9 -20  -5   42.80   24.40
   9 -20   7   60.79   24.00
  -7   9  20   62.09   42.50
   7  -9  20   58.49   18.30
  20  -7   9   81.29   29.10
  -9  20   7   83.89   45.60
   7   9  20   36.60   47.30
  20  -7  -9   64.59   20.90
   9  20   7   -8.90   44.60
   9  -9  20  194.38   27.60
  -9   9  20  170.68   48.30
  -9  20   9  210.18   51.09
   9 -20   9  167.98   30.00
  20  -9   9  209.28   36.00
   9  20   9  200.98   56.29
  20  -9  -9  184.38   28.40
   9   9  20  182.88   53.79
  11  -9  20  144.59   26.20
  20 -11   9  108.79   31.70
   9 -20  11  122.69   27.40
 -11   9  20  107.19   43.80
  -9  20  11   57.29   43.70
  11   9  20   67.79   47.80
  20 -11  -9   91.89   25.90
   9  20  11   83.19   53.79
  13  -9  20  101.49   26.70
  -9  20  13  187.68   52.39
  20 -13   9  114.49   33.30
 -13   9  20  147.09   47.80
   9 -20  13  109.19   27.50
  13   9  20  125.29   52.39
  20 -13  -9  102.99   27.60
  20  13   9  143.49   40.40
   9  20  13  110.89   58.29
 -15   9  20   12.30   14.00
  15  -9  20   37.10   27.20
  20 -15   9   23.30   29.70
   9 -20  15    7.90   24.50
  -9  20  15   10.90   42.90
  20 -15  -9    1.50   26.30
   9  20  15    2.00   56.99
  15   9  20   -2.70   47.40
  20  15   9  -27.40   32.90
  20   0  10   -3.10   23.80
  10 -20   0   20.40   22.20
   0  10  20   -1.30   41.30
 -10  20   2  406.46   58.39
  20  -2  10  323.77   46.80
  10 -20   2  321.67   43.10
  -2  10  20  261.47   55.49
  20  -2 -10  323.67   34.40
  10 -20  -2  300.67   39.30
  10  20   2  362.46   59.49
   2  10  20  297.77   58.29
  20  -4  10  698.43   70.49
 -10  20   4  722.73   85.69
  10 -20   4  728.83   70.29
  -4  10  20  713.23   92.59
   4  10  20  797.42   93.89
  20  -4 -10  738.03   64.39
  10  20   4  795.12   91.69
  10 -20  -4  714.93   69.49
  10 -20   6   48.20   24.10
 -10  20   6   46.90   42.30
  20  -6  10   22.50   25.20
  -6  10  20   45.40   41.30
  10  20   6   44.50   45.20
   6  10  20   41.30   49.30
  10 -20  -6   26.90   25.40
  20  -6 -10   21.60   18.70
  10 -20   8 1416.76  115.99
  -8  10  20 1305.97  132.39
   8 -10  20 1325.57  112.79
 -10  20   8 1392.16  131.39
  10  20   8 1404.06  134.89
  20  -8 -10 1372.26  113.49
   8  10  20 1263.87  134.99
 -10  20  10  654.63   89.59
  10 -20  10  775.52   69.89
 -10  10  20  706.43   92.29
  20 -10  10  760.22   73.49
  10 -10  20  788.02   67.59
  10  20  10  734.83   95.99
  20 -10 -10  645.34   66.59
  10  10  20  633.04   94.69
 -10  20  12   19.40   40.90
  12 -10  20  -10.60   22.10
 -12  10  20   23.10   43.30
  20 -12  10  -17.10   28.20
  10 -20  12    1.00   24.70
  10  20  12   -8.90   49.10
  20 -12 -10   -1.30   22.80
  20  12  10    9.50   34.70
  12  10  20   47.40   52.99
  14 -10  20    9.10   25.20
 -10  20  14  -31.20   45.10
  10 -20  14   28.00   25.00
 -14  10  20   -3.10   39.50
  20 -14  10  -25.60   30.20
  20 -14 -10    6.20   24.40
  10  20  14  -57.29   54.59
  14  10  20    1.90   45.10
  20  14  10   14.60   33.80
  20  -1  11   24.50   26.50
  -1  11  20    6.40   46.00
  11 -20   1    8.70   23.00
  11 -20  -1   25.40   24.30
  20   1  11   31.00   27.80
   1  11  20  -16.20   41.30
  11  20   1    4.30   37.40
  20  -3  11  197.88   33.00
  11 -20   3  238.68   32.20
 -11  20   3  254.77   46.10
  -3  11  20  240.18   54.49
   3  11  20  117.99   47.30
  11 -20  -3  181.58   31.20
  11  20   3  137.59   44.30
  -5  11  20  729.83   96.39
 -11  20   5  714.83   89.19
  20  -5  11  773.22   75.79
  11 -20   5  751.52   73.59
  11 -20  -5  844.32   74.89
  11  20   5  823.02   94.09
   5  11  20  812.32   97.09
  20  -5 -11  821.52   68.69
  11 -20   7  345.67   47.50
   7 -11  20  444.56   39.30
  -7  11  20  335.87   63.69
 -11  20   7  332.57   54.99
  20  -7  11  373.66   50.79
  20  -7 -11  376.66   41.20
  11  20   7  328.97   58.59
  11 -20  -7  418.06   48.50
   7  11  20  388.86   68.99
  11 -20   9   76.69   24.90
  20  -9  11   80.99   29.30
  -9  11  20   86.89   49.80
   9 -11  20  119.69   23.80
 -11  20   9   90.89   42.40
  20  -9 -11   92.49   22.70
  11  20   9   57.39   43.40
   9  11  20   89.59   51.59
 -11  11  20  336.67   58.29
  11 -20  11  186.08   30.80
  11 -11  20  232.38   30.20
  20 -11  11  175.18   33.10
 -11  20  11  285.67   52.49
  11  11  20  165.98   54.39
  20 -11 -11  154.98   29.20
  20  11  11  182.48   40.70
  11  20  11   84.59   47.60
 -11  20  13  231.58   53.19
  20 -13  11  196.28   36.80
  13 -11  20  307.67   37.30
 -13  11  20  309.77   55.69
  11 -20  13  331.17   44.50
  13  11  20  272.37   63.49
  20 -13 -11  287.77   36.80
  11  20  13  217.18   59.99
  20  13  11  294.47   47.60
  20   0  12  377.76   50.49
  12 -20   0  341.37   47.20
   0  12  20  400.16   65.59
  20  -2  12    6.60   26.40
  12 -20   2   43.50   26.40
  -2  12  20   15.00   45.20
 -12  20   2   42.60   39.00
  12 -20  -2   42.70   23.70
  12  20   2   63.89   39.70
   2  12  20   48.10   45.10
 -12  20   4  288.37   49.60
  12 -20   4  251.77   32.50
  20  -4  12  247.88   35.90
  -4  12  20  197.78   51.09
  12  20   4  173.88   47.40
  12 -20  -4  167.78   31.20
   4  12  20  191.98   56.09
  -6  12  20   53.89   47.20
  12 -20   6   32.70   23.00
 -12  20   6   30.60   38.50
  20  -6  12   46.70   25.30
  20  -6 -12    7.80   16.80
  12  20   6   12.70   40.50
   6  12  20   49.60   44.90
  12 -20  -6   16.10   23.20
  12 -20   8   62.59   25.50
   8 -12  20  111.19   21.70
  20  -8  12  136.79   31.50
  -8  12  20  109.19   50.69
 -12  20   8   79.29   41.20
  12 -20  -8   69.79   29.40
   8  12  20   76.39   49.50
  20  -8 -12  103.69   21.60
  12  20   8   65.39   46.10
  20 -10  12    6.60   28.50
  12 -20  10   13.10   27.20
 -12  20  10    9.80   40.30
 -10  12  20  -14.10   41.80
  10 -12  20  -12.10   20.80
  20 -10 -12    8.70   20.30
  12  20  10   12.60   49.50
  10  12  20  -61.19   50.79
  20  10  12   18.90   30.40
  20 -12  12  137.19   35.00
 -12  20  12   97.49   44.40
  12 -12  20  181.48   29.30
 -12  12  20  132.19   52.09
  12 -20  12  142.29   30.60
  20  12  12  167.08   41.10
  12  20  12  176.58   57.79
  20 -12 -12  153.68   28.30
  12  12  20  151.48   52.99
  20  -1  13  142.29   31.80
 -13  20   1  163.88   44.10
  13 -20   1  172.78   32.50
  -1  13  20  146.89   51.89
   1  13  20  188.98   54.99
  20   1  13  184.28   33.70
  13  20   1  141.79   44.30
  13 -20  -1  151.38   28.60
  -3  13  20  118.39   53.59
  20  -3  13  115.99   31.20
  13 -20   3  105.59   26.60
 -13  20   3  138.59   40.30
   3  13  20  119.69   48.30
  13  20   3  109.89   42.50
  13 -20  -3   99.39   26.30
 -13  20   5  150.18   40.70
  13 -20   5   90.49   26.60
  -5  13  20  103.89   53.39
  20  -5  13   94.49   27.10
   5  13  20   97.19   51.29
  13 -20  -5  119.89   30.40
  13  20   5   68.79   41.40
  -7  13  20   62.69   48.80
  13 -20   7  127.49   30.20
 -13  20   7   58.29   39.80
  20  -7  13  116.29   31.50
   7  13  20   75.09   53.39
  13 -20  -7  129.49   31.00
  13  20   7  113.69   48.70
  13 -20   9  141.89   31.80
  -9  13  20  105.59   47.50
 -13  20   9  135.19   42.20
   9 -13  20  125.79   25.00
  20  -9  13  144.99   34.90
  20   9  13  119.29   37.20
   9  13  20  133.39   58.29
  20  -9 -13  109.79   22.70
  13  20   9  134.59   53.89
  13 -20  11  361.76   42.70
 -11  13  20  257.87   55.69
 -13  20  11  319.47   53.99
  11 -13  20  315.37   42.90
  20 -11  13  294.07   42.50
  11  13  20  347.77   70.89
  20  11  13  287.87   48.60
  13  20  11  222.38   59.29
  13  20  13   10.70   48.00
  14  20   0   84.89   42.20
 -14  20   0   41.20   36.40
   0  14  20   38.40   54.49
  14 -20   0   71.99   28.60
  20   0  14   50.69   26.90
  20  -2  14   15.30   25.90
 -14  20   2   66.49   34.80
  -2  14  20   -5.40   51.39
  14 -20   2   30.90   27.00
   2  14  20   33.80   52.89
  14 -20  -2   26.70   23.80
  14  20   2   53.19   44.10
  14 -20   4   49.10   24.50
  -4  14  20   54.99   46.50
 -14  20   4   91.29   37.20
  20  -4  14   42.80   27.60
   4  14  20   43.50   47.20
  14  20   4    4.20   38.30
  14 -20  -4   11.00   25.90
 -14  20   6   37.70   36.20
  -6  14  20   43.30   49.99
  20  -6  14   24.40   27.70
  14 -20   6   32.10   26.20
  14  20   6   -2.80   40.10
  14 -20  -6    7.60   24.30
   6  14  20   33.70   48.30
   8 -14  20  -22.30    9.90
  -8  14  20  -33.70   48.20
  14 -20   8   17.80   25.00
 -14  20   8    1.00   35.70
  20  -8  14    5.20   30.60
  14  20   8  -16.90   44.70
  14 -20  -8    7.80   28.90
   8  14  20    1.30   46.20
  20   8  14   25.30   32.10
  20 -10  14   20.90   30.60
  10 -14  20   13.20   22.60
 -14  20  10    3.30   35.20
 -10  14  20  -12.10   44.20
  14 -20  10  -13.40   28.10
  20  10  14   28.90   33.90
  14  20  10   -7.40   48.20
  10  14  20   35.20   55.29
  20  -1  15  212.68   36.00
  15 -20   1  195.18   32.80
 -15  20   1  246.18   41.00
  15  20  -1  226.38   48.30
  -1  15  20  178.38   57.59
  15 -20  -1  216.38   35.00
   1  15  20  228.38   61.59
  15  20   1  180.58   47.60
 -15  20  -1  207.78   42.40
  20   1  15  146.19   32.70
 -15  20   3  251.27   40.00
  15 -20   3  253.57   36.90
  20  -3  15  196.58   35.50
  -3  15  20  140.89   52.39
  15 -20  -3  198.98   34.40
   3  15  20  301.07   68.59
  15  20   3  241.38   49.70
  -5  15  20  130.79   50.99
  15 -20   5  129.89   31.40
  20  -5  15  103.59   29.00
  15  20   5  154.48   49.50
  15 -20  -5  112.29   29.60
   5  15  20  106.89   58.39
  20   5  15  112.89   53.19
  20  -7  15  209.58   35.80
  -7  15  20  209.28   58.49
  15 -20   7  164.08   32.70
  15 -20  -7  179.88   31.70
  15  20   7  258.77   52.79
   7  15  20  195.88   57.39
  20   7  15  213.68   42.30
  20  -9  15  -10.30   30.20
  -9  15  20   -5.00   47.60
 -15  20   9   -1.40   11.90
  15 -20   9   -9.30   25.10
   9  15  20   22.10   48.40
  20   9  15  -35.10   31.40
  15  20   9   17.10   45.20
   0  16  20  313.57   69.09
  16  20   0  269.37   51.89
  16 -20   0  210.08   34.50
  20   0  16  222.58   37.40
 -16  20   2   -0.90   10.30
  16  20  -2   77.49   42.90
  -2  16  20   39.10   56.49
  20  -2  16   39.60   30.30
  16 -20   2   39.90   25.90
   2  16  20   37.30   57.19
  20   2  16   28.10   29.90
 -16  20  -2    0.80   10.60
  16 -20  -2   22.40   27.60
  16  20   2   38.10   39.20
  20  -4  16  107.99   30.00
  16 -20   4  108.99   30.80
  -4  16  20  100.19   51.79
  16 -20  -4   59.69   27.30
   4  16  20   45.10   51.09
  16  20   4   33.90   43.70
  -6  16  20   20.10   47.70
   6 -16  20    4.80    6.00
 -16  20   6   19.30   12.30
  16 -20   6   25.90   25.80
  20  -6  16    8.20   28.30
   6  16  20   24.60   51.79
  16 -20  -6    9.40   27.20
  16  20   6   -3.40   40.90
  20   6  16    8.70   34.80
  -8  16  20   23.90   49.50
  16 -20   8   24.40   26.60
 -16  20   8  -16.20   11.50
  20  -8  16   24.20   29.40
   8 -16  20   13.00    7.90
  16  20   8   34.40   46.10
  20   8  16    9.90   33.10
   8  16  20   12.20   48.50
  16 -20  -8   33.70   29.10
  -1  17  20  120.99   54.19
  17  20  -1  150.48   46.40
  20  -1  17  127.79   32.60
  17 -20   1  123.29   30.50
   1  17  20  134.09   63.39
  17  20   1   80.69   41.70
  20   1  17   81.39   30.90
  17 -20  -1  138.99   33.80
  17  20  -3  124.49   44.10
  17 -20   3   98.99   32.90
  -3  17  20  152.38   57.99
  20  -3  17  102.79   31.70
  17  20   3   14.40   41.30
  17 -20  -3   70.19   29.80
   3  17  20   53.09   55.09
  -5  17  20  234.38   57.99
  17  20  -5  315.17   53.79
  17 -20   5  280.67   41.90
  20   5  17  303.07   68.49
   5  17  20  292.77   69.89
  17  20   5  291.87   56.59
  17 -20  -5  240.58   37.50
  20   7  17  304.27   52.99
  17  20   7  287.67   57.99
   0  18  20  246.98   65.89
  20   0  18  247.38   41.30
  18 -20   0  375.16   51.79
  18  20   0  384.96   54.79
  -2  18  20    3.80   49.80
  18 -20   2    0.90   29.50
  18  20  -2  -12.20   36.40
  20  -2  18    9.50   26.60
  18  20   2   -5.40   37.70
  20   2  18    6.40   29.20
  18 -20  -2   11.90   26.40
   2  18  20   11.40   51.49
  -1   0  21   10.00   39.00
   1   0  21   14.50   39.20
  21  -1   0   14.60   21.90
  21   1   0  -17.40   20.00
   3   0  21  168.78   21.60
   3   0  21  167.58   45.20
  21  -3   0  167.58   27.00
  -3   0  21  174.68   49.90
  21   3   0  151.78   27.20
   0  21   5  -42.40   46.90
  21  -5   0   -6.80   20.70
  -5   0  21  -54.39   39.50
   5   0  21   -7.00   14.90
   5   0  21   25.20   40.00
   7   0  21   42.40   43.60
  -7   0  21    7.00   40.00
   0  21   7   51.49   43.00
   7   0  21   15.30   18.10
  21  -7   0   22.30   23.10
   9   0  21  -31.20   43.90
  21  -9   0   70.79   26.40
  -9   0  21   11.10   39.20
   0  21   9   19.30   48.50
   9   0  21   25.60   20.50
 -11   0  21   38.70   42.00
  11   0  21   84.29   47.30
  11   0  21  104.19   25.10
  21 -11   0   78.79   24.60
   0  21  11   66.39   53.49
  13   0  21    3.20   23.70
   0  21  13   26.70   48.30
  21 -13   0   -7.80   25.70
  13   0  21   17.90   43.10
  21 -15   0   30.00   29.50
  15   0  21    9.80   25.30
  15   0  21  -14.80   39.90
   0  21  15   -2.20   50.29
  17   0  21   58.19   29.10
   0  21  17   35.00   51.59
  21 -17   0   77.99   30.20
  17   0  21   59.89   44.20
   0  -1  21    6.10   38.60
   0   1  21    3.70   38.10
  21   0  -1   -6.30   21.20
  21   0   1   15.40   20.20
  21   2  -1  311.67   39.00
  -2   1  21  269.77   52.19
  21  -2   1  293.57   39.40
   2  -1  21  339.47   57.69
  21  -2  -1  260.67   38.30
  -2  -1  21  214.38   50.29
   2   1  21  262.77   53.49
  21   2   1  289.97   39.60
  21  -4   1    8.90   23.40
  21   4  -1   20.60   21.50
  -4   1  21   36.80   40.50
  -1  21   4   13.90   41.50
   4  -1  21    4.90   38.80
  -4  -1  21   -3.70   39.40
  21   4   1    5.60   21.60
   4   1  21   20.10   39.40
   1  21   4    1.00   40.70
  21  -4  -1   33.40   20.60
  21  -6   1  559.14   60.49
  -1  21   6  658.13   87.69
  -6   1  21  581.44   81.29
   6  -1  21  582.74   80.89
   6  -1  21  586.24   54.39
  -6  -1  21  623.44   82.29
   6   1  21  620.44   82.49
   1  21   6  581.44   86.99
  21  -6  -1  634.24   59.69
   8  -1  21   31.90   18.60
  21  -8   1   14.00   22.40
   8  -1  21    9.70   42.10
  -1  21   8  -14.50   44.50
  -8   1  21   -9.50   43.90
   1  21   8   26.10   46.30
  -8  -1  21   -5.70   42.10
   8   1  21   22.80   40.30
  21  -8  -1   38.70   24.70
  -1  21  10  374.56   70.29
  10  -1  21  529.25   78.79
  21 -10   1  572.54   57.39
  10  -1  21  524.55   52.49
 -10   1  21  546.15   78.19
   1  21  10  379.26   68.19
  21 -10  -1  535.85   55.99
 -10  -1  21  629.94   78.89
  10   1  21  536.75   79.39
  21 -12   1   22.70   26.00
 -12   1  21   47.10   40.50
  12  -1  21   32.20   22.30
  -1  21  12   14.20   56.59
  12  -1  21   33.30   39.00
  21 -12  -1   38.30   25.60
   1  21  12   43.50   52.99
  12   1  21   17.50   42.00
  14  -1  21  294.27   56.49
  21 -14   1  334.77   45.90
  -1  21  14  263.97   64.09
  14  -1  21  220.58   34.20
  14   1  21  209.68   34.20
  21 -14  -1  296.87   39.70
   1  21  14  247.08   68.19
  14   1  21  327.47   56.09
  -1  21  16   96.79   56.99
  16  -1  21   70.49   26.70
  16  -1  21   79.79   43.70
  21 -16   1   56.39   27.70
   1  21  16   57.49   63.49
  16   1  21   87.09   44.60
  21 -16  -1  152.98   32.60
  16   1  21   67.99   27.40
  -1   2  21  244.08   53.29
   1  -2  21  213.68   49.90
  21  -1   2  275.97   39.90
  21   1  -2  260.57   37.30
  21   1   2  301.27   39.70
  21  -1  -2  292.27   36.80
  -1  -2  21  209.78   50.79
   1   2  21  275.67   55.89
   3  -2  21   76.29   41.90
  -3   2  21   49.90   41.50
  21  -3   2   62.49   23.20
  21   3  -2  123.19   23.10
  21  -3  -2   76.39   23.60
  -3  -2  21   14.10   43.30
   3   2  21   56.99   44.90
  21   3   2   57.29   24.30
  21  -5   2  157.28   28.30
  21   5  -2  180.78   26.60
  -5   2  21  154.28   46.00
   5  -2  21  208.48   49.80
  -2  21   5  135.29   48.00
   5  -2  21  175.78   22.70
  -5  -2  21  201.08   49.10
  21  -5  -2  202.08   27.90
   5   2  21  221.48   50.89
   2  21   5  187.08   48.00
   7  -2  21  265.87   52.79
  21  -7   2  224.58   33.80
   7  -2  21  243.58   32.80
  -7   2  21  202.38   52.09
   2 -21   7  298.17   35.30
  -2  21   7  226.18   56.59
  21  -7  -2  298.57   39.50
   2  21   7  272.07   56.79
  -7  -2  21  263.67   49.99
   7   2  21  227.18   51.59
   9  -2  21   38.90   20.40
  21  -9   2   45.40   26.30
   9  -2  21   52.69   46.30
   2 -21   9   41.90   23.80
  -9   2  21  114.49   46.80
  -2  21   9   65.09   46.50
  -9  -2  21   19.10   39.20
   2  21   9   27.20   50.69
  21  -9  -2   -6.70   22.20
   9   2  21   21.00   41.00
  11  -2  21  185.98   30.20
 -11   2  21  230.88   51.09
  21 -11   2  204.28   33.70
  11  -2  21  207.68   53.49
  -2  21  11  154.48   55.39
  21 -11  -2  290.57   35.00
   2  21  11  183.38   53.29
  11   2  21  168.58   49.20
  13  -2  21  147.19   28.30
  21 -13   2  131.09   30.70
  -2  21  13  182.78   63.59
  13  -2  21  165.18   49.90
 -13   2  21  137.59   44.90
   2  21  13  124.69   53.79
  21 -13  -2  194.68   32.00
  13   2  21  159.58   47.40
  15  -2  21   14.30   25.70
  21 -15   2   31.80   27.80
  -2  21  15   12.60   55.09
  15  -2  21   42.50   43.00
  15   2  21    4.80   41.80
  15   2  21   27.20   26.90
  21 -15  -2   20.20   28.00
   2  21  15   33.40   51.29
  -2  21  17  253.97   63.29
  17  -2  21  281.07   37.80
  21 -17   2  278.17   39.20
   2  21  17  118.39   57.29
  21 -17  -2  183.18   36.90
  17   2  21  135.29   35.90
  17   2  21  165.98   49.60
  21   0   3  149.09   28.80
   0  -3  21   93.39   43.00
   0   3  21  154.48   47.60
  21   0  -3  171.38   26.20
  -2   3  21   40.60   40.80
   3 -21   2   63.69   25.10
   2  -3  21   62.69   45.20
  21  -2   3   69.19   23.90
  21   2  -3   65.79   20.10
  21   2   3   62.19   24.40
   2   3  21   63.09   44.10
  -2  -3  21   35.00   39.80
  21  -2  -3   48.00   20.80
  -4   3  21  254.97   52.49
   3 -21   4  312.17   38.40
   4  -3  21  276.57   49.80
  21   4  -3  278.97   34.20
  -3  21   4  313.27   60.39
  21  -4   3  229.08   30.90
   3  21   4  138.79   49.60
  21  -4  -3  182.78   28.80
   4   3  21  153.98   48.40
  -4  -3  21  106.09   45.30
   3 -21   6  889.31   75.99
   6  -3  21  863.81   71.19
  21   6  -3  900.91   73.69
  -3  21   6  889.41   99.19
   6  -3  21  886.21   95.89
  21  -6   3  907.81   77.49
  -6   3  21  844.22   96.39
  21  -6  -3  708.03   74.39
   3  21   6  697.63   97.69
  -6  -3  21  666.63   92.99
   6   3  21  687.83   94.09
   8  -3  21  353.46   39.60
   8  -3  21  346.67   56.99
  -3  21   8  421.46   67.39
  21  -8   3  363.56   47.60
   3 -21   8  398.26   44.90
  -8   3  21  285.97   54.49
  21  -8  -3  346.47   44.10
  -8  -3  21  312.97   58.69
   3  21   8  330.67   63.29
   8   3  21  284.47   55.99
  10  -3  21  259.77   36.80
   3 -21  10  287.87   38.70
  10  -3  21  267.17   55.29
  21 -10   3  242.78   36.60
 -10   3  21  265.07   53.99
  -3  21  10  195.68   53.39
  10   3  21  300.37   59.09
  21 -10  -3  224.78   31.90
   3  21  10  277.57   64.19
   3 -21  12  156.48   27.60
 -12   3  21  243.28   49.99
  -3  21  12  143.69   59.49
  21 -12   3  118.29   29.20
  12  -3  21  127.09   45.40
  12  -3  21  141.89   26.60
   3  21  12  176.98   57.69
  12   3  21  145.29   46.50
  21 -12  -3  205.18   29.70
 -14   3  21  -15.40   37.80
  -3  21  14    6.60   52.59
  14  -3  21   -0.80   21.90
  21 -14   3    3.50   27.90
  14   3  21   47.40   46.80
   3  21  14   37.20   50.99
  21 -14  -3   20.50   25.30
  -3  21  16  109.19   54.79
  16  -3  21  122.29   28.20
  21 -16   3   57.99   28.70
   3  21  16   82.39   58.09
  21 -16  -3   94.49   28.70
  16   3  21  102.99   46.20
  -1   4  21  -12.00   38.80
  21   1  -4   17.40   17.90
   1  -4  21    5.30   41.70
  21  -1   4    1.20   23.90
   4 -21   1    7.30   21.70
  21  -1  -4    4.50   19.60
   1   4  21   14.50   43.90
  21   1   4    9.70   22.70
  -1  -4  21   10.10   39.20
   4 -21   3  287.57   39.00
  21   3  -4  251.87   33.30
   3  -4  21  249.78   51.29
  21  -3   4  273.47   33.30
  -3   4  21  284.57   55.19
   3   4  21  156.18   52.79
  21  -3  -4  159.88   27.80
  -3  -4  21  146.59   50.09
  -4  21   5  221.98   50.39
   4 -21   5  225.38   30.50
   5  -4  21  185.18   24.60
   5  -4  21  223.28   48.00
  21  -5   4  193.58   30.90
  21   5  -4  267.27   33.20
  -5   4  21  215.58   48.50
  -5  -4  21  294.77   50.39
   4  21   5  295.57   53.49
   5   4  21  320.27   54.09
   7  -4  21  915.31   79.19
  -7   4  21  918.21  103.59
  21  -7   4  975.90   85.29
   7  -4  21  882.01  102.39
   4 -21   7  951.20   83.29
  -4  21   7  999.80  107.29
  21   7  -4  898.41   80.29
   4  21   7  958.10  107.29
  -7  -4  21  897.51  102.69
  21  -7  -4  895.71   82.19
   7   4  21  955.30  103.59
   9  -4  21 1201.48  119.99
  -4  21   9 1104.09  121.59
   4 -21   9 1176.98  100.79
  -9   4  21 1212.98  120.19
  21  -9   4 1315.47  103.29
   9  -4  21 1158.78   98.69
   4  21   9 1066.29  123.99
   9   4  21 1107.39  119.79
  21  -9  -4 1083.19  100.19
 -11   4  21  -22.40   41.70
   4 -21  11  -19.20   22.90
  21 -11   4    1.60   26.60
  -4  21  11  -11.20   52.49
  11  -4  21   -3.60   20.10
  11  -4  21  -18.40   42.70
  11   4  21  -26.20   41.30
  21 -11  -4   -0.40   21.60
   4  21  11   -3.00   49.30
  -4  21  13   45.00   48.50
  13  -4  21   46.30   24.80
   4 -21  13   61.39   23.40
 -13   4  21   63.39   41.40
  21 -13   4   22.20   25.40
  21 -13  -4   57.89   26.00
  13   4  21    5.90   41.70
   4  21  13   62.29   53.49
  21 -15   4   48.10   31.20
 -15   4  21   28.00   20.20
   4 -21  15   36.90   22.70
  -4  21  15   18.10   48.20
  15  -4  21   31.90   26.30
  21 -15  -4   25.90   28.80
  15   4  21   38.50   43.60
   4  21  15   53.49   56.79
   5 -21   0  -10.60   22.00
  21   0   5   16.90   24.20
   0   5  21  -30.10   39.50
  21   0  -5  -13.90   17.50
   0  -5  21   53.09   43.90
  -2   5  21  143.49   45.80
   2  -5  21  146.19   46.20
  21   2  -5  184.58   24.90
  21  -2   5  160.78   29.40
   5 -21   2  169.88   29.10
  -2  -5  21  219.68   51.49
   2   5  21  211.28   54.89
  21  -2  -5  182.38   25.90
  21   2   5  221.18   30.80
  -5  21   4  214.28   50.89
  21  -4   5  275.57   37.20
   4  -5  21  265.57   52.39
   5 -21   4  211.38   33.10
  21   4  -5  269.37   34.70
  -4   5  21  243.98   53.49
   5  21   4  342.67   58.79
  21  -4  -5  369.26   38.20
  -4  -5  21  343.37   56.49
   4   5  21  242.98   51.69
  -6   5  21  220.78   54.49
  -5  21   6  264.07   57.09
   6  -5  21  256.77   28.60
  21   6  -5  215.38   27.00
  21  -6   5  205.98   32.50
   6  -5  21  217.78   52.09
   5 -21   6  199.88   31.20
   5  21   6  168.18   55.99
  21  -6  -5  182.58   29.30
   6   5  21  142.09   47.90
  21  -8   5  480.65   56.29
   8  -5  21  406.56   64.29
  -8   5  21  402.46   63.59
  21   8  -5  489.45   48.80
   8  -5  21  490.15   48.70
   5 -21   8  498.85   53.79
  -5  21   8  351.16   63.99
   5  21   8  681.13   86.19
  21  -8  -5  602.44   51.99
   8   5  21  616.44   79.99
  21 -10   5  151.18   32.10
  10  -5  21  167.28   27.60
  10  -5  21  147.49   51.29
 -10   5  21  233.28   53.59
  -5  21  10  189.18   56.99
   5 -21  10  170.48   29.10
  21  10  -5  200.68   26.60
  21 -10  -5  252.27   31.20
  10   5  21  288.17   56.69
   5  21  10  210.38   54.29
  -5  21  12   37.60   47.00
  21 -12   5   14.60   28.50
  12  -5  21   34.60   23.70
   5 -21  12   36.40   22.70
 -12   5  21   36.60   43.90
   5  21  12   45.60   49.30
  12   5  21   52.99   44.90
  21 -12  -5   26.80   24.10
   5 -21  14   15.70   22.50
  21 -14   5   35.40   28.10
  -5  21  14   30.00   53.99
 -14   5  21   11.80   38.70
  14  -5  21   16.80   23.40
  21 -14  -5  102.09   29.60
   5  21  14    7.80   49.50
  14   5  21   63.99   50.29
  21 -16   5   54.89   29.20
 -16   5  21    6.90   13.10
  -5  21  16  127.19   59.79
  16  -5  21   45.80   24.90
  16   5  21   70.59   45.30
   5  21  16   12.90   54.99
  21 -16  -5   49.60   27.70
  -1   6  21  623.54   84.79
   1  -6  21  549.05   83.89
   6 -21   1  571.24   58.49
  21   1  -6  579.24   54.09
  21  -1   6  644.84   60.89
  21  -1  -6  594.44   54.69
   1   6  21  412.76   68.69
   6 -21  -1  566.14   59.29
  21   1   6  653.23   61.29
  -1  -6  21  538.05   82.69
  -6  21   3  839.02   96.49
  21  -3   6  913.31   75.49
  21   3  -6  853.81   69.69
  -3   6  21  860.51   95.89
   6 -21   3  882.31   74.59
   3  -6  21  853.91   97.09
   6  21   3  702.43   94.39
  21  -3  -6  699.93   70.59
   3   6  21  695.33   93.79
   6 -21  -3  754.02   74.69
  -3  -6  21  625.84   93.29
  21   5  -6  206.18   24.80
   6 -21   5  173.08   29.10
  -5   6  21  193.48   50.59
  -6  21   5  200.88   49.60
  21  -5   6  185.38   30.30
   5  -6  21  149.19   50.99
   6  21   5  122.19   46.90
   5   6  21  135.29   47.50
  21  -5  -6  209.88   28.20
  21   7  -6  883.21   75.39
  21  -7   6  918.61   82.59
  -6  21   7  871.11  102.09
   7  -6  21  882.71   75.39
   7  -6  21  923.41  101.89
  -7   6  21  949.51  101.69
   6 -21   7  876.61   79.69
   7   6  21  884.41  102.29
   6  21   7  787.72  101.79
  21  -7  -6  805.32   77.59
  21   9  -6 2372.66  196.08
  -9   6  21 2565.94  212.38
   6 -21   9 2482.15  198.58
  21  -9   6 2555.04  200.38
   9  -6  21 2543.15  197.48
  21  -9  -6 2327.87  197.98
   9   6  21 2389.46  213.38
   6  21   9 2244.98  214.68
  21 -11   6  506.35   56.19
  21  11  -6  469.25   45.20
 -11   6  21  512.15   68.49
  -6  21  11  509.95   75.89
   6 -21  11  483.05   51.19
  11  -6  21  477.75   49.90
  11   6  21  387.96   68.19
  21 -11  -6  375.46   50.79
   6  21  11  326.67   68.99
  -6  21  13   78.29   47.90
  13  -6  21  145.59   27.90
 -13   6  21  102.59   44.90
   6 -21  13   76.59   25.10
  21 -13   6   80.99   28.40
  21 -13  -6   55.79   25.90
  13   6  21  142.49   55.09
   6  21  13   37.00   53.29
  21 -15   6  105.49   32.40
   6 -21  15   74.89   25.70
  15  -6  21   69.79   26.00
  -6  21  15   83.99   51.89
  21 -15  -6   80.39   30.10
   6  21  15   65.69   53.39
  15   6  21  110.69   53.39
   7 -21   0   25.60   24.40
  21   0  -7   26.00   16.70
  21   0   7   10.10   23.30
   0   7  21   38.40   45.40
  21  -2   7  259.07   36.80
  21   2  -7  240.88   32.50
   7 -21   2  330.17   37.50
  -2   7  21  223.48   54.39
   2   7  21  272.77   56.89
  21  -2  -7  274.87   34.50
   7 -21  -2  281.87   35.70
  21   4  -7  914.81   76.59
   7 -21   4  888.11   81.79
  -4   7  21  903.11  103.59
  -7  21   4  955.50  101.79
  21  -4   7  951.60   83.19
   7  21   4  887.41  104.09
   7 -21  -4  881.51   82.29
   4   7  21  859.11  102.49
  21  -4  -7  862.61   77.99
  21   6  -7  824.62   72.29
  21  -6   7  878.01   79.79
  -6   7  21  897.91  100.29
   7 -21   6  849.72   77.59
  -7  21   6  888.41   98.49
   6   7  21  792.72   98.59
   7  21   6  798.52  101.89
  21  -6  -7  852.51   75.09
  21   8  -7  185.18   24.10
   8  -7  21  164.18   25.70
  -8   7  21  221.08   55.69
  -7  21   8  243.18   57.59
   7 -21   8  145.49   28.50
  21  -8   7  175.78   33.40
  21  -8  -7  268.97   35.80
   7  21   8  251.17   55.19
   8   7  21  233.28   50.69
  21 -10   7  204.08   36.00
  -7  21  10  220.08   53.89
   7 -21  10  253.87   34.20
  10  -7  21  276.87   38.70
 -10   7  21  211.68   51.39
  10   7  21  360.46   63.49
   7  21  10  271.17   59.79
  21 -10  -7  351.56   40.30
  -7  21  12  277.37   62.19
 -12   7  21  213.98   52.49
   7 -21  12  312.67   36.40
  12  -7  21  249.97   34.10
  21 -12   7  212.48   37.20
  12   7  21  206.98   51.69
   7  21  12  208.68   61.19
  21 -12  -7  256.27   34.60
 -14   7  21  193.78   47.90
  -7  21  14  173.98   52.19
   7 -21  14  163.08   30.40
  14  -7  21  220.68   33.00
  21 -14   7  211.28   37.50
  14   7  21  158.38   54.49
   7  21  14  156.28   63.99
  21 -14  -7  136.79   31.20
   8 -21   1   18.00   22.00
  21   1  -8   23.20   15.80
  -1   8  21   -5.10   43.80
  21  -1   8   32.20   26.50
   8 -21  -1   18.00   22.10
  21  -1  -8   25.00   16.30
  21   1   8   19.00   27.00
   1   8  21   19.40   42.40
   8 -21   3  349.67   45.20
  -8  21   3  310.57   54.69
  21  -3   8  377.56   46.90
  -3   8  21  272.27   55.09
  21   3  -8  343.77   35.20
   8  21   3  446.56   66.79
  21  -3  -8  301.97   37.30
   8 -21  -3  361.56   45.90
   3   8  21  299.07   56.79
  -8  21   5  583.94   73.39
  21  -5   8  475.35   58.29
  -5   8  21  442.86   69.49
   8 -21   5  445.66   55.99
   5   8  21  575.44   81.99
  21  -5  -8  601.14   51.69
   8  21   5  635.84   84.69
  21  -7   8  197.58   35.10
  -8  21   7  155.38   50.09
  -7   8  21  176.48   52.09
   8 -21   7  201.78   31.60
  21  -7  -8  275.57   31.00
   8  21   7  313.07   61.59
   7   8  21  265.07   59.99
  -8  21   9  644.84   86.79
   8 -21   9  512.45   57.59
  21  -9   8  603.54   61.29
   9  -8  21  583.04   54.19
  -9   8  21  450.95   69.59
   8  21   9  645.24   82.79
  21  -9  -8  511.75   55.69
   9   8  21  466.35   72.59
   8 -21  11   67.09   25.60
  21 -11   8  106.09   29.50
  -8  21  11   74.69   52.39
  11  -8  21  102.09   24.80
 -11   8  21   72.29   45.70
  21 -11  -8   87.59   25.10
   8  21  11  104.99   58.29
  11   8  21   71.69   48.60
  21 -13   8   69.89   32.80
   8 -21  13   41.10   25.40
  -8  21  13   37.20   45.70
 -13   8  21   60.49   45.60
  13  -8  21   47.40   24.70
  13   8  21   58.09   51.39
  21 -13  -8  105.89   27.30
   8  21  13   79.29   57.49
   8 -21  15  194.08   31.00
  15  -8  21  173.88   32.50
  21 -15   8  154.38   34.30
  -8  21  15  137.09   52.69
  21 -15  -8  163.08   31.50
  15   8  21  241.18   60.49
   8  21  15  100.19   55.79
  21   0  -9   23.70   15.10
   9 -21   0   29.20   25.00
  21   0   9   12.40   27.50
   0   9  21   32.30   43.10
   9 -21   2   26.80   24.20
  21  -2   9   53.99   28.10
  -9  21   2   41.50   40.60
  -2   9  21   24.30   42.80
   9  21   2    8.30   42.20
   2   9  21   43.10   43.60
  21  -2  -9   37.00   16.90
   9 -21  -2   19.30   22.60
   9 -21   4 1175.28   96.69
  -4   9  21 1148.79  116.89
  -9  21   4 1190.28  114.19
   4   9  21  954.40  117.19
  21  -4  -9 1088.69   92.59
   9  21   4 1100.79  116.79
   9 -21  -4 1021.80   96.39
  -9  21   6 2403.86  209.38
  21  -6   9 2494.55  198.48
   9 -21   6 2417.76  196.68
  -6   9  21 2481.35  211.58
   9  21   6 2449.05  212.48
  21  -6  -9 2414.46  194.78
   6   9  21 2185.88  211.98
   8  -9  21  590.84   52.29
   9 -21   8  514.65   58.39
  -9  21   8  477.15   69.29
  21  -8   9  546.55   62.19
  -8   9  21  583.14   76.59
   9  21   8  562.04   78.79
  21  -8  -9  530.05   54.49
   8   9  21  550.34   77.39
  10  -9  21  270.67   31.70
 -10   9  21  215.08   53.49
   9 -21  10  256.17   34.80
  21 -10   9  164.78   34.60
  -9  21  10  240.88   58.49
  10   9  21  153.88   51.59
   9  21  10  219.58   60.19
  21 -10  -9  232.08   31.90
   9 -21  12  321.77   45.70
 -12   9  21  294.17   56.19
  12  -9  21  332.27   42.80
  -9  21  12  209.18   54.29
  21 -12   9  297.77   42.10
   9  21  12  303.27   64.19
  21 -12  -9  358.16   44.40
  12   9  21  344.97   66.99
  14  -9  21  181.98   30.60
  -9  21  14  148.49   53.89
  21 -14   9  130.59   34.90
 -14   9  21  124.39   47.40
   9 -21  14  167.18   30.60
   9  21  14   73.59   52.09
  21 -14  -9  111.49   30.10
  14   9  21  137.89   53.99
  21  -1  10  596.44   61.99
  10 -21   1  548.45   59.49
  -1  10  21  516.35   78.29
  10 -21  -1  633.94   60.19
  10  21   1  542.05   82.79
   1  10  21  416.26   70.49
  21   1  10  640.94   62.99
  -3  10  21  215.68   54.09
 -10  21   3  267.27   53.59
  21  -3  10  280.07   38.50
  10 -21   3  207.18   32.30
  21  -3 -10  250.87   31.00
   3  10  21  183.18   51.69
  10  21   3  177.98   47.90
  10 -21  -3  265.77   35.70
  10 -21   5  143.29   28.70
  -5  10  21  142.69   49.40
 -10  21   5  186.88   48.60
  21  -5  10  151.78   30.50
  10 -21  -5  244.28   33.40
   5  10  21  137.59   49.80
  10  21   5  190.38   49.40
  21  -5 -10  226.98   30.40
  -7  10  21  263.47   56.79
  21  -7  10  277.37   40.00
  10 -21   7  277.47   37.90
 -10  21   7  213.18   50.39
  10  21   7  284.57   58.49
  21  -7 -10  309.37   37.10
   7  10  21  319.67   62.99
  -9  10  21  281.87   59.69
   9 -10  21  231.98   29.80
 -10  21   9  210.48   51.09
  10 -21   9  160.68   32.10
  21  -9  10  244.38   38.10
   9  10  21  320.27   62.39
  10  21   9  313.37   63.89
  21  -9 -10  247.88   31.50
  21 -11  10  190.68   35.90
  10 -21  11  281.47   36.00
 -10  21  11  313.67   58.49
  11 -10  21  310.67   40.60
 -11  10  21  384.86   62.29
  21 -11 -10  228.98   33.50
  11  10  21  244.68   62.49
  10  21  11  262.07   64.29
 -13  10  21  -57.89   41.00
  10 -21  13    0.30   25.40
  21 -13  10   16.60   28.70
  13 -10  21   26.70   24.60
 -10  21  13    4.60   43.20
  10  21  13   44.30   52.09
  21 -13 -10   10.60   26.00
  13  10  21   33.60   53.89
   0  11  21   92.59   51.29
  21   0  11   89.99   30.90
  11 -21   0  106.19   28.90
 -11  21   2  142.79   43.50
  11 -21   2  167.88   30.90
  21  -2  11  232.98   36.80
  -2  11  21  155.18   53.39
   2  11  21  170.38   51.89
  11 -21  -2  165.58   29.10
  11  21   2  203.98   52.39
  11 -21   4   22.20   26.60
  -4  11  21  -12.70   45.30
 -11  21   4  -17.40   35.90
  21  -4  11   10.30   25.60
  11 -21  -4  -13.50   22.40
   4  11  21    5.00   52.69
  11  21   4  -35.70   45.30
 -11  21   6  494.85   71.89
  11 -21   6  446.86   51.89
  21  -6  11  460.15   54.19
  -6  11  21  455.95   68.49
  11 -21  -6  397.96   51.49
  21  -6 -11  400.56   42.40
  11  21   6  307.77   60.49
   6  11  21  322.47   65.99
  -8  11  21   85.19   51.99
  11 -21   8   65.79   27.80
 -11  21   8   99.59   45.80
  21  -8  11   51.59   28.70
  11  21   8   63.29   44.90
   8  11  21  180.58   58.19
  21  -8 -11  122.59   22.80
  21 -10  11  337.97   42.60
 -11  21  10  253.97   52.89
 -10  11  21  255.27   56.29
  11 -21  10  337.67   40.80
  10 -11  21  314.37   39.50
  21 -10 -11  256.77   34.50
  11  21  10  231.28   60.59
  10  11  21  197.38   58.49
  21 -12  11   23.90   30.60
 -12  11  21   -1.10   47.00
  12 -11  21   18.40   23.40
 -11  21  12    5.40   46.50
  11 -21  12   28.70   26.50
  21 -12 -11   28.30   24.60
  12  11  21   32.10   55.29
  11  21  12  -31.40   54.39
 -12  21   1   34.20   38.00
  -1  12  21  -10.30   45.40
  21  -1  12   16.50   27.80
  12 -21   1   32.30   24.80
  21   1  12   21.30   26.70
  12 -21  -1   13.60   23.50
   1  12  21   13.40   53.49
  12  21   1   31.00   44.50
  12 -21   3  130.79   30.10
  -3  12  21   99.99   53.89
 -12  21   3  208.18   46.30
  21  -3  12  134.29   31.60
   3  12  21  182.28   57.69
  12 -21  -3  183.68   30.80
  12  21   3  172.48   49.30
 -12  21   5   -1.70   39.70
  21  -5  12   10.40   26.00
  12 -21   5   37.00   26.70
  -5  12  21   27.40   50.09
  12  21   5   15.00   39.60
  12 -21  -5   38.30   24.80
   5  12  21   71.99   55.79
 -12  21   7  212.38   48.30
  12 -21   7  185.18   32.10
  -7  12  21  222.98   54.89
  21  -7  12  265.17   37.70
  12  21   7  220.08   56.89
   7  12  21  212.98   55.09
  12 -21  -7  181.98   32.60
  21  -7 -12  238.38   28.40
  21  -9  12  252.57   40.40
 -12  21   9  301.37   53.19
   9 -12  21  213.98   32.60
  -9  12  21  241.18   56.79
  12 -21   9  332.57   45.40
  12  21   9  316.97   64.89
  21  -9 -12  289.07   36.90
   9  12  21  320.67   62.09
 -11  12  21   38.90   47.60
 -12  21  11    2.80   43.50
  12 -21  11   48.10   27.70
  21 -11  12   13.30   27.50
  11 -12  21   30.30   23.20
  11  12  21  -22.60   47.90
  21 -11 -12   37.80   23.40
  12  21  11  -19.20   46.40
 -13  21   0   40.00   38.40
  21   0  13   18.50   28.40
  13  21   0    7.10   40.50
  13 -21   0   -5.50   25.00
   0  13  21   18.50   49.60
  -2  13  21   44.60   49.10
  21  -2  13  124.69   31.20
 -13  21   2   85.79   40.50
  13 -21   2  147.99   31.20
   2  13  21  112.19   50.39
  13 -21  -2  151.58   30.70
  21   2  13  141.09   32.00
  13  21   2  239.78   53.99
 -13  21   4   72.09   41.20
  -4  13  21   22.10   52.49
  13 -21   4   31.60   25.60
  21  -4  13    8.50   28.10
  13  21   4   38.30   41.10
   4  13  21   45.80   56.39
  13 -21  -4   66.49   26.90
  -6  13  21   88.29   48.80
  21  -6  13   76.29   30.40
  13 -21   6  129.49   31.50
 -13  21   6   86.99   42.50
  13 -21  -6   85.49   31.90
  13  21   6   66.09   47.10
   6  13  21   61.89   55.89
 -13  21   8   65.69   41.60
  21  -8  13   34.00   31.10
  -8  13  21   35.20   50.49
  13 -21   8   60.29   29.80
  13  21   8   60.29   49.80
   8  13  21  177.68   62.69
  21 -10  13  -35.00   27.60
  13 -21  10   -3.20   25.00
 -13  21  10   11.70   38.80
 -10  13  21   -3.50   48.40
  10 -13  21   33.80   21.20
  13  21  10    9.00   44.50
  10  13  21   36.20   49.80
  14  21  -1  239.78   51.79
  14 -21   1  202.38   33.10
  21  -1  14  249.97   37.50
 -14  21   1  228.38   45.00
  -1  14  21  273.67   62.49
  14 -21  -1  187.68   32.60
  14  21   1  229.68   49.99
   1  14  21  233.48   60.69
 -14  21  -1  249.48   48.90
  21   1  14  189.48   36.90
 -14  21   3    2.30   36.30
  -3  14  21   14.20   54.59
  14 -21   3   18.40   27.90
  21  -3  14   10.60   27.90
  14 -21  -3   17.10   25.70
   3  14  21    6.80   48.50
  14  21   3   45.70   47.30
  14 -21   5   10.50   28.10
  21  -5  14    0.80   25.20
 -14  21   5   31.70   39.80
  -5  14  21   55.59   55.19
  14  21   5   72.99   44.40
  14 -21  -5   87.69   28.50
   5  14  21   55.49   53.49
  14 -21   7  134.59   29.50
  -7  14  21  195.78   56.79
  21  -7  14  196.28   36.10
 -14  21   7  183.18   45.00
  14  21   7  147.19   52.69
  14 -21  -7  146.79   32.10
   7  14  21  137.29   59.49
  21  -9  14  115.49   30.70
  14 -21   9  125.19   31.10
 -14  21   9  150.48   43.30
  -9  14  21   62.39   49.90
  14  21   9   85.49   48.90
   9  14  21   86.79   60.49
  15  21   0  -11.10   39.70
   0  15  21    6.70   52.39
  21   0  15   28.80   30.00
  15 -21   0   23.10   27.60
  15  21  -2   13.00   41.70
  21  -2  15   13.00   30.60
 -15  21   2  142.09   34.20
  -2  15  21   -9.40   54.19
  15 -21   2    5.90   27.10
   2  15  21   -5.30   54.99
 -15  21  -2   49.50   36.70
  15  21   2   34.00   43.00
  15 -21  -2  -21.00   26.00
  21   2  15   27.90   31.00
  -4  15  21  -33.10   50.39
  21  -4  15   34.80   30.70
 -15  21   4   34.10   24.70
  15 -21   4    9.60   28.90
  15  21   4   59.39   44.40
   4  15  21   10.30   51.89
  15 -21  -4   33.70   28.20
  -6  15  21   49.70   57.79
 -15  21   6    4.90   13.50
  15 -21   6   54.09   26.70
  21  -6  15   78.19   29.70
   6  15  21   50.49   58.69
  15  21   6   30.80   43.40
  15 -21  -6   25.00   26.20
  15 -21   8  136.39   31.80
  -8  15  21  201.18   57.79
  21  -8  15  155.98   36.20
   8  15  21  130.79   58.39
  15  21   8  219.88   55.19
  15 -21  -8  191.08   34.40
  -1  16  21   56.39   56.69
  16 -21   1   88.29   31.00
  21  -1  16   36.80   31.60
  16  21  -1   99.19   46.90
  16  21   1   94.59   44.30
 -16  21  -1    3.30   11.90
   1  16  21   74.99   56.59
  16 -21  -1   37.30   27.80
  21   1  16   38.10   28.80
  21  -3  16  141.19   33.40
  -3  16  21  177.18   63.39
  16 -21   3  107.29   29.80
  16  21  -3  162.78   47.90
  21   3  16   72.59   30.50
   3  16  21   91.19   53.79
  16 -21  -3  153.28   33.70
  16  21   3  103.29   45.60
  21  -5  16   74.99   32.40
  16 -21   5   33.30   27.90
  -5  16  21   64.49   55.99
 -16  21   5   19.70   13.50
  16  21   5   81.99   43.30
   5  16  21   49.30   56.69
  16 -21  -5   48.50   26.70
 -17  21   0   -0.30   15.30
   0  17  21   84.49   55.39
  17  21   0   84.69   43.80
  21   0  17   31.20   30.30
  17 -21   0   45.40   29.30
  17 -21   2  164.88   32.60
  17  21  -2  277.97   52.09
  -2  17  21  192.28   56.89
  21  -2  17  216.08   36.80
  17  21   2  151.68   49.70
   2  17  21  101.69   55.89
  17 -21  -2  152.38   33.90
  21   2  17  124.99   36.90
   0   0  22  200.98   53.79
  22   0   0  211.58   31.60
  -2   0  22  -12.20   46.30
   2   0  22    6.80   40.70
  22  -2   0   -7.30   20.60
  22   2   0  -15.80   20.60
   0  22   4  190.48   54.69
   4   0  22  228.68   57.49
  22  -4   0  311.27   36.20
  22   4   0  281.57   40.30
  -4   0  22  277.27   57.69
   6   0  22   55.99   48.10
  -6   0  22   27.40   42.80
   0  22   6   -0.60   48.10
   6   0  22    2.40   16.50
  22  -6   0   10.30   23.00
  -8   0  22  438.56   67.59
   8   0  22  423.66   46.20
   0  22   8  521.95   75.69
  22  -8   0  449.06   51.99
   8   0  22  427.26   66.49
  10   0  22    3.20   20.00
  10   0  22  -14.60   43.30
  22 -10   0   45.90   26.30
 -10   0  22   33.80   42.50
   0  22  10  -17.90   53.89
  22 -12   0  172.38   30.90
   0  22  12  212.08   62.29
 -12   0  22  201.68   50.39
  12   0  22  227.28   53.19
  12   0  22  192.58   29.70
   0  22  14  139.09   59.99
  14   0  22  117.79   27.60
  22 -14   0   89.69   28.70
  14   0  22  170.48   50.89
  22   1  -1   90.19   24.60
  22  -1   1  111.69   27.10
  -1   1  22  129.49   50.09
   1  -1  22  120.19   49.40
   1   1  22  109.19   44.90
  -1  -1  22   87.69   46.10
  22   1   1   68.39   24.40
  22  -1  -1   65.39   22.20
  22   3  -1  139.39   25.70
  -3   1  22  118.89   46.00
  22  -3   1  105.69   23.90
   3  -1  22   70.99   48.50
   3   1  22   60.59   44.30
  -3  -1  22  103.49   49.70
  22   3   1   72.89   24.90
  22  -3  -1   74.09   26.10
  22  -5   1   20.10   26.10
  22   5  -1   16.10   21.10
  -1  22   5    0.20   45.50
  -5   1  22   36.60   46.60
   5  -1  22   16.70   42.40
  -5  -1  22   15.40   42.50
  22  -5  -1   19.30   21.70
   1  22   5   -9.70   43.90
  22   5   1   37.10   25.00
   5   1  22   21.20   46.20
  -1  22   7  174.18   54.29
   7  -1  22  338.07   62.09
  22  -7   1  332.57   44.50
   7  -1  22  305.47   35.60
  -7   1  22  364.66   61.49
  -7  -1  22  211.38   52.09
   1  22   7  208.08   55.19
  22  -7  -1  309.07   37.10
   7   1  22  234.98   53.59
  -1  22   9  380.36   67.89
  -9   1  22  563.64   71.39
   9  -1  22  450.85   68.99
  22  -9   1  500.35   54.69
   9  -1  22  483.75   48.50
  22  -9  -1  502.75   53.09
  -9  -1  22  435.36   63.99
   1  22   9  342.47   66.09
   9   1  22  461.65   69.09
  11  -1  22   12.30   44.20
  22 -11   1    3.50   24.40
  11  -1  22   11.30   21.10
  -1  22  11   12.10   54.59
 -11   1  22   21.00   43.80
  22 -11  -1   10.00   23.70
  11   1  22    3.90   23.10
 -11  -1  22    9.30   42.60
  11   1  22   -0.60   44.60
   1  22  11  -30.70   50.49
  -1  22  13   69.79   62.19
  13  -1  22   70.19   26.20
  13  -1  22   60.29   47.90
 -13   1  22   38.30   43.80
  22 -13   1   53.49   27.60
  22 -13  -1   45.10   25.30
   1  22  13   42.80   58.09
  13   1  22   45.80   45.00
  13   1  22   22.20   25.20
  15  -1  22  157.88   50.79
  22 -15   1  100.49   32.70
  -1  22  15  155.88   69.19
  15  -1  22   65.59   26.50
   1  22  15   61.79   59.59
  22 -15  -1   83.99   29.80
  15   1  22   64.69   27.10
  15   1  22   57.79   44.80
   0   2  22   -8.80   41.40
   0  -2  22  -20.70   40.80
  22   0  -2   14.20   21.70
  22   0   2    9.50   24.30
  22   2  -2   13.10   20.90
   2  -2  22    4.80   45.60
  22  -2   2   -5.00   21.10
  -2   2  22  -24.90   41.40
  22  -2  -2    1.40   20.30
  22   2   2   19.90   24.10
   2   2  22   23.50   43.60
  -2  -2  22   42.80   43.70
   4  -2  22   42.60   44.30
  22   4  -2   78.79   22.90
  -4   2  22   33.20   43.40
  -2  22   4   91.19   54.19
  22  -4   2   91.49   26.10
  22  -4  -2   75.19   24.40
   4   2  22   61.79   44.40
  -4  -2  22   48.10   42.40
   2  22   4  103.79   53.39
  22   4   2   59.49   26.00
  22   6  -2   93.99   23.10
  -2  22   6   92.79   52.39
  -6   2  22   50.39   48.00
   6  -2  22   29.50   43.10
  22  -6   2   40.30   24.50
  22  -6  -2   61.69   23.90
   6   2  22   85.99   46.00
  -6  -2  22   55.79   45.60
   2  22   6   57.79   51.89
  -8   2  22  490.25   66.39
   8  -2  22  426.56   43.90
  -2  22   8  324.87   63.79
   8  -2  22  335.27   60.39
  22  -8   2  423.56   51.39
  22  -8  -2  453.95   49.80
   2  22   8  401.16   68.89
  -8  -2  22  454.85   64.69
   8   2  22  329.07   60.49
  -2  22  10   39.40   48.70
  10  -2  22   16.00   46.60
  22 -10   2   60.99   26.10
  10  -2  22   66.79   21.50
 -10   2  22   83.39   47.30
  10   2  22  102.39   50.99
   2  22  10    8.60   50.69
 -10  -2  22   39.70   44.30
  22 -10  -2   32.20   25.00
  -2  22  12   88.29   59.09
  22 -12   2  120.39   30.50
  12  -2  22   73.29   45.20
  12  -2  22   91.09   25.50
 -12   2  22  101.19   47.30
   2  22  12  106.39   54.89
  12   2  22   95.59   46.00
  22 -12  -2  113.09   29.30
  -2  22  14  142.89   64.29
  22 -14   2  124.19   32.50
  14  -2  22  106.89   27.40
 -14   2  22   76.19   44.10
  14  -2  22   85.99   47.70
   2  22  14   98.79   57.49
  22 -14  -2  217.18   33.20
  14   2  22  148.79   30.70
  14   2  22  216.28   54.29
  -1   3  22  100.39   49.60
  22  -1   3   76.79   24.50
  22   1  -3  119.19   23.40
   1  -3  22   64.49   44.40
  22   1   3   46.30   24.10
  -1  -3  22   47.50   42.90
   1   3  22   50.29   41.90
  22  -1  -3   96.39   22.50
  22  -3   3  387.36   46.50
  -3   3  22  302.47   56.39
  22   3  -3  331.37   41.80
   3  -3  22  258.87   55.99
  -3  -3  22  358.66   61.99
  22  -3  -3  388.86   43.30
   3   3  22  302.97   55.79
  22   3   3  391.06   47.10
  22  -5   3   80.39   26.00
  22   5  -3  137.69   25.00
  -3  22   5  169.88   55.79
  -5   3  22  104.79   48.50
   5  -3  22  141.99   46.30
   5   3  22   80.59   49.70
   3  22   5   95.89   54.69
  22  -5  -3  126.49   26.80
  -5  -3  22  133.09   48.00
  22   7  -3  228.48   29.70
   3 -22   7  185.08   31.00
   7  -3  22  203.58   30.10
   7  -3  22  203.78   53.59
  -3  22   7  187.38   55.49
  -7   3  22  202.08   54.19
  22  -7   3  258.87   35.90
  22  -7  -3  231.38   31.20
   7   3  22  145.79   49.90
   3  22   7  279.47   63.69
  -7  -3  22  257.17   53.79
  -9   3  22  756.02   92.19
   9  -3  22  598.44   90.19
  -3  22   9  627.34   95.59
  22  -9   3  656.43   68.89
   3 -22   9  684.63   67.19
   9  -3  22  620.94   63.69
   9   3  22  762.32   93.29
  -9  -3  22  783.22   91.19
   3  22   9  686.03   99.99
  22  -9  -3  775.32   67.49
  11  -3  22  120.49   51.79
  22 -11   3  106.79   31.40
 -11   3  22  137.49   50.29
  -3  22  11  150.48   57.09
  11  -3  22  133.79   26.40
   3  22  11  142.39   59.09
  11   3  22  155.48   51.39
  22 -11  -3  118.39   26.80
  13  -3  22   47.20   46.50
  13  -3  22   52.49   23.90
  22 -13   3   46.30   27.20
  -3  22  13   83.29   59.39
 -13   3  22   66.79   42.80
   3  22  13  136.09   63.19
  13   3  22   78.99   46.20
  22 -13  -3   97.79   28.50
  22 -15   3   64.49   32.70
  15  -3  22   54.59   25.60
  -3  22  15   92.79   64.09
  22 -15  -3  105.39   31.60
  15   3  22   43.80   46.00
   3  22  15   55.49   65.99
  22   0   4  323.77   42.60
   0   4  22  197.68   53.19
   0  -4  22  171.38   50.09
  22   0  -4  249.28   31.30
   4 -22   2   74.49   27.90
  22  -2   4   56.99   24.10
   2  -4  22   33.70   47.20
  22   2  -4   64.79   20.60
  -2   4  22   42.60   46.50
  -2  -4  22   30.30   42.60
  22  -2  -4  102.79   22.80
  22   2   4   65.99   25.60
   2   4  22   31.90   43.10
  22   4  -4  299.47   38.00
  -4   4  22  251.87   54.19
  22  -4   4  337.67   44.50
  -4  22   4  343.57   64.69
   4 -22   4  353.76   43.50
   4  -4  22  276.27   53.99
  -4  -4  22  196.28   53.09
  22  -4  -4  291.67   39.90
   4   4  22  243.78   56.79
   4  22   4  270.37   58.89
  22   6  -4  608.74   63.29
   4 -22   6  645.34   67.29
   6  -4  22  653.93   89.49
  -6   4  22  651.73   91.89
  22  -6   4  699.73   69.29
  -4  22   6  645.64   92.79
  22  -6  -4  778.72   65.99
  -6  -4  22  756.92   92.59
   4  22   6  720.83   96.09
   6   4  22  797.72   94.09
   4 -22   8  301.17   43.60
  22  -8   4  328.77   41.00
  -4  22   8  185.68   54.59
   8  -4  22  298.87   35.90
   8  -4  22  290.57   58.99
  -8   4  22  318.07   58.89
  22   8  -4  270.57   37.80
   4  22   8  309.87   63.49
   8   4  22  272.87   57.69
  22  -8  -4  314.37   42.20
   4 -22  10  351.86   44.80
  -4  22  10  372.96   67.89
  22  10  -4  355.66   41.60
  22 -10   4  343.77   48.50
 -10   4  22  338.27   59.69
  10  -4  22  359.66   60.59
  10  -4  22  323.47   41.20
  10   4  22  229.98   58.29
   4  22  10  229.38   65.19
  22 -10  -4  319.37   44.60
 -12   4  22   85.19   48.10
  12  -4  22   49.10   23.10
  22 -12   4   77.29   31.00
  -4  22  12   72.89   60.79
   4 -22  12   68.79   25.60
  22 -12  -4   77.19   28.70
   4  22  12   78.19   59.89
  12   4  22   79.39   49.10
 -14   4  22   18.70   39.70
  22 -14   4   30.60   25.90
  14  -4  22   23.40   24.80
  -4  22  14   67.59   57.09
  14   4  22   46.00   50.99
  22 -14  -4   22.10   27.70
   4  22  14   31.80   64.09
  -1   5  22    9.70   41.20
  22   1  -5   17.50   18.90
   5 -22   1   -9.30   23.90
  22  -1   5   42.00   25.30
   1  -5  22   -9.70   44.20
  22   1   5   57.09   26.00
  22  -1  -5    9.70   19.70
   1   5  22   15.70   45.60
  -1  -5  22   47.20   44.10
  -3   5  22  111.89   51.09
  -5  22   3  103.69   50.19
   3  -5  22   84.59   45.90
   5 -22   3   92.49   25.30
  22   3  -5  100.59   21.10
  22  -3   5   85.89   25.90
  22   3   5   82.89   26.30
  -3  -5  22   76.29   49.99
  22  -3  -5  123.99   24.40
   3   5  22  109.99   49.40
   5  22   3   70.99   46.30
   5  -5  22  577.14   78.19
  -5  22   5  444.96   60.59
  -5  -5  22  289.77   60.99
  22  -5  -5  345.87   40.60
   5   5  22  208.48   54.39
   5  22   5  281.17   57.59
  -5  22   7  364.06   65.49
  22   7  -5  479.45   46.10
   5 -22   7  503.25   52.49
  22  -7   5  508.35   55.09
   7  -5  22  403.06   66.59
  -7   5  22  556.24   73.09
  22  -7  -5  342.57   48.30
   7   5  22  455.85   72.29
  -9   5  22  107.49   52.69
   5 -22   9   98.69   26.10
  22  -9   5   79.09   31.20
   9  -5  22   74.39   21.70
   9  -5  22   50.09   49.30
  -5  22   9   46.40   54.39
  22   9  -5   82.09   21.10
   5  22   9   61.09   48.80
   9   5  22  166.68   51.69
  22  -9  -5  126.19   25.20
 -11   5  22  253.67   56.59
  11  -5  22  211.98   30.20
   5 -22  11  180.48   31.50
  -5  22  11  147.39   54.89
  22  11  -5  243.28   29.10
  22 -11   5  160.88   34.10
  22 -11  -5  249.88   33.50
  11   5  22  358.76   61.59
   5  22  11  196.58   58.29
   5 -22  13   29.50   25.20
  22 -13   5   13.60   29.00
 -13   5  22   40.40   44.00
  -5  22  13  -12.10   46.80
  13  -5  22   31.70   22.70
  13   5  22   22.30   51.29
   5  22  13   27.70   54.99
  22 -13  -5   29.80   28.00
   5 -22  15   51.19   24.80
  15  -5  22   39.60   26.80
  22 -15   5   30.30   28.80
  -5  22  15   51.79   54.69
   5  22  15   95.49   66.89
  15   5  22   74.79   50.19
  22 -15  -5   17.40   26.70
  22   0  -6   -1.50   18.10
   0  -6  22   21.00   43.20
   0   6  22   22.50   42.80
   6 -22   0    4.90   24.40
  22   0   6  -16.70   23.80
  22  -2   6   54.59   25.10
   2  -6  22   50.69   49.50
   6 -22   2  101.29   27.80
  -2   6  22   71.79   45.20
  22   2  -6   91.49   20.20
  22   2   6   58.99   25.80
   2   6  22   21.60   48.90
  22  -2  -6   60.99   21.00
  22   4  -6  614.24   59.49
  22  -4   6  637.54   66.49
   4  -6  22  567.54   88.99
  -4   6  22  572.04   89.59
   6 -22   4  659.83   65.59
  -6  22   4  649.24   90.89
   4   6  22  649.54   88.49
  22  -4  -6  726.53   61.69
   6  22   4  815.42   94.49
  -6   6  22 1590.34  157.68
   6 -22   6 1638.24  139.89
  -6  22   6 1676.53  157.98
  22   6  -6 1541.05  136.39
  22  -6   6 1589.64  140.99
   6   6  22 1717.33  157.98
  22  -6  -6 1835.42  138.29
   6  22   6 1872.71  161.78
   8  -6  22  517.35   45.30
  -8   6  22  426.26   66.39
  -6  22   8  334.17   62.69
   6 -22   8  457.35   52.39
  22  -8   6  411.56   55.59
  22   8  -6  457.25   45.30
   6  22   8  443.06   71.19
  22  -8  -6  491.05   50.39
   8   6  22  365.56   63.39
  10  -6  22   64.89   23.70
  22 -10   6   63.59   27.90
  -6  22  10   87.29   54.99
 -10   6  22   62.49   48.20
   6 -22  10   88.69   26.00
  22  10  -6   65.69   19.60
   6  22  10   74.89   53.99
  22 -10  -6  103.59   27.80
  10   6  22  113.39   54.79
  22  12  -6   42.90   30.40
   6 -22  12   54.19   25.10
  22 -12   6   40.10   31.00
  12  -6  22   47.40   25.40
 -12   6  22   15.70   44.70
  -6  22  12   19.80   55.49
  12   6  22   59.79   46.40
  22 -12  -6   95.59   26.40
   6  22  12   36.50   50.79
  14  -6  22  125.29   30.00
  22 -14   6   97.19   30.40
   6 -22  14  165.88   29.20
 -14   6  22  148.39   47.70
  -6  22  14  116.09   56.09
  22 -14  -6  145.09   30.70
   6  22  14   80.79   54.49
  14   6  22  218.48   55.99
  22  -1   7  293.87   38.90
   7 -22   1  307.77   44.10
  -1   7  22  216.48   53.79
  22   1  -7  319.97   34.90
   1   7  22  191.18   58.39
   7 -22  -1  282.67   38.10
  22   1   7  305.67   40.40
  22  -1  -7  283.67   36.00
  22   3  -7  210.28   29.70
  22  -3   7  210.48   35.70
   7 -22   3  216.68   34.30
  -7  22   3  218.68   50.69
  -3   7  22  158.18   55.39
   7  22   3  193.68   57.09
   3   7  22  245.78   58.59
  22  -3  -7  232.38   32.10
   7 -22   5  494.75   52.39
  -7  22   5  434.46   64.29
  22  -5   7  502.35   54.39
  -5   7  22  542.15   73.69
  22   5  -7  509.65   44.00
   7  22   5  275.77   61.99
  22  -5  -7  356.96   46.40
   5   7  22  362.96   64.79
  -7   7  22 1183.18  124.39
   7 -22   7 1193.68  102.79
  -7  22   7 1206.68  124.39
  22  -7   7 1238.58  105.39
  22   7  -7 1135.59   97.49
   7   7  22 1097.19  125.29
  22  -7  -7 1169.28  100.39
  22  -9   7  432.76   56.39
   7 -22   9  485.25   52.69
  -9   7  22  474.75   70.39
  -7  22   9  326.57   64.99
   9  -7  22  445.46   47.40
   9   7  22  448.36   69.49
  22  -9  -7  494.25   51.19
   7  22   9  463.55   71.59
  -7  22  11  176.88   58.39
 -11   7  22  215.88   56.79
  11  -7  22  180.68   31.40
   7 -22  11  222.68   34.00
  22 -11   7  226.58   38.20
   7  22  11  279.47   65.99
  22 -11  -7  277.77   33.40
  11   7  22  203.28   55.69
   7 -22  13   55.89   25.80
 -13   7  22   41.50   45.00
  13  -7  22   36.10   25.50
  22 -13   7   36.50   27.80
  -7  22  13   93.49   59.09
  13   7  22  141.09   56.99
  22 -13  -7   88.09   27.70
   7  22  13   58.09   63.19
  22   0  -8  393.56   42.00
   0   8  22  371.06   65.99
   8 -22   0  466.05   51.49
  22   0   8  439.66   53.09
  22   2  -8  432.06   42.50
   8 -22   2  450.65   52.19
  -8  22   2  397.46   64.99
  -2   8  22  412.36   68.99
  22  -2   8  422.46   53.89
  22  -2  -8  429.46   44.00
  22   2   8  510.65   55.09
   2   8  22  329.27   62.69
   8  22   2  440.26   73.09
   8 -22  -2  452.85   52.89
  -8  22   4  235.38   51.59
   8 -22   4  303.17   38.40
  22  -4   8  233.58   35.80
  -4   8  22  172.48   53.99
  22  -4  -8  303.07   35.60
   4   8  22  327.07   63.49
   8  22   4  271.57   54.79
   8 -22   6  477.25   54.59
  -8  22   6  413.26   69.59
  22  -6   8  484.95   57.79
  -6   8  22  550.64   77.39
   6   8  22  500.25   75.59
   8  22   6  385.96   65.69
  22  -6  -8  520.15   49.99
  -8   8  22  849.32  104.09
   8 -22   8  889.81   77.49
  -8  22   8  883.51  102.19
  22  -8   8  868.81   80.49
  22  -8  -8  771.42   74.49
   8  22   8  671.83  103.89
   8   8  22  744.63  104.39
  10  -8  22  355.96   42.30
  22 -10   8  424.36   53.19
   8 -22  10  387.36   47.90
  -8  22  10  277.67   61.19
 -10   8  22  378.56   64.19
   8  22  10  355.56   70.79
  10   8  22  252.07   59.09
  22 -10  -8  332.17   45.30
  -8  22  12   57.19   54.89
 -12   8  22   37.20   46.00
   8 -22  12   52.09   25.50
  22 -12   8   44.90   27.90
  12  -8  22   65.49   23.90
  22 -12  -8   11.70   25.90
   8  22  12   56.99   54.99
  12   8  22   -0.20   49.60
  22  -1   9  485.95   58.39
   9 -22   1  511.45   54.69
  -1   9  22  476.45   74.19
   9 -22  -1  495.45   54.29
  22  -1  -9  450.35   45.30
  22   1   9  540.25   57.99
   1   9  22  344.27   65.59
  -3   9  22  621.54   94.89
  22  -3   9  696.23   71.89
   9 -22   3  632.24   69.39
  -9  22   3  590.44   90.39
  22  -3  -9  746.13   63.59
   9 -22  -3  794.22   70.79
   9  22   3  774.12   95.09
   3   9  22  717.33   95.39
  -9  22   5   33.30   45.70
   9 -22   5   67.19   25.60
  22  -5   9   68.09   27.50
  -5   9  22   48.80   45.70
   9  22   5   39.20   43.90
  22  -5  -9  106.89   22.20
   5   9  22  122.49   49.40
  -7   9  22  392.06   68.39
   9 -22   7  426.76   54.09
  22  -7   9  461.65   58.59
  -9  22   7  459.05   68.29
   7   9  22  459.75   72.49
  22  -7  -9  527.05   50.19
   9  22   7  503.35   72.49
  -9   9  22  626.84   92.19
   9 -22   9  594.44   64.29
  22  -9   9  562.04   68.19
  -9  22   9  632.94   90.49
  22  -9  -9  638.44   61.19
   9  22   9  740.73   97.89
   9   9  22  722.83   97.19
  22 -11   9  101.49   33.40
  -9  22  11  104.69   52.79
  11  -9  22  106.49   26.10
   9 -22  11  109.89   31.40
 -11   9  22  123.09   52.69
  22 -11  -9  203.18   30.00
  11   9  22  141.39   57.69
   9  22  11  160.08   57.29
  22 -13   9  131.09   34.60
   9 -22  13  253.07   36.30
  13  -9  22  257.77   33.50
 -13   9  22  233.08   54.79
  -9  22  13  149.49   52.39
   9  22  13  159.98   58.19
  13   9  22  201.78   56.79
  22 -13  -9  234.08   33.60
  22   0  10   46.80   29.70
   0  10  22  -12.40   48.90
  10 -22   0    9.60   22.90
  10 -22   2   43.10   26.50
  22  -2  10   74.89   30.60
 -10  22   2  112.99   46.00
  -2  10  22   97.89   50.59
  10 -22  -2   47.90   25.90
  22   2  10   16.60   27.00
  10  22   2   15.40   42.20
   2  10  22   30.10   47.00
  -4  10  22  306.67   59.69
  10 -22   4  376.26   45.90
  22  -4  10  352.06   49.10
 -10  22   4  400.06   59.69
  22  -4 -10  304.87   36.50
  10 -22  -4  233.48   36.90
  10  22   4  278.97   62.09
   4  10  22  299.77   66.89
  -6  10  22   88.89   54.29
  22  -6  10   77.59   29.80
  10 -22   6  111.79   30.10
 -10  22   6   60.79   43.70
  10  22   6   41.50   43.40
  22  -6 -10   92.79   21.50
   6  10  22   63.99   55.29
  -8  10  22  413.56   68.39
  22  -8  10  344.57   45.70
  10 -22   8  419.56   49.00
 -10  22   8  382.16   64.99
  22  -8 -10  336.57   43.00
   8  10  22  316.17   68.19
  10  22   8  295.17   64.49
  10 -22  10   78.39   29.30
  22 -10  10   67.19   31.10
 -10  22  10   51.29   45.20
 -10  10  22   73.69   49.00
  10  22  10   47.60   55.99
  10  10  22   58.19   48.30
  22 -10 -10   51.09   24.00
  12 -10  22   81.99   25.60
 -12  10  22   64.29   50.59
  10 -22  12   71.69   27.30
 -10  22  12  136.19   52.19
  22 -12  10   64.89   33.40
  10  22  12   58.99   50.29
  12  10  22  116.59   55.39
  22 -12 -10   71.99   27.20
  -1  11  22   21.20   47.60
  22  -1  11    7.60   30.40
 -11  22   1  -24.70   40.00
  11 -22   1   10.10   23.70
   1  11  22  -20.00   50.19
  11  22   1   18.90   44.10
  11 -22  -1   11.40   23.80
  22   1  11   10.60   27.50
  -3  11  22   43.40   49.30
  11 -22   3   89.39   29.50
 -11  22   3   66.99   41.70
  22  -3  11   85.19   33.10
  11 -22  -3  147.49   29.90
  11  22   3  107.79   46.40
   3  11  22  220.38   59.59
  11 -22   5  171.98   32.90
  -5  11  22  145.09   54.79
  22  -5  11  230.18   37.20
 -11  22   5  200.98   51.99
  11  22   5  339.67   60.79
   5  11  22  192.48   58.29
  11 -22  -5  237.68   33.50
  -7  11  22  124.99   49.50
  11 -22   7  196.78   33.70
 -11  22   7  165.78   49.70
  22  -7  11  117.59   31.30
   7  11  22  253.77   61.89
  11  22   7  246.98   56.79
  11 -22   9   65.29   27.00
 -11  22   9  110.09   50.19
  22  -9  11  105.59   34.50
  -9  11  22   57.19   51.39
  11  22   9  160.08   53.09
  22  -9 -11  158.08   25.50
   9  11  22  122.69   53.39
 -11  22  11  145.39   49.30
  22 -11  11  111.39   31.90
  11 -22  11  115.99   31.10
  11 -11  22  191.88   28.80
 -11  11  22  210.88   58.19
  11  11  22  178.48   59.29
  11  22  11  179.68   63.49
  22 -11 -11  220.38   30.60
 -12  22   0  219.38   49.00
  12  22   0  152.48   49.40
  12 -22   0  239.28   34.30
   0  12  22  157.38   54.59
  22   0  12  149.69   32.70
 -12  22   2   87.69   41.70
  22  -2  12  145.09   34.20
  12 -22   2  112.49   30.70
  -2  12  22   92.69   53.09
  22   2  12  113.59   34.10
   2  12  22  174.28   58.59
  12 -22  -2  101.79   30.00
  12  22   2  104.59   47.80
 -12  22   4   40.80   44.00
  -4  12  22   60.59   55.39
  22  -4  12   30.40   28.90
  12 -22   4   50.79   29.30
   4  12  22   75.49   52.29
  12 -22  -4   98.59   31.60
  12  22   4   54.49   51.69
 -12  22   6    1.70   42.30
  22  -6  12   26.90   27.40
  12 -22   6   43.20   25.70
  -6  12  22   23.60   48.90
  12 -22  -6   58.99   26.70
   6  12  22   51.29   55.59
  12  22   6   41.20   44.40
  12 -22   8   34.30   25.60
  -8  12  22   18.30   48.70
  22  -8  12   72.29   33.10
 -12  22   8   44.70   45.40
  12  22   8   58.59   52.79
   8  12  22   -9.80   48.30
  22  -8 -12   16.20   23.50
 -12  22  10   37.90   44.40
 -10  12  22  111.09   54.29
  22 -10  12   69.69   32.40
  12 -22  10   81.19   30.00
  12  22  10   39.90   49.30
  22 -10 -12  122.69   25.20
  10  12  22   61.79   57.59
  13 -22   1   43.10   26.00
  22  -1  13   52.39   30.40
  13  22  -1   88.79   52.29
  -1  13  22   42.10   52.39
 -13  22   1   32.70   41.00
   1  13  22   19.40   55.59
  22   1  13   55.39   31.50
  13  22   1   77.19   50.39
  13 -22  -1   37.60   25.50
 -13  22  -1   83.29   42.80
 -13  22   3   76.79   41.80
  13 -22   3   88.29   30.00
  22  -3  13   41.20   27.40
  -3  13  22   59.49   51.09
   3  13  22   91.09   60.59
  13 -22  -3  126.59   33.20
  22   3  13   52.59   31.40
  13  22   3   42.60   45.70
  22  -5  13   11.70   26.70
 -13  22   5   20.40   39.70
  13 -22   5   -3.80   28.80
  -5  13  22    0.90   46.90
  13  22   5   29.30   43.60
   5  13  22   57.19   56.79
  13 -22  -5   27.10   28.90
  22  -7  13   71.19   33.50
  -7  13  22   67.19   51.49
 -13  22   7   43.10   41.60
  13 -22   7   78.89   30.40
   7  13  22   68.49   57.79
  13  22   7   80.59   53.89
  -9  13  22  305.37   64.69
 -13  22   9  177.48   50.19
  22  -9  13  173.48   37.10
  13 -22   9  198.28   35.60
   9  13  22  184.38   58.59
  13  22   9  129.89   52.19
  14  22   0   93.29   47.40
  22   0  14   42.30   29.30
   0  14  22  126.99   60.39
  14 -22   0  115.49   31.70
 -14  22   0   92.99   41.80
  -2  14  22   45.40   51.69
 -14  22   2   72.19   40.30
  14  22  -2  110.49   52.29
  14 -22   2   91.09   30.00
  22  -2  14   79.59   32.70
  14 -22  -2  117.19   30.80
   2  14  22  130.89   55.69
  14  22   2  183.68   50.09
  22   2  14  128.29   33.20
 -14  22  -2  155.78   45.60
  -4  14  22   12.30   54.89
 -14  22   4   59.79   40.50
  22  -4  14   36.60   32.10
  14 -22   4   53.39   31.30
  14 -22  -4   22.20   29.40
  14  22   4   40.40   47.40
   4  14  22   61.49   61.89
  22  -6  14  149.99   36.10
  -6  14  22  103.99   52.39
 -14  22   6  209.08   47.50
  14 -22   6  110.99   29.90
   6  14  22  123.59   62.69
  14  22   6  117.89   49.20
  14 -22  -6  132.39   32.20
 -15  22   1  203.48   38.70
  15 -22   1   78.09   30.10
  15  22  -1   69.39   48.00
  -1  15  22   29.60   61.99
  22  -1  15  100.59   35.00
   1  15  22   53.69   52.19
  22   1  15   41.20   31.80
 -15  22  -1  119.59   39.30
  15  22   1   52.19   44.70
  15 -22  -1   91.69   31.90
  22  -3  15   46.20   29.60
 -15  22   3   37.20   29.50
  15 -22   3   39.90   27.70
  15  22  -3   58.99   46.30
  -3  15  22   80.89   56.89
  15 -22  -3   30.30   26.00
   3  15  22  120.09   56.89
  15  22   3   38.20   46.50
  22   3  15   63.09   33.70
 -15  22  -3   68.99   39.80
  22  -5  15   65.79   29.40
  15 -22   5   35.80   27.30
  -5  15  22   49.50   56.69
  15  22   5   59.49   48.50
   5  15  22   26.90   51.59
  15 -22  -5   42.90   29.50
  -1   0  23   -7.60   45.50
   1   0  23   -4.00   44.40
  23  -1   0  -12.60   21.30
  23   1   0   15.10   22.40
  23  -3   0   39.10   23.40
  -3   0  23   34.50   49.50
   0  23   3   36.60   49.99
   3   0  23   68.79   48.30
  23   3   0   54.99   23.10
   5   0  23   83.89   50.69
  23   5   0  207.98   30.50
  23  -5   0  165.88   29.90
  -5   0  23  193.48   57.49
   0  23   5  143.89   52.49
  -7   0  23  157.28   55.99
   7   0  23  148.49   51.99
   7   0  23  136.29   22.70
  23   7   0  144.79   28.90
  23  -7   0  173.88   31.90
   0  23   7   85.39   50.09
   0  23   9  304.67   64.29
  -9   0  23  403.96   65.69
   9   0  23  338.17   41.60
   9   0  23  352.86   65.59
  23  -9   0  363.36   48.40
   0  23  11  163.08   60.29
  23 -11   0  143.29   31.80
 -11   0  23  191.98   54.89
  11   0  23  192.08   54.39
  11   0  23  195.98   29.20
  13   0  23  -19.90   42.70
   0  23  13   -2.10   57.99
  13   0  23   -6.00   24.40
  23 -13   0   -0.60   24.80
  23   0  -1   -0.80   21.00
   0  -1  23  -28.80   49.00
  23   0   1   -5.90   23.50
   0   1  23    2.10   48.20
  -2   1  23  178.78   55.39
   2  -1  23  114.29   49.60
  23  -2   1  126.09   27.20
  23   2  -1  163.88   27.60
  23   2   1  119.49   27.00
  23  -2  -1  122.99   27.40
   2   1  23   83.49   47.60
  -2  -1  23  150.08   54.09
   4  -1  23   77.19   52.69
  -1  23   4   27.70   52.09
  23   4  -1   39.50   23.80
  -4   1  23   41.50   49.10
  23  -4   1   55.59   24.20
  23   4   1   49.20   25.20
  23  -4  -1   25.80   25.10
  -4  -1  23    7.60   49.10
   4   1  23   -3.70   48.20
   1  23   4   -9.10   47.50
  -1  23   6   30.90   55.59
   6  -1  23  -11.40   50.59
  23  -6   1   -1.90   24.70
  23   6  -1    3.80   23.10
  -6   1  23  -13.60   45.90
   6  -1  23   -2.40    5.40
   1  23   6   17.00   55.89
   6   1  23   18.50   48.90
  -6  -1  23    9.50   44.40
  23   6   1   -2.70   24.30
   6   1  23   55.99   15.70
  23  -6  -1   17.80   25.00
   8  -1  23  153.88   24.20
  -1  23   8  109.99   62.39
  23  -8   1  175.98   32.30
  -8   1  23  111.69   51.49
   8  -1  23  124.39   53.19
  23   8  -1  138.49   28.80
   8   1  23  102.59   49.60
  23  -8  -1  138.19   29.40
   8   1  23  134.59   24.60
  -8  -1  23   96.39   52.59
   1  23   8   84.59   59.29
  10  -1  23   88.09   48.80
 -10   1  23   77.79   48.40
  23 -10   1   84.49   28.40
  10  -1  23  104.69   23.90
  -1  23  10   93.79   63.69
 -10  -1  23   65.59   48.20
  23 -10  -1  113.49   26.80
  10   1  23   84.89   24.10
  10   1  23   91.49   54.19
   1  23  10  120.59   62.29
  -1  23  12   38.60   63.29
 -12   1  23   18.40   46.10
  12  -1  23   41.10   45.30
  23 -12   1   25.60   25.10
  12  -1  23   26.60   23.60
  12   1  23   67.39   24.10
  12   1  23   62.79   46.40
  23 -12  -1   73.89   26.10
   1  23  12   86.49   61.09
  -1  23  14   78.79   64.39
  23 -14   1   91.89   28.80
  14  -1  23   93.49   50.99
  14  -1  23   53.09   25.20
  14   1  23   30.30   47.20
   1  23  14   25.30   55.59
  23 -14  -1   33.20   27.60
  14   1  23   23.80   24.50
  23  -1   2  121.49   26.70
  -1   2  23  116.69   50.79
  23   1  -2  153.48   24.90
   1  -2  23  141.69   54.39
  23   1   2  121.79   26.90
  23  -1  -2  127.79   25.30
  -1  -2  23   64.09   49.60
   1   2  23   95.89   48.30
   3  -2  23  -36.40   49.10
  -2  23   3   -2.70   53.89
  23   3  -2    5.60   21.40
  23  -3   2    4.10   22.40
  -3   2  23   17.10   48.80
   2  23   3  -21.00   49.00
   3   2  23    2.10   45.00
  23   3   2  -12.30   24.50
  23  -3  -2   -9.50   21.00
  -3  -2  23   28.30   47.90
   3   2  23    9.70    5.90
  23  -5   2  373.96   49.20
   5  -2  23  269.37   59.49
  -5   2  23  364.36   67.09
  -2  23   5  339.67   67.59
  23   5  -2  384.16   45.40
  23   5   2  415.16   49.99
   5   2  23  345.27   62.39
  -5  -2  23  290.07   59.69
  23  -5  -2  389.26   47.20
   2  23   5  463.05   71.99
  23  -7   2  333.57   42.20
  -2  23   7  268.77   63.79
   7  -2  23  316.77   64.89
  -7   2  23  325.07   64.99
  23   7  -2  316.47   38.60
  23  -7  -2  415.46   46.70
   7   2  23  353.76   63.39
  -7  -2  23  320.97   59.49
   2  23   7  272.57   61.49
  -2  23   9  195.88   60.49
   9  -2  23  245.98   56.79
  -9   2  23  248.48   58.29
  23   9  -2  231.68   31.10
   9  -2  23  201.28   27.70
  23  -9   2  163.08   31.30
  23  -9  -2  171.68   31.50
   9   2  23  160.38   55.49
  -9  -2  23  127.19   51.49
   2  23   9   81.29   52.79
  23 -11   2  205.88   35.40
 -11   2  23  269.67   57.69
  -2  23  11  255.07   67.09
  11  -2  23  228.68   59.59
  11  -2  23  221.28   30.50
  11   2  23  207.08   31.10
  11   2  23  223.48   57.99
  23 -11  -2  227.98   34.80
   2  23  11  142.39   57.39
  13  -2  23  104.49   26.40
 -13   2  23   94.49   48.40
  -2  23  13  176.28   64.69
  23 -13   2  154.18   33.90
  13  -2  23  109.79   52.39
  13   2  23   42.70   47.60
   2  23  13   90.59   60.49
  23 -13  -2  121.39   30.60
  13   2  23  104.09   26.90
   0  -3  23  -23.40   43.80
  23   0  -3   45.30   21.70
  23   0   3   40.00   27.00
   0   3  23   46.70   52.09
  23  -2   3    7.10   25.80
  -2   3  23   27.00   51.19
  23   2  -3    4.90   20.20
   2  -3  23   -1.60   47.10
   2   3  23  -18.40   44.70
  -2  -3  23   30.60   45.20
  23   2   3    0.20   25.20
  23  -2  -3    8.10   21.40
   4  -3  23  -32.00   42.90
  23  -4   3  -10.60   26.10
  -3  23   4  -17.10   50.79
  -4   3  23   24.40   49.90
  23   4  -3   11.00   22.30
  23  -4  -3   21.40   22.00
  -4  -3  23   31.70   44.50
  23   4   3   34.60   26.30
   3  23   4   16.90   55.19
   4   3  23  -35.10   49.50
  23   6  -3  163.28   25.40
  -3  23   6  119.59   54.09
  23  -6   3  115.89   28.30
   6  -3  23  110.29   47.60
  -6   3  23  116.09   50.19
  -6  -3  23   79.39   53.69
  23  -6  -3   73.39   25.40
   6   3  23  117.19   54.49
   3  23   6   42.90   50.29
   8  -3  23  550.04   48.90
  23   8  -3  553.04   54.39
  -3  23   8  532.35   78.19
  -8   3  23  689.43   88.79
  23  -8   3  619.74   59.79
   8  -3  23  491.75   72.49
   3  23   8  338.47   69.39
   8   3  23  520.65   77.99
  23  -8  -3  479.15   56.19
  -8  -3  23  399.96   68.59
  -3  23  10   60.99   59.19
  23  10  -3   74.69   24.50
 -10   3  23   46.10   47.70
  23 -10   3   71.99   30.90
  10  -3  23   81.59   49.60
  10  -3  23   58.29   21.50
  10   3  23   52.19   46.80
   3  23  10   26.40   52.49
  23 -10  -3   36.00   24.10
  23 -12   3   63.29   28.90
  12  -3  23   71.19   25.60
  12  -3  23   90.59   52.49
 -12   3  23   73.49   49.00
  -3  23  12  113.79   63.89
  23 -12  -3  150.88   30.70
   3  23  12  206.88   65.59
  12   3  23  184.38   53.49
  23 -14   3    6.40   27.20
 -14   3  23    6.60   43.40
  14  -3  23    2.80   23.40
  -3  23  14   24.10   60.19
  14   3  23    0.70   24.20
   3  23  14   58.69   67.09
  14   3  23   21.20   51.49
  23 -14  -3   19.60   30.10
  -1   4  23   10.80   46.90
  23   1  -4   55.39   21.60
   1  -4  23   98.69   48.00
  23  -1   4   33.80   24.30
  -1  -4  23   17.80   45.40
  23   1   4   11.60   26.50
   1   4  23   17.80   50.49
  23  -1  -4   34.80   22.10
  23  -3   4  -16.90   23.40
  23   3  -4    4.00   20.00
   3  -4  23  -21.70   43.40
  -4  23   3   51.59   55.59
  -3   4  23    6.50   50.29
  -3  -4  23  -32.90   47.60
   4  23   3    9.70   46.30
  23   3   4   15.50   25.40
   3   4  23   33.20   50.59
  23  -3  -4   35.30   23.00
  -5   4  23  269.17   59.29
  23   5  -4  284.47   35.20
  -4  23   5  230.28   63.69
   5  -4  23  270.87   59.09
  23  -5   4  296.27   40.50
  -5  -4  23  354.56   64.69
  23  -5  -4  326.57   37.30
   4  23   5  330.87   67.09
   5   4  23  261.77   60.69
  -4  23   7  263.27   63.49
   4 -23   7  257.77   36.00
   7  -4  23  190.38   54.79
  23  -7   4  280.47   38.50
  23   7  -4  266.47   32.60
  -7   4  23  216.78   59.59
   4  23   7  227.58   56.89
   7   4  23  272.97   60.69
  23  -7  -4  309.87   41.00
   4 -23   9    3.90   25.30
  -9   4  23   35.10   49.99
   9  -4  23   21.80   18.50
  23   9  -4    4.90   19.60
  23  -9   4    2.30   25.00
  -4  23   9  -33.20   56.39
   9  -4  23   29.90   48.00
   4  23   9   -3.30   47.80
   9   4  23   10.20   47.90
  23  -9  -4   16.40   22.90
  11  -4  23  146.19   26.90
  -4  23  11  166.78   64.89
  23 -11   4  162.28   34.90
 -11   4  23  144.89   53.29
  23  11  -4  148.19   26.80
   4  23  11  104.69   60.29
  11   4  23  159.38   54.49
  23 -11  -4  197.58   32.60
  23 -13   4  213.48   39.30
  -4  23  13  273.87   69.19
 -13   4  23  226.68   54.29
  13  -4  23  274.17   36.10
  23 -13  -4  288.27   38.60
   4  23  13  338.87   75.59
  13   4  23  347.87   65.89
  23   0   5  164.48   31.00
   0  -5  23  172.78   55.89
  23   0  -5  200.68   27.40
   0   5  23  181.88   53.49
   2  -5  23  420.56   68.39
  23   2  -5  405.86   42.40
  -2   5  23  359.26   64.69
  23  -2   5  366.56   50.69
   5 -23   2  391.06   49.40
   2   5  23  249.08   60.09
  23   2   5  375.36   50.89
  -2  -5  23  332.37   63.19
  23  -2  -5  364.16   43.50
  23  -4   5  215.98   34.10
   4  -5  23  212.58   58.89
  -5  23   4  282.07   60.79
  23   4  -5  269.07   35.40
  -4   5  23  191.98   52.69
   5 -23   4  177.88   32.70
   5  23   4  240.58   55.19
   4   5  23  258.97   59.09
  23  -4  -5  328.47   38.50
  -4  -5  23  237.88   59.89
  23   4   5  302.27   38.40
  -6   5  23  231.68   60.89
   5 -23   6  145.09   30.50
  23  -6   5  233.78   36.00
   6  -5  23  199.28   57.59
  23   6  -5  211.48   27.10
  -5  23   6  244.98   57.49
   5  23   6  214.98   63.29
  23  -6  -5  147.69   27.80
   6   5  23  163.78   55.89
   8  -5  23 1426.56  145.29
  23  -8   5 1473.95  126.09
   5 -23   8 1553.54  124.59
  23   8  -5 1389.06  121.19
  -5  23   8 1379.16  145.99
  -8   5  23 1407.66  146.19
   5  23   8 1438.06  148.39
   8   5  23 1444.76  145.19
  23  -8  -5 1535.25  123.09
  23 -10   5  182.78   34.40
  10  -5  23  241.08   32.00
  -5  23  10  156.08   56.59
  23  10  -5  222.48   30.20
   5 -23  10  258.17   34.80
 -10   5  23  264.17   60.29
  23 -10  -5  321.77   43.90
   5  23  10  242.38   58.89
  10   5  23  385.06   66.79
  23 -12   5  100.09   33.00
  -5  23  12   55.69   51.29
  23  12  -5   69.19   21.40
  12  -5  23   62.69   23.90
   5 -23  12   53.49   26.30
 -12   5  23   44.00   48.10
  12   5  23   56.79   48.50
   5  23  12   77.29   58.69
  23 -12  -5  110.09   30.10
  23  -1   6   13.30   25.30
   1  -6  23   -1.00   46.60
  23   1  -6   -6.40   18.40
   6 -23   1    8.90   26.60
  -1   6  23   15.30   45.40
  23  -1  -6    6.60   19.20
  23   1   6   -4.10   28.50
   1   6  23   28.90   52.29
   6 -23   3  189.78   32.60
   3  -6  23  122.39   50.89
  23   3  -6  128.09   22.60
  -6  23   3  138.79   52.49
  -3   6  23  154.88   58.29
  23  -3   6  135.79   29.20
  23   3   6   81.59   28.80
   6  23   3   70.09   53.69
  23  -3  -6   90.99   23.40
   3   6  23   61.89   54.79
  -5   6  23  240.78   59.09
  23   5  -6  173.68   24.90
  23  -5   6  174.08   33.40
  -6  23   5  165.08   52.09
   6 -23   5  178.38   30.00
   5   6  23  146.99   54.49
  23  -5  -6  155.98   27.40
   6  23   5  135.69   52.49
   7  -6  23    4.40    5.80
  -7   6  23   36.40   53.69
  23  -7   6    7.20   29.80
  23   7  -6   41.50   18.40
  -6  23   7   26.30   51.79
   6 -23   7    9.80   24.50
  23  -7  -6   24.30   23.70
   6  23   7    8.20   49.20
   7   6  23   32.80   51.09
  -6  23   9   36.00   56.59
  -9   6  23   49.30   52.79
  23   9  -6   22.20   18.40
  23  -9   6   13.70   26.90
   6 -23   9   38.40   24.20
  23  -9  -6    3.50   23.50
   6  23   9  -28.80   56.69
   9   6  23   12.90   47.80
  23 -11   6   31.00   30.20
   6 -23  11   -3.40   26.30
 -11   6  23   12.00   49.60
  -6  23  11   50.29   58.99
  11  -6  23   14.80   22.80
  11   6  23   13.30   50.79
   6  23  11  -10.10   55.99
  23 -11  -6    7.40   24.80
  23 -13   6   38.30   30.50
   6 -23  13   43.60   25.90
  -6  23  13   55.69   57.19
 -13   6  23   46.10   45.90
  13  -6  23   68.39   26.50
  23 -13  -6   66.99   28.60
  13   6  23   73.29   56.79
   6  23  13   53.39   52.29
  23   0   7  149.59   33.20
   0   7  23  134.79   57.19
   7 -23   0  136.39   29.10
  23   0  -7  151.38   24.10
  23  -2   7  285.57   41.90
  23   2  -7  277.97   36.10
   7 -23   2  307.67   41.70
  -2   7  23  279.47   64.19
  -7  23   2  258.77   56.19
   7  23   2  368.36   66.49
  23   2   7  405.86   49.99
  23  -2  -7  356.76   38.00
   2   7  23  242.28   58.69
   7 -23   4  291.07   38.90
  -4   7  23  212.38   56.29
  -7  23   4  162.58   53.89
  23   4  -7  234.38   32.10
  23  -4   7  282.57   39.80
  23  -4  -7  283.07   36.30
   4   7  23  305.27   65.59
   7  23   4  216.98   55.39
  -6   7  23   -0.20   52.79
  -7  23   6    1.80   41.00
   7 -23   6   27.80   26.50
  23  -6   7   24.60   29.20
  23   6  -7   21.80   19.30
   7  23   6   40.50   54.59
   6   7  23   59.99   54.39
  23  -6  -7   39.20   21.70
   7 -23   8  765.92   76.69
  23  -8   7  781.82   79.59
  -8   7  23  728.23  104.29
  -7  23   8  666.33  104.39
  23  -8  -7  918.81   75.29
   8   7  23  812.72  105.19
   7  23   8  879.41  108.09
  23 -10   7  130.09   33.90
  -7  23  10   52.89   55.09
 -10   7  23   80.99   53.79
   7 -23  10  109.39   29.00
   7  23  10  177.08   55.59
  23 -10  -7  206.28   29.90
  10   7  23   89.09   50.89
 -12   7  23   25.80   47.20
   7 -23  12   44.40   26.20
  23 -12   7   51.09   30.60
  12  -7  23   10.60   23.50
  -7  23  12   62.09   57.19
   7  23  12    9.90   61.29
  23 -12  -7   44.60   26.70
  12   7  23   25.50   51.79
  -1   8  23  156.68   57.19
  23  -1   8  113.49   29.90
  23   1  -8  147.89   22.00
   8 -23   1   94.49   30.60
   8 -23  -1  157.78   34.10
   1   8  23  115.39   50.39
  23  -1  -8  146.89   23.00
  23   1   8  163.68   34.70
  23  -3   8  573.44   59.89
  -3   8  23  411.36   69.99
  -8  23   3  645.04   86.49
   8 -23   3  615.94   58.89
  23   3   8  556.64   61.79
   8  23   3  414.56   69.79
  23  -3  -8  495.85   50.19
   3   8  23  341.67   69.29
  -5   8  23 1397.86  143.99
   8 -23   5 1384.36  122.19
  -8  23   5 1359.36  140.39
   8  23   5 1513.15  145.29
  23  -5  -8 1457.05  118.99
   5   8  23 1429.96  145.39
  -7   8  23  714.63  105.69
  -8  23   7  747.43  102.19
  23  -7   8  791.92   79.59
   8 -23   7  710.43   76.09
  23  -7  -8  865.11   72.89
   7   8  23  899.11  106.19
  23  -9   8    1.90   30.40
  -9   8  23   59.39   50.29
   8 -23   9   20.80   28.00
   9  -8  23    4.20    6.90
  -8  23   9   27.40   48.90
  23  -9  -8   21.30   24.90
   9   8  23   23.50   54.49
   8  23   9   17.50   53.49
  11  -8  23  113.29   23.90
 -11   8  23   36.50   50.59
  23 -11   8   34.40   28.70
  -8  23  11   24.30   53.99
   8 -23  11   65.89   26.40
  11   8  23   45.00   52.29
  23 -11  -8   46.60   26.20
   8  23  11   61.49   61.89
   0   9  23  307.17   65.99
  23   0   9  401.66   53.89
   9 -23   0  369.66   51.09
  -9  23   2  144.59   48.20
  -2   9  23  149.88   54.59
  23  -2   9  224.68   36.00
   9 -23   2  162.08   30.90
   2   9  23  105.09   51.09
  23   2   9  163.38   36.40
   9  23   2  182.28   59.99
   9 -23  -2  157.78   35.40
  23  -2  -9  165.68   24.30
  -9  23   4   24.40   40.50
  23  -4   9   24.70   30.60
  -4   9  23    1.50   48.70
   9 -23   4   25.30   24.80
   4   9  23   32.20   53.89
  23  -4  -9    5.60   18.80
   9  23   4    6.10   44.60
  -9  23   6   16.60   44.00
  23  -6   9   23.10   30.10
   9 -23   6   21.70   29.30
  -6   9  23   43.30   53.69
  23  -6  -9    8.70   20.70
   9  23   6   -2.40   49.80
   6   9  23  -26.90   53.99
  23  -8   9   13.60   27.60
   9 -23   8   12.00   26.10
   8  -9  23    7.80    6.40
  -8   9  23   25.10   52.99
  -9  23   8   17.70   50.89
  23  -8  -9    2.90   21.30
   8   9  23   11.30   53.59
   9  23   8   26.40   49.00
  -9  23  10  273.87   63.79
 -10   9  23  226.38   56.59
   9 -23  10  224.08   36.40
  23 -10   9  212.18   41.10
  10   9  23  276.17   65.09
   9  23  10  277.37   70.19
  23 -10  -9  336.37   43.00
  23  -1  10   81.09   32.50
 -10  23   1  157.58   54.29
  10 -23   1  110.39   32.80
  -1  10  23   93.99   54.79
  23   1  10  100.69   32.10
  10 -23  -1  111.69   31.40
   1  10  23   76.59   51.19
  10  23   1  112.79   52.59
  -3  10  23   68.19   49.60
  10 -23   3   75.99   28.30
  23  -3  10  106.69   33.00
 -10  23   3   67.99   48.70
  23   3  10   55.19   29.80
  10 -23  -3   54.59   29.00
   3  10  23   37.20   53.89
  10  23   3   65.39   54.29
  10 -23   5  263.07   40.40
 -10  23   5  250.97   60.29
  -5  10  23  170.38   57.29
  23  -5  10  282.77   41.70
   5  10  23  282.47   59.29
  10  23   5  317.77   61.09
  23  -5 -10  340.47   36.80
 -10  23   7  130.79   52.89
  23  -7  10  139.99   37.40
  -7  10  23   95.29   53.19
  10 -23   7  144.19   34.00
  23  -7 -10  224.78   28.10
   7  10  23  160.08   62.79
  10  23   7  140.39   55.49
  23  -9  10  166.78   35.80
  -9  10  23  213.38   60.59
  10 -23   9  135.89   29.90
 -10  23   9   97.89   50.09
   9  10  23  366.36   70.29
  10  23   9  320.57   64.49
  11 -23   0  198.28   35.70
  11  23   0  117.49   53.59
   0  11  23  140.69   59.49
  23   0  11  114.79   32.60
 -11  23   0  174.08   50.69
  -2  11  23  176.98   63.99
 -11  23   2  228.38   50.79
  11 -23   2  149.09   32.10
  23  -2  11  266.57   40.10
  11 -23  -2  239.78   37.20
  23   2  11  201.48   37.70
   2  11  23  231.28   65.39
  11  23   2  234.48   57.39
  11 -23   4  119.49   29.30
 -11  23   4  100.49   44.40
  -4  11  23  180.08   57.99
  23  -4  11  151.48   34.40
  11 -23  -4  175.98   34.00
   4  11  23  151.48   55.59
  11  23   4  192.48   58.59
  11 -23   6   35.50   29.70
  -6  11  23   13.20   54.49
  23  -6  11   19.30   31.90
 -11  23   6    4.50   46.20
  11  23   6   -8.20   46.80
   6  11  23   29.90   49.60
  23  -8  11   84.79   33.80
 -11  23   8   64.09   48.70
  -8  11  23   38.60   50.89
  11 -23   8   48.40   29.00
  11  23   8   44.90   51.19
   8  11  23   -0.40   53.49
  23  -8 -11   37.70   21.30
 -12  23   1   18.90   41.30
  12  23  -1   44.70   51.69
  12 -23   1   27.10   26.10
  -1  12  23   11.80   57.69
  23  -1  12    7.10   27.80
  12  23   1   89.19   53.79
   1  12  23   58.99   51.89
  23   1  12   85.09   34.60
  12 -23  -1   58.09   27.90
  12 -23   3   78.69   30.90
  -3  12  23   94.09   56.19
  23  -3  12   89.19   34.40
 -12  23   3   55.39   41.50
  23   3  12  142.39   36.20
  12 -23  -3  147.99   32.30
  12  23   3  180.88   57.99
   3  12  23   87.79   54.29
  23  -5  12  101.89   34.10
  12 -23   5   60.09   26.80
 -12  23   5   47.80   45.30
  -5  12  23   83.59   55.09
   5  12  23   65.59   54.99
  12 -23  -5   41.10   30.40
  12  23   5   72.09   51.19
  12 -23   7   13.70   27.80
 -12  23   7   42.00   46.10
  -7  12  23  104.29   59.49
  23  -7  12   45.90   33.80
  12  23   7    5.30   45.00
   7  12  23   54.49   55.89
  13  23   0   38.70   44.80
   0  13  23  -10.80   54.69
  13 -23   0   -1.60   28.40
 -13  23   0    3.70   42.70
  23   0  13    0.50   31.20
  -2  13  23  107.19   59.69
 -13  23   2   59.69   44.60
  23  -2  13   51.09   30.10
  13 -23   2   99.89   31.60
  13  23  -2  156.28   53.69
  23   2  13  164.38   37.40
   2  13  23  118.19   65.49
  13 -23  -2  167.58   34.50
  13  23   2   96.29   49.40
  -4  13  23  286.87   64.89
  23  -4  13  199.08   37.00
 -13  23   4  281.67   53.39
  13 -23   4  234.98   36.90
  13  23   4  209.48   51.79
  23   4  13  167.88   37.30
   4  13  23  114.79   57.39
  13 -23  -4  224.18   37.00
  23  -6  13   69.09   31.40
 -13  23   6   66.49   44.70
  -6  13  23   98.89   58.09
  13 -23   6   51.19   29.20
  13  23   6   52.59   49.30
   6  13  23   61.09   52.79
  -1  14  23   78.49   54.09
  14  23  -1  104.49   48.60
 -14  23   1   62.69   40.00
  23  -1  14   51.59   31.10
  14 -23   1   48.10   27.70
  14 -23  -1   25.10   26.20
   1  14  23   36.00   60.49
  23   1  14   43.90   32.70
  14  23   1   62.99   51.19
 -14  23  -1   90.89   41.80
 -14  23   3   35.80   40.90
  14 -23   3   34.30   28.80
  14  23  -3   29.00   49.99
  -3  14  23   -3.50   51.89
  23  -3  14   -0.50   30.80
  23   3  14  -20.40   30.50
  14  23   3   32.80   49.80
   3  14  23   15.20   61.39
  14 -23  -3   -0.10   30.70
   0   0  24   86.29   56.89
  24   0   0  112.39   26.90
  24   2   0   59.69   26.00
   2   0  24    9.80   48.30
  24  -2   0   26.50   23.30
  -2   0  24   41.90   55.29
   4   0  24    5.50   52.89
  24  -4   0    8.90   23.30
  -4   0  24  -24.60   50.89
   0  24   4  -15.80   48.60
  24   4   0   -2.40   25.00
  24   6   0   25.20   26.30
  24  -6   0    5.50   23.80
  -6   0  24   39.60   49.70
   6   0  24    0.90    5.50
   0  24   6   -7.10   51.59
   6   0  24   42.50   53.59
   0  24   8  105.89   62.49
   8   0  24   57.99   50.09
  24   8   0   37.80   26.30
  24  -8   0   39.70   25.60
   8   0  24   45.50   16.00
  -8   0  24   21.50   51.09
  24 -10   0   19.10   24.40
  10   0  24   54.49   53.59
   0  24  10   36.10   59.19
  10   0  24    3.30   20.50
 -10   0  24   12.40   51.49
  12   0  24   21.00   48.70
   0  24  12   53.29   56.29
  24 -12   0   45.80   26.00
  12   0  24   74.79   24.70
  24   1  -1   41.70   23.60
   1  -1  24   59.59   51.39
  -1   1  24   28.70   48.20
  24  -1   1   25.00   23.70
   1   1  24   56.39   52.39
  24  -1  -1  125.99   28.30
  24   1   1  114.49   28.50
  -1  -1  24   69.29   50.59
   3  -1  24   47.00   50.59
  24   3  -1   68.69   25.50
  24  -3   1   58.69   25.20
  -1  24   3   50.59   49.90
  -3   1  24   40.50   53.29
   3   1  24   71.49   52.69
  24  -3  -1   52.99   26.30
  -3  -1  24   69.69   53.29
  24   3   1   53.89   25.10
   1  24   3  -19.00   48.00
  24  -5   1   27.50   24.80
  -1  24   5   10.90   59.39
  -5   1  24   -4.60   53.59
  24   5  -1   21.00   23.80
   5  -1  24    0.70   50.09
  24   5   1    8.30   24.20
   1  24   5   29.40   58.69
  -5  -1  24   29.30   54.89
   5   1  24   23.70    7.60
   5   1  24   19.40   47.10
  24  -5  -1  -17.40   23.90
  24   7  -1  491.45   51.79
  24  -7   1  468.05   55.39
  -7   1  24  489.25   75.09
  -1  24   7  376.26   69.89
   7  -1  24  452.35   69.89
  24  -7  -1  428.16   54.09
  -7  -1  24  423.06   73.09
   7   1  24  410.06   72.69
   1  24   7  297.17   66.49
  24   7   1  538.35   55.79
  24   9  -1   52.89   26.80
  -9   1  24   48.60   51.99
   9  -1  24  112.59   21.40
   9  -1  24   51.29   51.59
  -1  24   9   43.30   51.89
  24  -9   1   38.60   26.00
   9   1  24   46.10   53.99
  24  -9  -1   36.50   25.60
  -9  -1  24   94.59   53.49
   1  24   9   11.10   54.09
   9   1  24   43.30   21.40
  -1  24  11   43.90   58.69
 -11   1  24   42.10   50.09
  11  -1  24   40.50   47.50
  11  -1  24   19.80   22.10
  24 -11   1   53.69   26.90
  11   1  24   48.20   50.39
  11   1  24   14.80   22.10
  24 -11  -1    6.70   25.10
   1  24  11   29.60   64.29
  24   0   2   45.60   27.90
   0   2  24   38.90   53.19
  24   0  -2   51.49   24.20
   0  -2  24    5.10   52.79
  -2   2  24  121.19   55.19
  24   2  -2  153.98   27.90
   2  -2  24   70.69   50.89
  24  -2   2   94.19   29.00
  24  -2  -2  206.78   28.90
  24   2   2  222.58   31.00
   2   2  24   98.69   56.69
  -2  -2  24  146.09   58.09
  24   4  -2   38.30   24.40
   4  -2  24   -6.00   52.79
  -4   2  24    1.90   53.89
  -2  24   4    9.20   57.69
  24  -4   2   10.50   25.10
   2  24   4   47.60   58.59
  24  -4  -2   43.10   24.10
  24   4   2   23.40   26.00
  -4  -2  24   14.10   51.49
   4   2  24   19.50   51.89
  24   6  -2   37.60   24.00
   6  -2  24   23.40   55.09
  -2  24   6   12.50   48.00
  24  -6   2   14.60   25.50
   6  -2  24   -1.60    5.80
  -6   2  24   32.20   49.90
   2  24   6   17.60   48.80
  -6  -2  24   20.80   47.50
  24   6   2    1.40   25.40
   6   2  24   -9.70   49.80
  24  -6  -2   19.50   24.30
   6   2  24   -6.50    5.60
  -8   2  24  108.49   56.49
   8  -2  24   73.49   50.59
  24   8  -2  107.09   27.10
  24  -8   2  103.49   30.20
  -2  24   8   90.69   53.99
  -8  -2  24  116.19   55.49
   8   2  24  169.08   58.49
   2  24   8  109.19   59.89
  24  -8  -2  150.98   29.70
   8   2  24   94.99   23.60
  24 -10   2   35.10   29.20
  10  -2  24  -10.20   49.50
 -10   2  24  -16.50   46.70
  24  10  -2   14.90   25.80
  -2  24  10   13.60   59.99
  10  -2  24   -3.30   20.10
  10   2  24   18.60   22.60
  10   2  24   18.70   48.70
  24 -10  -2   58.69   28.70
   2  24  10   56.99   62.49
  -2  24  12  274.27   73.49
 -12   2  24  198.98   54.69
  12  -2  24  184.58   53.29
  24 -12   2  192.68   36.30
  12  -2  24  176.18   29.00
  12   2  24  117.29   28.50
  12   2  24  144.89   54.39
   2  24  12   98.09   59.59
  24 -12  -2  142.29   32.50
  -1   3  24   22.00   52.69
  24  -1   3   53.59   26.90
   1  -3  24   32.80   53.39
  24   1  -3   76.09   23.80
  24   1   3   48.40   25.90
  -1  -3  24   31.70   48.70
  24  -1  -3   50.09   24.10
   1   3  24   64.99   52.59
  24  -3   3  346.47   39.90
  -3  24   3  284.87   68.39
  -3   3  24  279.17   62.49
  24   3  -3  315.37   39.70
   3  -3  24  255.27   62.69
   3   3  24  190.98   59.49
   3  24   3  160.48   58.99
  24  -3  -3  246.68   33.60
  -3  -3  24  178.08   62.09
  24   3   3  229.88   36.50
  24   5  -3  138.89   26.50
  24  -5   3  166.28   33.10
   5  -3  24  124.89   50.39
  -5   3  24   96.99   51.69
  -3  24   5   76.69   52.69
  24   5   3  105.99   29.50
  -5  -3  24  121.39   55.19
   5   3  24  151.48   58.49
  24  -5  -3   96.39   27.00
   3  24   5   84.19   53.49
  -3  24   7  359.86   70.29
  24   7  -3  540.75   53.89
  -7   3  24  460.75   74.19
  24  -7   3  531.75   59.39
   7  -3  24  543.25   77.39
  -7  -3  24  515.65   76.69
   3  24   7  475.35   77.99
   7   3  24  439.36   74.69
  24  -7  -3  531.45   55.09
  -3  24   9  161.28   63.39
  24  -9   3  196.98   34.80
   9  -3  24  151.08   59.59
  -9   3  24  146.49   58.09
  24   9  -3  211.18   30.90
  24  -9  -3  211.48   32.50
   9   3  24  152.28   54.99
   3  24   9  213.58   67.49
  24  11  -3   20.80   24.40
 -11   3  24   48.20   51.19
  11  -3  24    3.00   21.20
  24 -11   3   41.50   27.10
  -3  24  11  -14.30   58.29
  11  -3  24   28.90   51.19
  11   3  24   50.79   24.00
   3  24  11   84.39   56.09
  24 -11  -3   31.30   24.70
  11   3  24   13.70   51.99
  24   0  -4    9.30   21.30
  24   0   4    1.40   27.60
   0   4  24  -19.50   51.99
   0  -4  24   -3.70   47.50
  24  -2   4    5.40   26.30
  24   2  -4    3.30   21.60
   2  -4  24   15.50   53.79
  -2   4  24   34.90   54.59
   2   4  24    6.30   48.10
   4  24   2   26.50   54.29
  24   2   4   42.60   27.40
  -2  -4  24   11.10   48.50
  24  -2  -4   57.09   23.60
  24  -4   4   74.89   28.40
  -4   4  24   75.89   51.49
  -4  24   4   71.79   57.79
   4  -4  24   47.20   49.99
  24   4  -4  110.79   23.60
  -4  -4  24   40.50   52.29
   4   4  24   95.09   56.99
   4  24   4   96.79   59.29
  24  -4  -4   47.10   24.20
  24   4   4  107.69   29.20
  -6   4  24  238.78   64.49
  -4  24   6  155.58   56.09
  24  -6   4  287.77   39.80
  24   6  -4  303.57   34.00
   6  -4  24  192.48   59.19
  24  -6  -4  254.47   34.40
  24   6   4  370.36   42.70
   6   4  24  321.27   66.69
   4  24   6  162.68   55.29
  -4  24   8   13.50   47.80
  -8   4  24    2.00   49.00
  24  -8   4   80.49   31.20
  24   8  -4   68.09   23.20
   8  -4  24   38.40   56.79
   4  24   8   42.70   59.79
   8   4  24   50.59   50.19
  24  -8  -4   93.29   27.00
  24 -10   4   84.59   33.80
  24  10  -4   91.99   24.80
 -10   4  24  175.58   56.99
  -4  24  10   89.59   55.79
  24 -10  -4  108.39   27.10
  10   4  24  148.69   59.59
   4  24  10  146.79   60.99
  12  -4  24   24.80   22.70
 -12   4  24   16.40   46.40
  -4  24  12   60.29   56.59
  24 -12   4   12.40   29.70
  24  12  -4    5.90   22.40
  24 -12  -4   -3.00   28.20
  12   4  24  -10.00   48.00
   4  24  12   11.60   57.59
  24  -1   5   22.90   28.30
  24   1  -5    7.60   19.90
   1  -5  24   34.90   50.49
  -1   5  24    4.80   51.19
  24  -1  -5   23.00   20.60
   1   5  24   24.80   53.09
  -1  -5  24   -4.20   52.79
  24   1   5    6.20   26.70
   3  -5  24  118.19   53.79
  24   3  -5  134.09   24.20
  -3   5  24  115.69   58.79
  -5  24   3  104.89   50.69
  24  -3   5  137.79   29.10
   5  24   3   67.89   54.19
   3   5  24   30.90   53.69
  24   3   5   76.49   31.70
  24  -3  -5  101.79   25.30
  24   5  -5  236.38   35.20
  24  -5   5  162.28   35.00
  -5   5  24  254.87   61.79
  -5  24   5  249.08   65.29
   5  -5  24  270.37   66.39
   5  24   5  323.47   69.69
  24  -5  -5  285.57   38.90
   5   5  24  292.97   63.89
  24   5   5  293.87   38.90
   7  -5  24  161.98   56.39
   5 -24   7  201.48   33.90
  24  -7   5  135.79   33.00
  -7   5  24  189.28   61.89
  -5  24   7  195.98   62.89
  24   7  -5  192.58   27.60
   5  24   7  158.98   54.69
  24  -7  -5  220.68   30.40
   7   5  24  223.28   60.69
  24   9  -5   24.30   20.20
  -9   5  24   29.70   54.69
  24  -9   5   31.60   29.60
   9  -5  24    8.10    7.00
  -5  24   9   80.59   59.69
   5  24   9   41.20   61.79
  24  -9  -5   50.09   26.70
   9   5  24   27.60   52.19
 -11   5  24   86.39   54.09
  -5  24  11   53.89   58.49
  11  -5  24   93.19   23.80
  24  11  -5   63.89   22.10
  24 -11   5   89.29   33.50
  11   5  24  108.79   58.19
  24 -11  -5  121.99   29.00
   5  24  11   65.59   58.19
  24   0   6   14.00   28.70
   0   6  24   -2.30   55.49
  24   0  -6   -2.30   19.20
  -2   6  24   75.99   57.79
  24  -2   6   18.50   28.10
  -6  24   2   68.39   55.29
  24   2  -6   25.90   19.40
  24   2   6    0.40   29.60
  24  -2  -6    9.50   19.90
   2   6  24   -9.70   49.30
   6  24   2  -22.80   46.40
  -4   6  24  202.98   60.09
   6 -24   4  261.87   38.40
  24  -4   6  222.88   36.60
  -6  24   4  281.07   61.59
  24   4  -6  284.07   35.70
  24   4   6  337.97   42.70
   4   6  24  247.18   66.89
  24  -4  -6  255.27   33.10
   6  24   4  199.98   62.99
  24   6  -6  701.53   65.69
   6 -24   6  778.12   72.89
  -6   6  24  785.02  104.09
  24  -6   6  727.43   74.49
   6  24   6  686.43  103.79
  24  -6  -6  738.93   68.69
   6   6  24  661.73   94.19
   8  -6  24    1.00    6.20
  24   8  -6   15.50   20.40
   6 -24   8   22.00   26.50
  -8   6  24   51.39   50.89
  -6  24   8   33.60   50.69
  24  -8   6   31.20   30.50
  24  -8  -6   10.40   24.50
   8   6  24   25.30   54.09
   6  24   8    6.70   49.90
  24 -10   6  126.99   36.00
 -10   6  24  179.28   58.99
   6 -24  10  150.88   33.80
  -6  24  10   82.69   55.99
  24 -10  -6  223.08   33.10
   6  24  10  197.78   64.99
  10   6  24  183.38   59.89
  24   1  -7  463.85   45.50
   7 -24   1  441.86   55.59
  -1   7  24  529.75   76.89
  24  -1   7  550.84   57.99
   1   7  24  282.17   64.59
  24  -1  -7  410.46   45.60
   7  24   1  319.57   69.69
  24   1   7  448.86   58.09
  -3   7  24  353.36   68.79
  -7  24   3  359.06   66.09
  24   3  -7  492.35   46.80
   7 -24   3  492.55   56.99
  24  -3   7  506.75   58.29
   7  24   3  471.35   75.29
  24   3   7  554.54   60.59
  24  -3  -7  489.65   49.00
   3   7  24  350.26   67.99
  24  -5   7  202.48   37.70
  -7  24   5  139.79   54.89
  -5   7  24  175.78   55.89
   7  24   5  221.88   66.09
  24   5   7  266.07   40.70
  24  -5  -7  272.07   36.50
   5   7  24  236.38   60.59
  -7  24   7  505.15   73.59
  24  -7   7  420.36   55.59
  -7   7  24  392.36   67.29
   7 -24   7  424.76   52.19
  24  -7  -7  369.76   47.80
   7   7  24  254.47   64.49
   7  24   7  256.87   61.19
   7 -24   9  150.98   31.80
  24  -9   7  195.58   39.10
  -7  24   9  179.98   63.39
  -9   7  24  206.08   59.39
   7  24   9  221.98   68.29
   9   7  24  208.68   62.19
  24  -9  -7  219.58   31.50
  24   0  -8   52.09   18.70
   8 -24   0   29.40   26.60
   0   8  24   33.40   51.89
  24   0   8   52.49   32.40
  24  -2   8   93.69   29.90
  -8  24   2   80.79   49.90
  -2   8  24  140.99   53.49
   8 -24   2  125.69   33.30
   8  24   2  121.79   59.99
  24   2   8  117.19   34.10
   2   8  24   90.19   53.49
  24  -2  -8  129.49   23.00
  -4   8  24   38.70   53.79
  24  -4   8   61.79   29.10
  -8  24   4   27.00   47.40
   8 -24   4   53.29   29.60
   4   8  24   16.20   54.99
  24   4   8   43.50   33.50
   8  24   4   66.99   53.29
  24  -4  -8   68.39   21.90
  24  -6   8   38.10   30.30
   8 -24   6    0.60   29.40
  -6   8  24   67.99   56.39
  -8  24   6  106.19   54.09
   8  24   6   -9.20   45.20
  24  -6  -8  -24.50   21.30
   6   8  24   22.60   55.29
  -8   8  24  398.06   70.39
  24  -8   8  220.28   38.20
   8 -24   8  223.08   34.80
  -8  24   8  309.47   68.09
  24  -8  -8  289.97   35.40
   8   8  24  188.48   57.09
   8  24   8  265.47   69.29
  24  -1   9   46.60   28.10
   9 -24   1   32.20   26.60
  -1   9  24   68.59   58.79
  -9  24   1   36.20   54.99
   9 -24  -1   28.70   29.70
   9  24   1   30.10   49.60
   1   9  24   10.70   50.29
  24   1   9   79.59   32.80
  -3   9  24   83.69   54.69
  24  -3   9  215.68   37.50
   9 -24   3  127.69   31.60
  -9  24   3  143.69   49.40
   3   9  24  167.08   57.99
  24   3   9  173.88   36.40
  24  -3  -9  212.68   26.10
   9  24   3  111.19   51.69
  24  -5   9   -0.30   30.70
   9 -24   5   12.80   28.00
  -9  24   5   19.90   46.10
  -5   9  24   42.10   50.09
   9  24   5   28.40   50.59
  24  -5  -9   48.00   21.30
  24   5   9   44.30   33.30
   5   9  24    8.80   53.79
  -7   9  24  119.79   59.49
  -9  24   7  180.18   56.49
  24  -7   9  197.68   39.50
   9 -24   7  195.58   36.20
   9  24   7  246.58   66.69
   7   9  24  186.38   60.59
  24  -7  -9  260.77   31.90
  -9  24   9   19.80   49.10
   9  24   9  120.89   52.09
  10  24   0    9.20   44.90
 -10  24   0   19.40   45.10
  24   0  10    7.50   31.10
  10 -24   0    6.00   28.10
   0  10  24   19.20   59.29
  10 -24   2    4.90   29.00
  -2  10  24   32.60   57.79
 -10  24   2  -20.20   47.60
  24  -2  10   14.00   31.50
  24   2  10   31.80   29.90
  10  24   2   44.50   49.60
  10 -24  -2   32.20   29.10
   2  10  24   33.90   54.49
  10 -24   4  102.09   32.70
  24  -4  10   61.49   33.70
  -4  10  24  104.09   54.29
 -10  24   4  115.29   50.89
  24   4  10  186.98   39.60
  10  24   4  118.89   53.29
   4  10  24  212.68   67.19
  24  -6  10   54.39   32.20
  -6  10  24  212.68   63.79
  10 -24   6  114.19   31.10
 -10  24   6  127.79   52.69
   6  10  24  125.69   62.59
  24  -6 -10  203.18   26.00
  10  24   6  104.59   49.50
  -1  11  24   35.30   53.89
  11  24  -1   36.20   50.79
  11 -24   1   19.80   26.80
 -11  24   1  100.89   51.09
  24  -1  11   16.70   28.90
  24   1  11   40.20   32.60
  11  24   1   24.00   48.20
  11 -24  -1   15.20   26.70
   1  11  24   12.80   58.49
 -11  24   3   45.80   42.50
  24  -3  11    1.80   31.70
  11 -24   3   16.40   26.00
  -3  11  24   16.40   60.19
  11 -24  -3   45.20   29.50
  24   3  11   62.29   31.70
   3  11  24   99.09   60.19
  11  24   3   57.49   52.49
  -5  11  24   37.30   60.39
 -11  24   5   22.00   46.40
  11 -24   5   21.90   29.50
  24  -5  11   47.90   28.80
   5  11  24   66.49   61.09
  11  24   5   92.89   52.59
  12 -24   0   65.39   30.40
  24   0  12  100.99   37.20
  12  24   0   66.09   49.20
 -12  24   0   45.90   47.60
   0  12  24   91.99   62.09
  24  -2  12  145.19   35.40
  12 -24   2  117.49   31.70
  -2  12  24  179.88   61.09
 -12  24   2  128.09   45.60
  12  24  -2  219.98   60.49
  12  24   2  162.08   52.79
  12 -24  -2  144.19   35.50
  24   2  12  159.48   38.90
   2  12  24   90.49   54.89
  24  -4  12   15.30   31.70
  -4  12  24   61.99   53.99
  12 -24   4   14.80   26.00
 -12  24   4   50.39   45.40
  24   4  12    7.30   30.50
   4  12  24    7.00   62.29
  12  24   4   35.20   49.20
  25   1   0   33.40   24.20
  25  -1   0    2.10   26.70
   1   0  25    1.40   55.09
  -1   0  25  -10.70   50.49
  -3   0  25  229.88   64.39
  25  -3   0  256.07   35.00
   3   0  25  186.88   62.49
   0  25   3  257.87   67.49
  25   3   0  235.88   34.60
   0  25   5   22.30   50.69
  25  -5   0   33.80   26.30
  25   5   0   17.80   25.60
   5   0  25   23.30   51.99
  -5   0  25   -3.60   55.49
  -7   0  25   28.30   54.59
   7   0  25   82.69   54.89
  25  -7   0   10.60   27.90
  25   7   0   40.30   25.80
   0  25   7   16.20   58.29
  -9   0  25   43.20   53.49
  25   9   0   13.30   26.40
   0  25   9   31.50   56.09
   9   0  25   46.60   53.19
  25  -9   0   38.30   29.90
   0   1  25   38.00   54.39
   0  -1  25   54.79   57.49
  25   0  -1   35.00   24.30
  25   0   1   56.09   26.70
  -1  25   2    9.70   58.29
  25  -2   1   59.99   27.00
  25   2  -1   29.00   23.80
  -2   1  25   35.50   54.19
   2  -1  25   51.89   50.79
  25   2   1    6.10   27.20
  -2  -1  25  -16.30   55.89
   2   1  25    4.40   55.69
   1  25   2  -10.90   54.89
  25  -2  -1    9.90   25.90
  25  -4   1   85.89   27.50
  -4   1  25  154.78   63.29
  -1  25   4   40.90   54.89
  25   4  -1  125.09   27.30
   4  -1  25   63.89   57.09
  -4  -1  25  124.29   57.69
  25  -4  -1   65.59   28.00
   1  25   4   54.89   54.29
   4   1  25   52.29   55.49
  25   4   1   64.69   29.90
  25  -6   1  169.78   32.20
  -1  25   6  150.28   57.69
   6  -1  25  108.09   58.49
  -6   1  25   79.29   54.29
  25   6  -1  158.58   29.70
  25  -6  -1   99.89   28.60
   6   1  25  134.99   58.89
  25   6   1  135.59   29.30
   1  25   6   85.69   54.49
  -6  -1  25  138.59   57.39
   8  -1  25   95.59   51.89
  25   8  -1  102.69   27.60
  -8   1  25  114.49   57.39
  -1  25   8   82.79   60.39
  25  -8   1  123.99   32.60
  -8  -1  25   16.40   51.69
   1  25   8   15.30   60.69
  25  -8  -1   29.60   27.00
  25   8   1   45.20   28.10
   8   1  25   20.30   57.29
 -10   1  25   19.20   52.59
  10  -1  25   66.19   55.39
  25 -10   1   57.29   30.90
  -1  25  10   32.10   65.09
  25  10  -1   62.79   29.20
  25 -10  -1   50.69   30.00
  10   1  25   69.89   52.99
   1  25  10   46.20   61.29
  10   1  25   52.09   22.30
   1  -2  25   17.20   50.69
  -1   2  25   21.60   57.59
  25   1  -2   43.90   24.10
  25  -1   2   66.19   28.30
  25  -1  -2    8.00   25.10
  -1  -2  25  -17.10   51.29
   1   2  25   32.30   53.69
  25   1   2   17.30   27.00
  25   3  -2   28.40   23.70
  -2  25   3   33.10   50.39
  25  -3   2   41.80   28.30
  -3   2  25   66.39   55.59
   3  -2  25   46.10   50.49
  25   3   2   67.19   27.70
   3   2  25   25.60   53.39
   2  25   3   19.00   51.19
  25  -3  -2   33.60   25.10
  -3  -2  25   64.79   55.39
  -5   2  25    2.30   51.49
  25  -5   2   43.60   26.30
   5  -2  25   44.50   53.49
  25   5  -2   59.69   25.50
  -2  25   5   98.19   57.69
  25   5   2   59.09   30.00
   2  25   5   49.99   56.39
  25  -5  -2   67.29   26.70
   5   2  25   32.80   57.29
  -5  -2  25   84.89   57.49
  -2  25   7   56.59   57.19
   7  -2  25   16.40   48.40
  25  -7   2   54.29   27.50
  -7   2  25   50.79   54.79
  25   7  -2   48.40   26.10
  -7  -2  25   40.10   55.09
  25   7   2   17.50   28.40
   7   2  25   25.60   53.99
   2  25   7   10.10   60.69
  25  -7  -2   28.90   26.80
  -2  25   9   33.90   63.69
  -9   2  25  -28.30   52.39
  25  -9   2   -0.10   28.60
   9  -2  25   28.60   48.80
  25   9  -2   23.60   25.60
   9   2  25   29.10   52.99
  25  -9  -2    3.90   24.30
   2  25   9    4.40   53.49
  25   0  -3  244.18   33.70
  25   0   3  283.67   39.20
   0   3  25  202.68   66.09
   0  -3  25  263.77   67.09
  -3  25   2   31.70   54.49
  25  -2   3   28.20   25.90
   2  -3  25   30.50   49.70
  25   2  -3   26.40   23.30
  -2   3  25   61.59   59.49
  -2  -3  25   59.89   58.69
   3  25   2   50.89   60.99
  25   2   3   53.79   28.10
   2   3  25   41.90   52.09
  25  -2  -3   48.80   25.20
   4  -3  25  105.59   58.79
  -4   3  25   53.79   55.49
  25  -4   3  113.29   33.90
  -3  25   4  177.68   65.49
  25   4  -3  128.49   26.80
   4   3  25  162.18   61.99
  -4  -3  25  151.68   60.09
   3  25   4  177.08   67.59
  25   4   3  168.88   33.50
  25  -4  -3  154.68   28.40
   6  -3  25  283.37   66.49
  -6   3  25  236.18   66.59
  -3  25   6  166.88   57.79
  25   6  -3  246.98   35.00
  25  -6   3  222.58   39.90
  25   6   3  370.46   50.59
  25  -6  -3  343.17   43.40
   3  25   6  256.17   64.99
   6   3  25  337.97   68.69
  -6  -3  25  295.37   65.09
  -8   3  25   39.20   52.79
  25  -8   3   26.60   29.20
  25   8  -3   35.60   25.10
   8  -3  25   29.90   49.90
  -3  25   8   28.50   64.59
   8  -3  25   -0.60    6.30
   8   3  25   12.30   49.00
   3  25   8    7.40   56.09
  25  -8  -3   12.80   24.60
  25   8   3   12.30   29.00
 -10   3  25   73.89   55.19
  25 -10   3   76.79   31.80
  25  10  -3   85.09   26.80
  -3  25  10  137.89   64.19
  10  -3  25  112.79   58.19
  10   3  25  114.69   61.09
  10   3  25   90.99   25.00
  25 -10  -3  135.69   31.00
   3  25  10   85.19   63.99
   1  -4  25  130.39   58.59
  25   1  -4  116.69   25.40
  -1   4  25  103.39   59.29
  25  -1   4   91.09   29.40
   1   4  25   73.09   58.09
  -1  -4  25   63.59   53.49
  25   1   4   76.99   32.50
  25  -1  -4   84.89   25.00
  25   3  -4  114.49   26.10
  -3   4  25   99.69   59.99
  -4  25   3   76.89   54.19
  25  -3   4  153.78   33.30
   3  -4  25   48.90   56.69
  25   3   4  150.38   34.80
   4  25   3   94.79   53.89
  -3  -4  25  110.29   60.19
   3   4  25  119.99   60.49
  25  -3  -4  201.38   30.10
   5  -4  25  139.49   56.79
  -5   4  25  120.29   58.09
  25  -5   4  144.79   31.60
  -4  25   5   74.29   57.59
  25   5  -4  114.39   25.50
   4  25   5  163.38   59.09
  25  -5  -4  134.89   27.30
   5   4  25  122.79   59.69
  25   5   4  133.49   32.40
  -7   4  25  373.46   70.99
   7  -4  25  304.67   63.99
  25   7  -4  388.76   41.50
  25  -7   4  418.06   51.79
  -4  25   7  315.97   66.59
   7   4  25  233.08   66.89
  25   7   4  247.18   43.80
   4  25   7  246.38   72.89
  25  -7  -4  233.68   36.60
  -4  25   9   93.59   68.09
  25   9  -4   39.40   24.00
  25  -9   4   25.80   27.50
  -9   4  25   49.50   57.39
   4  25   9   31.20   54.39
  25  -9  -4   55.39   26.20
   9   4  25   51.09   54.29
  25   0   5   13.80   26.70
  25   0  -5    7.80   21.70
   0   5  25   44.80   59.09
   0  -5  25  -26.60   54.59
   2  -5  25   38.10   57.59
  25   2  -5   55.19   22.20
  -2   5  25   56.19   59.99
  25  -2   5   62.89   31.60
  -5  25   2   84.99   62.69
  25   2   5   61.59   29.30
   5  25   2   20.50   50.79
   2   5  25   70.09   54.79
  25  -2  -5   78.39   24.00
  -5  25   4  151.58   56.99
  -4   5  25   88.29   58.19
  25   4  -5  145.29   25.20
   4  -5  25  149.19   62.09
  25  -4   5  112.29   30.30
  25   4   5  130.39   31.40
  25  -4  -5  129.19   26.10
   5  25   4   63.59   53.89
   4   5  25  146.59   63.29
  25  -6   5   17.40   27.90
  25   6  -5   18.00   20.10
  -5  25   6    5.10   54.99
  -6   5  25   34.80   57.09
   6   5  25   12.40   60.69
   5  25   6   20.80   49.50
  25  -6  -5   32.80   23.70
  25   6   5    2.70   30.40
  -5  25   8   18.10   51.59
  25  -8   5   10.60   29.50
  -8   5  25   52.39   53.49
  25   8  -5   16.80   20.20
  25  -8  -5   86.79   26.20
   8   5  25   82.99   56.89
   5  25   8   61.89   61.79
  25  -1   6  167.48   33.10
  -1   6  25  197.78   63.19
  25   1  -6  149.69   25.50
  -6  25   1  144.29   63.09
  25  -1  -6  144.59   26.00
  25   1   6  191.38   37.10
   6  25   1   87.29   52.09
   1   6  25   93.39   52.79
  -6  25   3  245.48   66.49
  25   3  -6  228.38   31.20
  -3   6  25  162.78   59.99
  25  -3   6  212.78   39.50
  25   3   6  358.66   43.40
   3   6  25  244.28   58.79
  25  -3  -6  329.57   39.10
   6  25   3  314.67   64.49
  -6  25   5   44.80   47.70
  25   5  -6   16.30   19.20
  -5   6  25   -1.00   51.89
  25  -5   6    1.60   27.50
  25   5   6   31.50   31.00
   5   6  25   14.40   55.79
   6  25   5   31.10   52.39
  25  -5  -6   40.20   24.10
  -6  25   7  363.46   69.69
  -7   6  25  328.57   65.39
  25  -7   6  246.58   39.80
   7   6  25  278.57   63.39
  25  -7  -6  361.36   44.00
   6  25   7  181.58   57.79
  25   0   7    2.40   32.30
   0   7  25   28.20   51.39
  25   0  -7   44.70   20.00
  25   2  -7   34.90   19.30
  25  -2   7   34.50   29.00
  -7  25   2  104.49   58.59
  -2   7  25   18.00   50.59
   7  25   2   50.49   50.09
  25  -2  -7   24.30   20.30
   2   7  25   18.30   55.19
  25   2   7    7.80   32.80
  -7  25   4  243.68   55.29
  25  -4   7  394.06   51.19
  -4   7  25  383.36   68.49
   7 -25   4  403.06   49.40
  25   4   7  238.48   40.90
   4   7  25  121.99   58.59
   7  25   4  134.39   56.49
  25  -4  -7  234.58   32.50
  25  -6   7  269.67   42.60
  -7  25   6  318.77   71.09
   7 -25   6  335.57   42.90
  -6   7  25  287.77   67.69
  25  -6  -7  328.37   43.70
  25   6   7  423.56   48.80
   6   7  25  232.78   62.49
   7  25   6  149.88   57.69
  -7  25   8  -36.90   54.79
   7  25   8   72.49   59.89
  25  -1   8  111.39   34.10
  -8  25   1   60.89   52.39
  -1   8  25   37.20   60.59
   1   8  25   36.80   54.99
  25  -1  -8   40.70   19.40
  25   1   8   52.39   34.80
   8  25   1   51.79   58.89
  -3   8  25   31.00   55.29
  -8  25   3   25.80   47.50
  25  -3   8   22.00   27.60
   8 -25   3   31.80   31.40
   3   8  25   -4.20   51.99
  25   3   8   25.90   31.70
   8  25   3   26.70   53.49
  25  -3  -8  -13.90   19.40
  -8  25   5   57.29   53.49
  25  -5   8    5.60   31.40
   8 -25   5   17.40   28.20
  -5   8  25   15.70   53.09
   5   8  25   50.19   62.19
  25  -5  -8   81.39   24.20
  25   5   8   90.19   35.80
   8  25   5  114.19   53.69
  -8  25   7   -1.20   56.39
   8  25   7  202.08   62.59
   9  25   0   61.49   51.29
   0   9  25   -8.70   56.39
  25   0   9   43.10   32.90
  -9  25   0   44.60   53.39
  25  -2   9   28.70   27.80
   9 -25   2   26.40   28.80
  -2   9  25   57.19   54.69
  -9  25   2   72.79   55.89
   9  25   2   74.79   54.19
  25   2   9   26.80   33.10
   2   9  25    0.30   51.99
  -4   9  25   72.49   58.89
  25  -4   9   48.60   33.70
   9 -25   4   56.49   28.10
  -9  25   4   39.40   44.70
   4   9  25   20.80   58.19
   9  25   4   61.39   58.79
  25   4   9  109.39   36.60
  25  -4  -9   66.49   21.40
  -1  10  25   17.60   55.69
  10  25  -1   41.40   50.59
  10 -25   1   56.79   32.80
 -10  25   1   58.99   48.40
  25  -1  10   31.80   31.00
  10  25   1   49.50   57.19
   1  10  25   50.49   59.29
  25   1  10   51.39   31.30
 -10  25   3   74.49   51.19
  10 -25   3   64.39   32.70
  25  -3  10   83.69   35.50
  -3  10  25   69.49   56.89
  10  25   3  158.98   57.89
   3  10  25  116.29   63.89
  25   3  10  114.89   37.00
   0   0  26   68.49   58.39
  26   0   0   29.20   28.00
  26   2   0    2.60   27.10
   0  26   2   52.29   65.69
   2   0  26   49.90   58.89
  26  -2   0   19.60   27.20
  -2   0  26   -5.80   56.19
  26   4   0    5.50   27.00
   0  26   4   52.79   63.09
   4   0  26   22.80   58.09
  26  -4   0  -18.40   25.80
  -4   0  26  -13.90   57.89
   0  26   6  302.27   73.89
   6   0  26  142.19   63.79
  -6   0  26  144.19   59.89
  26   6   0  226.08   36.20
  26  -6   0  264.67   37.80
  -1   1  26  123.19   62.69
  26   1  -1  103.19   28.90
  26  -1   1   79.29   28.50
   1  -1  26   84.99   57.89
  -1  -1  26   96.49   57.39
   1   1  26  135.99   61.29
  26  -1  -1  171.38   31.30
  26   1   1  159.18   30.60
  -3   1  26   24.60   56.29
  -1  26   3    0.00   63.29
  26  -3   1   24.40   28.40
   3  -1  26   31.30   53.19
  26   3  -1   27.30   26.60
  -3  -1  26   42.90   57.59
   1  26   3  -27.90   61.99
  26   3   1   27.20   26.90
   3   1  26  -30.80   55.39
  26  -3  -1    6.60   26.20
  -1  26   5   26.30   63.49
  26  -5   1   60.69   28.30
  26   5  -1   45.30   26.50
  -5   1  26   58.99   55.89
   5  -1  26   21.70   54.09
  26   5   1   46.40   30.00
   5   1  26   30.00   58.99
  26  -5  -1   46.60   27.30
  -5  -1  26   27.20   57.99
   1  26   5   54.19   64.59
  -1  26   7   60.99   59.69
  26   7  -1  113.99   30.70
   7  -1  26   92.09   54.29
  -7   1  26  136.09   59.19
  26  -7   1  166.28   34.80
  -7  -1  26  109.69   60.99
  26   7   1  158.48   33.20
   1  26   7  156.48   64.59
   7   1  26  119.09   62.09
  26  -7  -1  164.88   32.20
  26   0  -2   -3.40   25.20
  26   0   2    2.50   29.10
   0  -2  26   21.30   57.59
   0   2  26   70.39   60.49
  -2   2  26  158.38   66.69
  -2  26   2  211.18   67.09
   2  -2  26  143.89   58.39
  26  -2   2  196.48   35.60
  26   2  -2  260.47   35.00
   2   2  26  126.69   59.09
  26  -2  -2  231.18   34.50
   2  26   2  167.68   60.69
  26   2   2  271.87   39.40
  -2  -2  26  293.57   66.69
  26  -4   2  170.88   34.80
  26   4  -2  172.98   31.20
   4  -2  26  174.48   62.29
  -4   2  26  135.89   59.79
  -2  26   4  194.98   65.09
   2  26   4  250.57   66.19
  26  -4  -2  220.98   32.40
  26   4   2  230.28   36.00
  -4  -2  26  214.68   61.69
   4   2  26  168.28   64.89
   6  -2  26  236.08   63.79
  -6   2  26  357.46   72.59
  -2  26   6  190.78   57.99
  26  -6   2  281.57   37.30
   2  26   6  233.08   62.09
  26   6   2  224.78   39.50
  26  -6  -2  203.48   36.30
  -6  -2  26  177.88   66.59
   6   2  26  163.98   66.09
  26   1  -3   -2.10   23.90
   1  -3  26   10.00   51.59
  -1   3  26  -17.70   58.19
  26  -1   3    0.60   29.70
  -3  26   1   -7.30   56.89
  26   1   3   14.30   29.80
   3  26   1  -11.50   62.09
  26  -1  -3   12.70   24.50
   1   3  26    9.20   58.99
  -1  -3  26   21.50   58.09
  26  -3   3   14.30   27.20
  -3   3  26  -37.60   58.29
   3  -3  26  -30.40   50.49
  26   3  -3   11.10   25.00
  -3  26   3   -1.40   52.99
  -3  -3  26   18.00   53.19
  26  -3  -3    6.00   24.50
  26   3   3   16.60   30.70
   3  26   3   55.99   58.89
   3   3  26   20.50   59.39
  26  -5   3   45.90   31.80
   5  -3  26   20.50   59.69
  -3  26   5   30.40   57.99
  26   5  -3   45.20   24.90
  -5   3  26   24.50   57.99
  26  -5  -3   15.10   25.10
   5   3  26   38.60   56.39
  26   5   3   45.90   30.10
   3  26   5  -10.60   55.39
  -5  -3  26    8.10   54.49
  26   7  -3   59.69   25.40
   7  -3  26   38.50   55.59
  26  -7   3   39.20   29.00
  -7   3  26   41.40   60.19
  -3  26   7   88.79   64.19
  26   7   3   26.40   30.50
  26  -7  -3   45.80   26.20
   7   3  26   56.69   60.69
   3  26   7   59.19   62.29
  26   0   4  -31.20   29.00
   0   4  26  -10.60   60.49
  26   0  -4   -3.50   23.50
   0  -4  26    1.80   57.29
   2  -4  26  174.78   61.19
  -2   4  26  262.57   68.09
  -4  26   2  189.08   66.19
  26  -2   4  177.88   34.50
  26   2  -4  202.48   32.10
  -2  -4  26  199.48   65.19
  26   2   4  250.77   38.40
  26  -2  -4  264.37   34.00
   2   4  26  167.68   61.09
   4  26   2  154.68   57.09
  26  -4   4  182.78   37.20
  -4   4  26  149.59   63.19
  26   4  -4  174.98   30.90
  -4  26   4  128.59   62.29
   4  -4  26   66.59   57.79
  26  -4  -4  259.27   32.20
   4  26   4  166.98   63.29
  26   4   4  234.68   36.70
   4   4  26  294.47   69.29
  26   6  -4  122.39   25.80
   6  -4  26   90.99   55.49
  -4  26   6   73.89   52.69
  -6   4  26  149.49   63.79
  26  -6   4   71.39   29.60
  26  -6  -4  126.79   28.90
  26   6   4   97.39   32.30
   6   4  26   47.60   60.69
   4  26   6   96.79   60.99
  -1   5  26   35.40   63.19
  -5  26   1  102.39   64.69
  26   1  -5   41.00   23.50
  26  -1   5   54.59   29.10
   1   5  26   29.50   54.29
   5  26   1   30.10   52.19
  26   1   5   25.80   29.00
  26  -1  -5   61.09   24.90
  26   3  -5   51.99   22.50
  26  -3   5   68.59   32.90
  -5  26   3   51.19   63.29
  -3   5  26   38.80   56.89
  26   3   5   16.20   31.80
   3   5  26   -2.30   53.59
   5  26   3   21.20   61.39
  26  -3  -5   16.40   24.40
  26  -5   5  520.25   61.29
  -5   5  26  314.47   73.39
  26   5  -5  445.86   50.39
  -5  26   5  450.55   80.59
  26   5   5  546.05   62.49
   5  26   5  483.15   86.59
  26  -5  -5  472.55   53.09
   5   5  26  513.75   84.19
   0   6  26  133.19   60.19
   6  26   0  107.29   57.69
  26   0  -6  259.37   35.30
  26   0   6  249.68   39.60
  26  -2   6  266.67   37.10
  -2   6  26  246.48   63.19
  -6  26   2  291.17   68.49
  26  -2  -6  179.58   30.20
  26   2   6  163.98   37.80
   6  26   2  199.38   67.99
   2   6  26  223.58   68.39
  -6  26   4  105.29   63.09
  -4   6  26   58.89   62.69
  26  -4   6  121.89   34.50
  26   4  -6  108.59   23.70
  26   4   6  129.29   36.00
   4   6  26   80.59   55.39
   6  26   4  105.09   62.49
  26  -4  -6   93.19   26.20
  26  -1   7  131.19   37.00
  26   1  -7  105.39   22.60
  -1   7  26   63.99   64.29
  -7  26   1  136.59   63.59
   7  26   1   68.49   51.99
  26   1   7  177.68   38.30
   1   7  26  114.09   62.39
  26  -1  -7  134.59   24.50
  -7  26   3   55.39   58.79
  -3   7  26   44.60   61.49
  26  -3   7   33.90   30.50
  26   3   7   59.19   32.30
  26  -3  -7   57.19   22.80
   3   7  26   18.40   57.79
   7  26   3   58.49   61.89
  27  -1   0   85.99   30.80
  27   1   0   43.00   28.30
   0  27   1   73.69   63.29
   1   0  27  120.89   64.49
  -1   0  27   69.69   62.49
   3   0  27  359.86   77.19
   0  27   3  394.86   78.09
  -3   0  27  354.26   74.69
   0  -1  27   70.79   63.49
  27   0  -1   78.79   29.90
  27   0   1   49.10   28.30
   0   1  27   94.19   63.89
  27   2  -1   68.49   27.50
   2  -1  27   22.10   57.19
  27  -2   1   58.99   28.90
  -2   1  27   82.19   62.19
  -1  27   2   97.39   69.09
   2   1  27  102.19   59.19
  27   2   1   77.49   29.80
   1  27   2   94.39   69.59
  -2  -1  27  109.39   63.79
  27  -2  -1  100.29   30.30
  27   1  -2   40.80   26.50
  27  -1   2   45.80   30.50
  -2  27   1   13.30   53.19
   1  -2  27   21.10   53.89
  -1   2  27   62.89   59.39
  -1  -2  27   94.99   61.39
  27  -1  -2   55.69   26.80
  27   1   2   82.59   30.20
   1   2  27   66.09   64.99
   2  27   1   40.70   54.29
   0  -3  27  255.97   65.69
   0   0   0    0.00    0.00


_computing_structure_solution     'SHELXT 2014/5 (Sheldrick, 2014)'
_computing_structure_solution     'SHELXT 2014/5 (Sheldrick, 2014)'
;
_shelx_hkl_checksum              17083
_shelx_fab_file
;
-15 -16 -15 25.0109 3.8615
-14 -18 -14 -5.3890 11.0210
-14 -17 -15 9.8139 16.5606
-14 -16 -16 -23.0261 8.1088
-14 -16 -14 14.4258 10.2669
-14 -15 -15 -37.9681 35.6726
-14 -14 -14 52.6907 -3.1076
-13 -19 -14 18.6303 2.6982
-13 -18 -15 -1.5894 4.6294
-13 -18 -13 6.1079 6.5264
-13 -17 -16 22.6489 -14.8174
-13 -17 -14 -18.6552 -19.6545
-13 -16 -15 -12.5547 20.5593
-13 -16 -13 -19.0836 33.8977
-13 -15 -14 -7.2966 -21.4688
-13 -14 -13 -33.6065 3.0059
-12 -20 -12 3.1330 -36.5163
-12 -19 -15 3.7691 19.9942
-12 -19 -13 3.8306 -1.1334
-12 -18 -16 -10.1452 21.4776
-12 -18 -14 -19.2370 16.1441
-12 -18 -12 -19.5987 -21.3162
-12 -17 -17 12.4478 8.5215
-12 -17 -15 -13.4662 11.7014
-12 -17 -13 -9.0659 17.6675
-12 -16 -16 10.9892 6.1377
-12 -16 -14 -14.8978 13.2453
-12 -16 -12 29.0232 34.7981
-12 -15 -15 12.3729 -4.2426
-12 -15 -13 0.5203 -47.6386
-12 -14 -14 30.5583 -24.3805
-12 -14 -12 15.1259 31.5600
-12 -13 -13 8.1653 -41.1185
-12 -12 -12 9.5099 -26.8301
-11 -22 -11 0.1426 -6.0196
-11 -21 -12 -4.1597 -16.0592
-11 -20 -13 6.2272 -3.9631
-11 -20 -11 9.0495 16.8356
-11 -19 -14 20.4668 15.3695
-11 -19 -12 8.5450 25.0161
-11 -18 -17 -26.1176 15.6110
-11 -18 -15 9.1598 8.2828
-11 -18 -13 24.4816 20.1195
-11 -18 -11 13.2097 34.8787
-11 -17 -16 7.7458 6.2540
-11 -17 -14 47.5293 -4.3777
-11 -17 -12 17.3829 21.0194
-11 -16 -15 11.1509 -31.9803
-11 -16 -13 -4.9224 3.1879
-11 -16 -11 -35.9776 -5.0459
-11 -15 -14 9.2048 -0.8450
-11 -15 -12 0.1924 -0.1519
-11 -14 -13 -45.7835 13.7930
-11 -14 -11 -73.4227 -22.1643
-11 -13 -12 -47.7415 -14.1345
-11 -12 -11 -0.6528 38.9967
-10 -22 -12 4.6890 -13.2298
-10 -22 -10 -10.9784 -21.8668
-10 -21 -13 -17.3789 0.6881
-10 -21 -11 -16.3966 -11.7346
-10 -20 -14 -4.5098 14.4792
-10 -20 -12 1.6379 -3.2525
-10 -20 -10 -26.2288 22.4038
-10 -19 -15 -19.8133 29.6166
-10 -19 -13 12.8191 -4.9941
-10 -19 -11 -11.6999 -6.6841
-10 -18 -16 8.9956 15.2757
-10 -18 -14 -5.9457 -7.6164
-10 -18 -12 26.8826 -26.7569
-10 -18 -10 11.0273 3.1271
-10 -17 -17 13.5151 2.4803
-10 -17 -15 -3.2229 4.9390
-10 -17 -13 -7.0088 21.3590
-10 -17 -11 6.9079 55.0243
-10 -16 -16 17.2654 -8.1002
-10 -16 -14 -4.7468 -9.2932
-10 -16 -12 -26.3367 -8.1966
-10 -16 -10 -18.4951 20.6610
-10 -15 -15 -12.2830 -12.6661
-10 -15 -13 4.8634 21.5842
-10 -15 -11 -5.0504 -17.3819
-10 -14 -14 -46.8971 -6.0783
-10 -14 -12 7.0304 6.8558
-10 -14 -10 -41.3706 12.5963
-10 -13 -13 -34.1782 10.5783
-10 -13 -11 9.4589 -15.8915
-10 -12 -12 15.1906 -1.6360
-10 -12 -10 -7.6053 -31.3831
-10 -11 -11 17.2474 4.9614
-10 -10 -10 29.5486 13.2402
-9 -24 -9 -6.7664 22.6657
-9 -23 -10 4.7611 -33.0971
-9 -22 -13 -22.1467 14.1838
-9 -22 -11 18.5944 16.3757
-9 -22 -9 17.6797 -25.4100
-9 -21 -14 1.2230 6.1764
-9 -21 -12 24.0911 13.1438
-9 -21 -10 4.3271 5.6733
-9 -20 -15 8.7318 -2.9020
-9 -20 -13 -4.2816 32.0166
-9 -20 -11 3.1742 -3.7538
-9 -20 -9 -41.2221 -23.2995
-9 -19 -16 -9.5661 -8.3495
-9 -19 -14 19.3796 2.1207
-9 -19 -12 -3.9653 -2.6872
-9 -19 -10 -3.5889 26.0924
-9 -18 -17 -7.5434 5.8372
-9 -18 -15 12.4563 15.2173
-9 -18 -13 7.8846 1.9986
-9 -18 -11 -35.0529 -6.5706
-9 -18 -9 5.3279 -29.4115
-9 -17 -16 -7.6568 4.9590
-9 -17 -14 34.5261 -15.3238
-9 -17 -12 -0.0151 3.8086
-9 -17 -10 24.3910 -15.4857
-9 -16 -15 26.8992 10.9956
-9 -16 -13 -9.0894 -2.0266
-9 -16 -11 -20.2921 -5.7813
-9 -16 -9 32.7097 28.1766
-9 -15 -14 22.7559 25.9355
-9 -15 -12 -6.0969 4.1367
-9 -15 -10 4.9933 1.4567
-9 -14 -13 31.9285 -27.3640
-9 -14 -11 -26.8265 21.1498
-9 -14 -9 32.8273 -7.0751
-9 -13 -12 10.9540 -11.7822
-9 -13 -10 -30.4788 -42.6387
-9 -12 -11 5.4685 -22.5293
-9 -12 -9 -68.1091 -68.0760
-9 -11 -10 -31.1897 -4.8399
-9 -10 -9 72.2489 2.1893
-8 -24 -8 28.5405 -10.3995
-8 -23 -11 3.6344 28.6344
-8 -23 -9 -20.7812 -5.2891
-8 -22 -12 -7.8961 -9.6421
-8 -22 -10 2.3430 -14.3163
-8 -22 -8 -2.2127 11.6743
-8 -21 -15 -12.2412 -3.3652
-8 -21 -13 4.8876 -2.2350
-8 -21 -11 -15.0554 6.1890
-8 -21 -9 -11.3566 2.7655
-8 -20 -16 17.0518 16.3949
-8 -20 -14 -13.6671 -3.7572
-8 -20 -12 18.2235 -2.7705
-8 -20 -10 20.3016 17.4451
-8 -20 -8 0.0973 -8.2859
-8 -19 -17 11.1725 7.6082
-8 -19 -15 2.4477 -6.8997
-8 -19 -13 -5.7442 -22.6752
-8 -19 -11 2.6967 -3.8823
-8 -19 -9 25.9673 19.4144
-8 -18 -18 -7.6012 1.5988
-8 -18 -16 2.5884 4.4906
-8 -18 -14 14.3349 -3.5425
-8 -18 -12 -3.5392 -6.1337
-8 -18 -10 -10.6471 1.4056
-8 -18 -8 -41.5923 14.6300
-8 -17 -17 -4.6181 19.3007
-8 -17 -15 13.9604 -16.9198
-8 -17 -13 28.2484 -0.0188
-8 -17 -11 5.8270 19.2537
-8 -17 -9 4.1908 33.8714
-8 -16 -16 5.1095 9.5206
-8 -16 -14 -7.2938 -1.0546
-8 -16 -12 15.4033 -5.5025
-8 -16 -10 -22.8598 18.5318
-8 -16 -8 16.1811 13.8481
-8 -15 -15 -24.3688 -32.4945
-8 -15 -13 -12.4601 26.4119
-8 -15 -11 30.0561 25.5656
-8 -15 -9 4.2972 -9.0851
-8 -14 -14 9.5204 10.0753
-8 -14 -12 13.0288 -2.8550
-8 -14 -10 -4.3514 -0.7083
-8 -14 -8 -1.7397 -5.9223
-8 -13 -13 -0.0151 15.4626
-8 -13 -11 -10.7403 9.6718
-8 -13 -9 -41.0495 32.7914
-8 -12 -12 -5.9241 16.9865
-8 -12 -10 32.5583 -21.6987
-8 -12 -8 47.7592 -61.7042
-8 -11 -11 9.3048 -23.4888
-8 -11 -9 -0.1370 28.0327
-8 -10 -8 -1.1373 16.3772
-8 -9 -9 37.6201 58.2153
-8 -8 -8 -52.0959 -9.1932
-7 -25 -8 -3.8871 -49.7561
-7 -24 -9 1.3714 -14.2263
-7 -24 -7 -32.1997 -30.5497
-7 -23 -12 -10.4850 17.1168
-7 -23 -10 6.1846 -9.7762
-7 -23 -8 -6.1914 -2.8402
-7 -22 -13 -6.8195 -1.1823
-7 -22 -11 11.3160 1.0233
-7 -22 -9 -7.1259 13.4996
-7 -22 -7 5.8297 -22.0278
-7 -21 -14 17.1643 -12.9810
-7 -21 -12 22.2103 3.0418
-7 -21 -10 10.6163 1.8803
-7 -21 -8 1.2783 25.9451
-7 -20 -15 -4.9109 7.9123
-7 -20 -13 9.4542 -16.6325
-7 -20 -11 11.3664 6.6407
-7 -20 -9 -1.9198 6.4754
-7 -20 -7 -4.6253 -3.4010
-7 -19 -18 -1.2296 4.0988
-7 -19 -16 18.6812 3.7423
-7 -19 -14 -1.0067 -11.2205
-7 -19 -12 -9.1129 5.6140
-7 -19 -10 2.3614 2.1539
-7 -19 -8 -9.2121 22.0995
-7 -18 -17 5.8221 -9.4131
-7 -18 -15 15.4022 -19.2183
-7 -18 -13 -2.9226 -20.8429
-7 -18 -11 12.0382 -21.1234
-7 -18 -9 26.1625 1.7398
-7 -18 -7 24.7504 2.7632
-7 -17 -16 28.8962 18.2107
-7 -17 -14 17.1570 -21.5203
-7 -17 -12 -22.9748 11.0002
-7 -17 -10 -32.2048 4.9617
-7 -17 -8 19.9640 -39.5615
-7 -16 -15 7.8399 34.8432
-7 -16 -13 -7.8237 -49.5698
-7 -16 -11 1.4352 12.3204
-7 -16 -9 33.9655 -19.4830
-7 -16 -7 -34.3265 18.5615
-7 -15 -14 -13.8534 16.2186
-7 -15 -12 -17.8080 35.0242
-7 -15 -10 10.6822 8.3247
-7 -15 -8 6.0519 -22.2049
-7 -14 -13 -4.8674 -6.0497
-7 -14 -11 -8.3844 -14.8334
-7 -14 -9 -5.8089 -6.0966
-7 -14 -7 -37.8304 42.5036
-7 -13 -12 3.2478 -29.7046
-7 -13 -10 51.3766 -28.4925
-7 -13 -8 15.5882 -7.4818
-7 -12 -11 -32.4153 -34.9325
-7 -12 -9 -48.6059 -77.2745
-7 -12 -7 -65.3986 49.8138
-7 -11 -10 -10.4334 -48.3973
-7 -11 -8 44.6838 58.0795
-7 -10 -9 -22.6216 20.1920
-7 -10 -7 -11.4740 -40.9268
-7 -9 -8 -21.6687 27.9314
-7 -8 -7 -39.9826 24.8449
-6 -25 -7 17.7219 -0.6583
-6 -24 -10 3.7578 1.3110
-6 -24 -8 2.4986 -3.7942
-6 -24 -6 -18.4927 1.0302
-6 -23 -13 28.2187 -12.0711
-6 -23 -11 5.7048 -8.1920
-6 -23 -9 -0.1588 11.0270
-6 -23 -7 29.4421 -0.2939
-6 -22 -14 0.0627 -1.5933
-6 -22 -12 -13.2994 -22.8296
-6 -22 -10 6.7418 24.2542
-6 -22 -8 -11.7988 -6.8796
-6 -22 -6 -22.2513 24.7370
-6 -21 -15 -12.5246 -4.1880
-6 -21 -13 12.9544 -5.1634
-6 -21 -11 0.8864 11.3705
-6 -21 -9 -4.8584 -17.9780
-6 -21 -7 53.7139 -27.5224
-6 -20 -16 5.2158 -11.5219
-6 -20 -14 14.4002 5.2382
-6 -20 -12 -8.5794 -20.4759
-6 -20 -10 11.7093 7.7009
-6 -20 -8 10.3300 28.6961
-6 -20 -6 14.1520 -79.5917
-6 -19 -17 -3.5461 21.1881
-6 -19 -15 -7.5006 -0.7218
-6 -19 -13 -0.8882 11.5010
-6 -19 -11 -28.8290 9.0642
-6 -19 -9 9.6483 16.0689
-6 -19 -7 40.5585 8.2028
-6 -18 -18 -8.3649 8.3086
-6 -18 -16 -7.7145 -24.8182
-6 -18 -14 -49.2063 9.1254
-6 -18 -12 -3.3186 -6.9145
-6 -18 -10 -24.5279 9.9891
-6 -18 -8 -34.7033 16.5634
-6 -18 -6 25.0187 -42.8308
-6 -17 -17 -11.1237 6.6723
-6 -17 -15 16.4294 -5.1358
-6 -17 -13 45.2108 -11.5720
-6 -17 -11 29.5918 6.8413
-6 -17 -9 -6.9205 -16.4053
-6 -17 -7 2.5328 -11.6169
-6 -16 -16 -6.5232 17.2355
-6 -16 -14 5.8663 7.6356
-6 -16 -12 -33.3933 -33.7507
-6 -16 -10 -22.3296 -13.3491
-6 -16 -8 -6.3238 30.2316
-6 -16 -6 -17.9267 -61.5602
-6 -15 -15 -20.7721 -20.5197
-6 -15 -13 -19.7187 31.0208
-6 -15 -11 48.3498 -68.6729
-6 -15 -9 25.2062 -15.2133
-6 -15 -7 -13.9944 -35.9804
-6 -14 -14 6.2381 2.5369
-6 -14 -12 3.9957 -12.6455
-6 -14 -10 55.3192 -22.9046
-6 -14 -8 -7.6280 -4.9802
-6 -14 -6 43.6357 -25.2075
-6 -13 -13 -42.7722 34.0309
-6 -13 -11 4.5195 42.5127
-6 -13 -9 -18.0561 51.4368
-6 -13 -7 21.0712 -30.5494
-6 -12 -12 -22.7280 32.4432
-6 -12 -10 56.9046 -7.4926
-6 -12 -8 41.6121 -24.7438
-6 -12 -6 86.6083 20.2082
-6 -11 -11 15.5428 -12.2415
-6 -11 -9 -1.7764 1.0164
-6 -11 -7 30.6514 -13.5732
-6 -10 -10 -106.9829 43.1997
-6 -10 -8 -58.7992 -22.6250
-6 -10 -6 -37.4675 42.0051
-6 -9 -9 -19.2770 -24.5822
-6 -9 -7 -8.8814 -3.3308
-6 -8 -8 16.7998 34.8880
-6 -8 -6 38.0075 72.0552
-6 -7 -7 -41.7285 64.6409
-6 -6 -6 -58.0867 -137.8353
-5 -26 -5 5.9994 -2.9681
-5 -25 -8 -16.1043 21.8001
-5 -25 -6 23.2359 2.2381
-5 -24 -11 -6.7129 -15.4572
-5 -24 -9 -10.8105 -16.2406
-5 -24 -7 17.4751 -28.4560
-5 -24 -5 -10.8221 -7.6178
-5 -23 -12 -17.6243 19.4418
-5 -23 -10 1.3599 6.3996
-5 -23 -8 2.9140 37.6500
-5 -23 -6 29.8760 1.4196
-5 -22 -15 17.3781 8.2525
-5 -22 -13 30.1534 -24.3702
-5 -22 -11 -6.8317 6.7765
-5 -22 -9 33.0658 -0.8047
-5 -22 -7 16.5418 34.3250
-5 -22 -5 38.1791 -30.0086
-5 -21 -16 7.9194 -9.6607
-5 -21 -14 13.7283 9.7046
-5 -21 -12 -6.4519 -15.6907
-5 -21 -10 5.5729 -19.0071
-5 -21 -8 -28.8396 24.3181
-5 -21 -6 4.5094 -14.3087
-5 -20 -17 1.6067 -5.0284
-5 -20 -15 5.4406 17.5809
-5 -20 -13 -18.0262 -22.8656
-5 -20 -11 9.1965 0.9454
-5 -20 -9 -10.6687 42.1094
-5 -20 -7 7.0427 -33.2351
-5 -20 -5 -36.7629 -54.0139
-5 -19 -18 -1.6724 -18.1912
-5 -19 -16 24.8226 -13.8077
-5 -19 -14 28.8952 2.6531
-5 -19 -12 22.1476 0.0655
-5 -19 -10 -17.1030 -10.6281
-5 -19 -8 -4.0049 31.2395
-5 -19 -6 3.1635 -16.8961
-5 -18 -17 5.7802 -7.8213
-5 -18 -15 -13.3972 8.3113
-5 -18 -13 4.3737 -7.2967
-5 -18 -11 20.5493 29.7194
-5 -18 -9 -9.3131 -37.1040
-5 -18 -7 6.0088 37.3514
-5 -18 -5 17.5951 21.6212
-5 -17 -16 8.3184 -8.8717
-5 -17 -14 -1.8913 -1.0901
-5 -17 -12 -15.8995 -22.5981
-5 -17 -10 0.0461 -14.9117
-5 -17 -8 -4.0985 -33.9007
-5 -17 -6 -4.0077 16.2607
-5 -16 -15 10.3486 11.1294
-5 -16 -13 27.8441 5.5785
-5 -16 -11 -14.9412 21.9922
-5 -16 -9 30.1657 58.9089
-5 -16 -7 -18.7537 37.0050
-5 -16 -5 6.7674 82.9822
-5 -15 -14 8.2858 -33.4642
-5 -15 -12 -16.5758 -57.5323
-5 -15 -10 -13.2677 -12.9641
-5 -15 -8 -16.5991 -11.5316
-5 -15 -6 -54.1263 -7.3234
-5 -14 -13 13.2655 -17.6224
-5 -14 -11 9.9022 -17.2131
-5 -14 -9 69.1483 -27.0852
-5 -14 -7 8.3604 45.9108
-5 -14 -5 73.8809 12.3916
-5 -13 -12 19.0680 -21.5002
-5 -13 -10 6.6298 19.2113
-5 -13 -8 -11.1564 -22.2325
-5 -13 -6 -42.4289 -37.0041
-5 -12 -11 -6.7239 25.3408
-5 -12 -9 -32.4697 -24.7011
-5 -12 -7 -10.2315 18.0443
-5 -12 -5 -22.8378 0.7201
-5 -11 -10 16.2476 26.0058
-5 -11 -8 34.9143 -37.9932
-5 -11 -6 4.7339 -23.6912
-5 -10 -9 -25.0483 -11.6892
-5 -10 -7 -8.2108 -65.9325
-5 -10 -5 -123.2831 26.5699
-5 -9 -8 5.0136 30.2082
-5 -9 -6 -19.0555 5.7434
-5 -8 -7 -17.4479 3.8390
-5 -8 -5 129.9555 -55.9204
-5 -7 -6 18.1104 -5.2922
-5 -6 -5 156.1002 -15.2339
-4 -26 -6 -6.3562 -8.8141
-4 -26 -4 5.7187 5.5322
-4 -25 -9 10.7677 10.2405
-4 -25 -7 35.6393 -0.9053
-4 -25 -5 9.3213 28.8957
-4 -24 -12 13.7073 7.5007
-4 -24 -10 15.0794 -11.4218
-4 -24 -8 -6.1229 -40.3490
-4 -24 -6 10.4968 -8.4007
-4 -24 -4 9.0008 8.4050
-4 -23 -13 -4.2420 18.1000
-4 -23 -11 -19.4864 -8.9362
-4 -23 -9 1.2746 -21.7953
-4 -23 -7 34.9938 11.2555
-4 -23 -5 -2.9596 -21.8062
-4 -22 -14 13.9710 -27.8839
-4 -22 -12 4.0998 -21.6536
-4 -22 -10 1.4447 19.9592
-4 -22 -8 -13.0448 1.3248
-4 -22 -6 -17.7080 -4.9989
-4 -22 -4 25.3555 -0.3007
-4 -21 -15 11.6298 -0.4317
-4 -21 -13 1.9520 11.3238
-4 -21 -11 20.5861 5.7844
-4 -21 -9 12.4361 3.5642
-4 -21 -7 -36.7094 -12.0618
-4 -21 -5 39.3407 -29.5771
-4 -20 -16 2.9445 -13.6314
-4 -20 -14 -6.2368 -1.4436
-4 -20 -12 -2.5162 -3.3881
-4 -20 -10 -13.6807 8.2678
-4 -20 -8 11.7984 32.2250
-4 -20 -6 13.1935 4.8571
-4 -20 -4 41.0277 -16.5189
-4 -19 -19 0.6896 13.1619
-4 -19 -17 1.3030 -4.5363
-4 -19 -15 -15.4478 -16.0672
-4 -19 -13 25.6754 -42.3403
-4 -19 -11 23.6022 25.9454
-4 -19 -9 -30.1327 15.0698
-4 -19 -7 14.3063 20.7771
-4 -19 -5 62.9211 -2.2140
-4 -18 -18 14.4872 -4.6012
-4 -18 -16 -21.9805 -12.4173
-4 -18 -14 1.2835 9.5100
-4 -18 -12 -14.6439 -20.6079
-4 -18 -10 -5.2911 -24.1952
-4 -18 -8 6.7544 41.5134
-4 -18 -6 100.0278 -47.2455
-4 -18 -4 43.8942 34.3354
-4 -17 -17 21.5146 19.4173
-4 -17 -15 -2.4072 -8.1978
-4 -17 -13 1.9020 47.8848
-4 -17 -11 32.1801 -22.0879
-4 -17 -9 -33.3104 -46.5136
-4 -17 -7 -14.9411 11.3641
-4 -17 -5 -2.9335 -35.2105
-4 -16 -16 -21.5893 -29.8190
-4 -16 -14 -30.5642 -18.7509
-4 -16 -12 5.9972 -5.6190
-4 -16 -10 6.7885 -24.4534
-4 -16 -8 3.0755 -7.5085
-4 -16 -6 -8.5491 15.2468
-4 -16 -4 69.3043 78.5709
-4 -15 -15 -51.6375 0.8055
-4 -15 -13 -26.7394 49.6521
-4 -15 -11 -46.4846 -19.6694
-4 -15 -9 26.2861 -7.5970
-4 -15 -7 -22.1097 -14.4426
-4 -15 -5 -11.1042 -2.1195
-4 -14 -14 7.9178 -11.1600
-4 -14 -12 -13.3944 9.2190
-4 -14 -10 22.3688 -11.9168
-4 -14 -8 -62.8247 -46.5094
-4 -14 -6 9.1846 -14.9092
-4 -14 -4 16.5178 -17.9752
-4 -13 -13 -45.6369 -26.8951
-4 -13 -11 -16.4985 -18.3603
-4 -13 -9 -38.2671 47.0987
-4 -13 -7 32.4845 46.2940
-4 -13 -5 10.6015 21.3349
-4 -12 -12 26.0335 -42.0402
-4 -12 -10 14.8556 30.2397
-4 -12 -8 -29.8868 -30.4612
-4 -12 -6 52.7048 -12.4479
-4 -12 -4 10.8408 -85.0934
-4 -11 -11 8.1743 13.6619
-4 -11 -9 6.6379 -31.4477
-4 -11 -7 -5.2485 21.3827
-4 -11 -5 11.3335 14.5461
-4 -10 -10 6.8401 96.2134
-4 -10 -8 -31.6692 49.7850
-4 -10 -6 -21.3536 -10.9291
-4 -10 -4 49.4373 35.2469
-4 -9 -9 45.0269 81.1734
-4 -9 -7 -10.9734 -87.3325
-4 -9 -5 9.9782 -2.3926
-4 -8 -8 5.8342 -135.6065
-4 -8 -6 -3.3919 -66.4712
-4 -8 -4 15.7171 43.0114
-4 -7 -7 -39.0640 -42.0980
-4 -7 -5 36.7507 -41.1722
-4 -6 -6 -123.7670 -4.8037
-4 -6 -4 -211.1888 -40.1331
-4 -5 -5 85.5348 -18.9886
-4 -4 -4 -121.7374 214.0334
-3 -26 -7 7.7854 -27.6545
-3 -26 -5 3.8512 -1.0668
-3 -26 -3 -3.7235 3.5539
-3 -25 -10 -5.4358 4.2630
-3 -25 -8 10.0212 12.7170
-3 -25 -6 0.7197 4.2120
-3 -25 -4 13.4942 27.3509
-3 -24 -11 5.0395 17.0126
-3 -24 -9 -10.2955 5.0440
-3 -24 -7 2.3946 27.8950
-3 -24 -5 3.6993 -5.9050
-3 -24 -3 14.7103 29.6592
-3 -23 -14 -11.0565 13.5252
-3 -23 -12 -38.7200 -4.1199
-3 -23 -10 29.0230 4.9001
-3 -23 -8 17.8158 37.3584
-3 -23 -6 -17.0596 -55.4025
-3 -23 -4 17.2137 -46.5496
-3 -22 -15 -2.7750 -3.5132
-3 -22 -13 -9.1116 -23.7060
-3 -22 -11 -6.5103 -1.0005
-3 -22 -9 -29.5933 31.4605
-3 -22 -7 38.2724 27.8570
-3 -22 -5 23.8617 -20.4795
-3 -22 -3 -22.6377 -30.7597
-3 -21 -16 -25.8677 36.3163
-3 -21 -14 19.7231 -28.6078
-3 -21 -12 1.1646 2.0011
-3 -21 -10 -10.5328 0.0031
-3 -21 -8 33.5519 17.0930
-3 -21 -6 37.2333 -13.7699
-3 -21 -4 52.0911 -38.9259
-3 -20 -17 14.1770 -4.2218
-3 -20 -15 -12.9335 -0.1931
-3 -20 -13 -41.3661 5.1651
-3 -20 -11 4.6191 19.0352
-3 -20 -9 -14.9107 -74.4240
-3 -20 -7 2.7183 -30.0653
-3 -20 -5 18.6977 11.9106
-3 -20 -3 -36.0044 35.7883
-3 -19 -18 14.5289 1.4655
-3 -19 -16 5.5453 -7.9174
-3 -19 -14 14.0259 6.4242
-3 -19 -12 -17.9676 11.4143
-3 -19 -10 2.8062 15.6318
-3 -19 -8 23.3536 -5.7670
-3 -19 -6 -8.9914 5.9976
-3 -19 -4 10.0708 -37.2970
-3 -18 -17 -14.0044 -8.2610
-3 -18 -15 7.6428 32.2877
-3 -18 -13 4.9620 14.3921
-3 -18 -11 26.3234 -13.4093
-3 -18 -9 8.7696 -17.4916
-3 -18 -7 44.5082 -23.3341
-3 -18 -5 -21.4465 28.0279
-3 -18 -3 -17.3027 -41.4862
-3 -17 -16 -30.1138 21.9707
-3 -17 -14 6.5993 -5.0828
-3 -17 -12 -24.2790 16.8281
-3 -17 -10 -56.4082 -24.4578
-3 -17 -8 -6.5078 6.0756
-3 -17 -6 -8.8802 9.3826
-3 -17 -4 -16.1262 -9.5564
-3 -16 -15 -8.5469 -19.7273
-3 -16 -13 7.6253 33.3560
-3 -16 -11 -15.7232 46.0404
-3 -16 -9 5.1141 26.2207
-3 -16 -7 -0.0131 43.2972
-3 -16 -5 14.9349 -46.7410
-3 -16 -3 -16.5689 14.5911
-3 -15 -14 4.2881 0.2472
-3 -15 -12 3.3918 -33.4334
-3 -15 -10 -5.5892 -8.5633
-3 -15 -8 7.4492 -65.4006
-3 -15 -6 68.4429 73.2287
-3 -15 -4 49.9627 56.2494
-3 -14 -13 -27.0340 18.3622
-3 -14 -11 45.1643 -15.3671
-3 -14 -9 -29.9752 39.6552
-3 -14 -7 15.3040 -23.6981
-3 -14 -5 -30.9323 29.6496
-3 -14 -3 -18.9378 4.8541
-3 -13 -12 5.7108 -18.5792
-3 -13 -10 17.9420 4.5545
-3 -13 -8 -27.9224 -34.5934
-3 -13 -6 10.9081 69.1685
-3 -13 -4 30.4627 21.7587
-3 -12 -11 -1.7456 17.9301
-3 -12 -9 -20.2734 56.6460
-3 -12 -7 8.9142 -9.9374
-3 -12 -5 -34.3429 7.6993
-3 -12 -3 -40.7405 24.5220
-3 -11 -10 23.2426 -38.8953
-3 -11 -8 22.7498 -6.8024
-3 -11 -6 3.1721 31.3661
-3 -11 -4 27.3786 -32.8148
-3 -10 -9 -8.2132 -36.8892
-3 -10 -7 -53.1647 0.2761
-3 -10 -5 31.5962 15.2849
-3 -10 -3 65.8856 0.7424
-3 -9 -8 40.4970 -34.1064
-3 -9 -6 3.0802 3.0894
-3 -9 -4 16.3773 7.7139
-3 -8 -7 5.3632 -4.8020
-3 -8 -5 -39.0438 -12.8076
-3 -8 -3 -48.7143 -51.5306
-3 -7 -6 26.7495 24.5293
-3 -7 -4 29.6251 -71.1370
-3 -6 -5 76.2779 -18.7110
-3 -6 -3 -238.6621 102.4010
-3 -5 -4 88.7063 110.3770
-3 -4 -3 -18.3127 -37.0568
-2 -26 -6 17.3284 11.7250
-2 -26 -4 0.8569 -22.4088
-2 -26 -2 12.9445 15.9442
-2 -25 -9 3.4983 -12.1224
-2 -25 -7 1.2171 -6.6250
-2 -25 -5 4.6092 4.2718
-2 -25 -3 -4.0609 -3.3738
-2 -24 -12 6.6610 2.3377
-2 -24 -10 0.2494 -5.1802
-2 -24 -8 16.6892 19.4257
-2 -24 -6 1.4853 -12.7520
-2 -24 -4 27.9727 -4.9452
-2 -24 -2 -1.5961 -0.1149
-2 -23 -13 -17.5541 -9.2941
-2 -23 -11 -4.4179 -15.7159
-2 -23 -9 1.2736 -5.4219
-2 -23 -7 -2.8539 13.2444
-2 -23 -5 -22.4843 3.3531
-2 -23 -3 1.5523 -38.5476
-2 -22 -14 -4.8808 8.3298
-2 -22 -12 29.3888 9.1047
-2 -22 -10 -14.7522 20.1343
-2 -22 -8 -5.0839 -19.4530
-2 -22 -6 -22.2003 -11.8673
-2 -22 -4 27.4043 18.7171
-2 -22 -2 38.2225 -1.3322
-2 -21 -17 1.6613 -7.8041
-2 -21 -15 2.6775 17.4935
-2 -21 -13 8.7980 -6.7222
-2 -21 -11 5.9569 -26.5060
-2 -21 -9 30.4239 35.7590
-2 -21 -7 -20.3506 -2.7689
-2 -21 -5 -12.5271 14.8845
-2 -21 -3 40.5682 -10.4049
-2 -20 -18 4.7802 -6.2490
-2 -20 -16 13.1210 4.2852
-2 -20 -14 23.4530 -5.0142
-2 -20 -12 -14.6121 10.2901
-2 -20 -10 -3.3076 -10.2873
-2 -20 -8 -15.5136 -39.7575
-2 -20 -6 -24.6171 29.1005
-2 -20 -4 -25.6220 19.4854
-2 -20 -2 13.5285 -24.5815
-2 -19 -19 -17.5234 7.4101
-2 -19 -17 10.1193 13.3405
-2 -19 -15 -8.2913 10.1383
-2 -19 -13 -15.2485 7.3670
-2 -19 -11 34.0437 -30.1689
-2 -19 -9 11.6009 10.7083
-2 -19 -7 -8.3487 44.8321
-2 -19 -5 27.1429 27.3701
-2 -19 -3 31.0361 -66.5772
-2 -18 -18 14.9150 -22.6219
-2 -18 -16 26.9071 3.3069
-2 -18 -14 8.2309 -12.6854
-2 -18 -12 -15.3370 -29.8659
-2 -18 -10 -33.5465 18.0436
-2 -18 -8 -2.9436 14.6610
-2 -18 -6 23.7380 44.3164
-2 -18 -4 7.0559 90.2157
-2 -18 -2 -85.0571 -33.0544
-2 -17 -17 -4.4354 11.7566
-2 -17 -15 -37.6115 -8.8545
-2 -17 -13 28.5441 -20.2858
-2 -17 -11 14.4626 4.7236
-2 -17 -9 -16.3936 -19.2224
-2 -17 -7 1.2534 27.9807
-2 -17 -5 -1.4417 13.3959
-2 -17 -3 -16.4977 -37.8269
-2 -16 -16 -8.4498 -11.5521
-2 -16 -14 47.9958 2.4906
-2 -16 -12 -31.8156 37.9990
-2 -16 -10 -10.2201 40.2614
-2 -16 -8 -28.1962 44.6266
-2 -16 -6 24.0125 -21.0014
-2 -16 -4 29.9819 74.4163
-2 -16 -2 59.7414 -33.0937
-2 -15 -15 -8.0315 -21.8455
-2 -15 -13 -13.0195 18.8540
-2 -15 -11 16.3026 -32.5624
-2 -15 -9 11.9488 -30.7879
-2 -15 -7 -6.0502 -3.1128
-2 -15 -5 -20.6519 -45.2346
-2 -15 -3 -49.9832 -0.9473
-2 -14 -14 -64.4162 -9.6646
-2 -14 -12 9.0795 -12.1352
-2 -14 -10 -10.9235 3.5856
-2 -14 -8 9.1244 6.5575
-2 -14 -6 -53.1819 20.8479
-2 -14 -4 36.0508 -29.2172
-2 -14 -2 25.6496 55.1126
-2 -13 -13 30.2959 -20.1914
-2 -13 -11 43.0715 31.5241
-2 -13 -9 26.2780 -15.5041
-2 -13 -7 -45.0303 -37.6432
-2 -13 -5 69.1135 -7.7874
-2 -13 -3 -15.7949 -84.7179
-2 -12 -12 -9.1899 -8.6057
-2 -12 -10 9.9172 -36.9398
-2 -12 -8 27.2312 39.2228
-2 -12 -6 -15.7392 50.3823
-2 -12 -4 -27.0709 -75.3309
-2 -12 -2 114.0796 -87.7372
-2 -11 -11 -173.6696 -44.7411
-2 -11 -9 -25.0715 -82.5717
-2 -11 -7 21.5282 -78.0944
-2 -11 -5 -10.5480 -21.6038
-2 -11 -3 69.4876 29.2076
-2 -10 -10 28.6582 67.6909
-2 -10 -8 21.3881 48.7318
-2 -10 -6 -9.7563 64.4443
-2 -10 -4 -26.3455 -30.3647
-2 -10 -2 -83.2103 30.0504
-2 -9 -9 -71.8897 0.9788
-2 -9 -7 28.3160 16.0724
-2 -9 -5 6.1263 -13.4042
-2 -9 -3 75.7454 -22.1346
-2 -8 -8 6.5578 -33.1019
-2 -8 -6 41.8099 -62.3911
-2 -8 -4 -10.8459 62.7125
-2 -7 -7 25.0752 227.9818
-2 -7 -5 87.3758 89.5888
-2 -7 -3 -44.9011 18.0435
-2 -6 -6 -97.6733 -68.3250
-2 -6 -4 6.0684 -113.2795
-2 -6 -2 37.5747 124.1825
-2 -5 -5 107.2498 -26.5895
-2 -5 -3 -58.1635 -55.3727
-2 -4 -2 205.1461 241.8557
-2 -3 -3 64.8442 -173.6572
-2 -2 -2 -292.5983 -94.4579
-1 -27 -2 -11.9416 8.6927
-1 -26 -7 -26.7812 -3.3686
-1 -26 -5 17.0196 -14.7986
-1 -26 -3 31.6771 15.2514
-1 -26 -1 5.2824 19.0770
-1 -25 -10 -10.7403 14.5774
-1 -25 -8 1.8355 -2.2505
-1 -25 -6 -0.0780 -14.6509
-1 -25 -4 27.4356 6.6491
-1 -25 -2 0.2187 4.7617
-1 -24 -11 4.4462 -12.6634
-1 -24 -9 -9.4556 -0.6694
-1 -24 -7 -45.3144 2.2771
-1 -24 -5 -19.0475 -5.1779
-1 -24 -3 -5.3196 9.0635
-1 -24 -1 -36.6790 11.0457
-1 -23 -14 5.2593 -3.3512
-1 -23 -12 24.5336 1.5984
-1 -23 -10 28.5055 -14.0851
-1 -23 -8 -22.6988 1.0241
-1 -23 -6 0.2864 -14.6646
-1 -23 -4 -16.0683 5.1992
-1 -23 -2 14.5273 11.5252
-1 -22 -15 -12.6235 -18.0627
-1 -22 -13 -1.7449 4.4126
-1 -22 -11 -6.3590 14.2232
-1 -22 -9 -23.3946 -3.5328
-1 -22 -7 19.4125 17.1568
-1 -22 -5 14.1702 -23.3505
-1 -22 -3 -34.0456 -34.7247
-1 -22 -1 3.9672 -1.7210
-1 -21 -16 -4.7440 19.2159
-1 -21 -14 23.8581 3.6935
-1 -21 -12 14.0407 -9.7039
-1 -21 -10 -21.5414 12.1603
-1 -21 -8 -0.5624 8.7623
-1 -21 -6 48.2677 -8.9882
-1 -21 -4 -1.9628 -5.2034
-1 -21 -2 10.0151 -6.2636
-1 -20 -17 -10.5767 -24.9787
-1 -20 -15 2.7281 26.2627
-1 -20 -13 -11.6648 26.5114
-1 -20 -11 14.1869 -15.6757
-1 -20 -9 1.4479 8.0099
-1 -20 -7 32.4782 -21.9022
-1 -20 -5 -13.8415 47.1103
-1 -20 -3 -27.8524 -15.0527
-1 -20 -1 0.4434 -44.8235
-1 -19 -18 16.2144 3.5173
-1 -19 -16 -4.9649 -2.6719
-1 -19 -14 -53.2012 -9.2282
-1 -19 -12 3.3853 13.7823
-1 -19 -10 24.0129 -10.0336
-1 -19 -8 -20.4161 -15.1301
-1 -19 -6 -44.7926 -5.5767
-1 -19 -4 -7.9089 20.8151
-1 -19 -2 65.1321 -39.7434
-1 -18 -17 0.5021 -14.2530
-1 -18 -15 10.0853 8.8862
-1 -18 -13 -18.4900 -7.5584
-1 -18 -11 21.2026 18.7216
-1 -18 -9 0.0587 2.4634
-1 -18 -7 -17.5150 9.0349
-1 -18 -5 -55.4423 4.7234
-1 -18 -3 -12.8923 27.6520
-1 -18 -1 -3.8089 16.1944
-1 -17 -16 -28.6960 -6.3880
-1 -17 -14 57.7097 15.7297
-1 -17 -12 -67.1477 -0.3089
-1 -17 -10 -11.5383 34.0005
-1 -17 -8 -1.7484 -19.8632
-1 -17 -6 -10.9988 -22.2645
-1 -17 -4 11.9297 8.7758
-1 -17 -2 -148.8364 27.4240
-1 -16 -15 -17.1577 4.5904
-1 -16 -13 -33.4521 2.8134
-1 -16 -11 16.8327 -32.2929
-1 -16 -9 3.9381 26.6928
-1 -16 -7 18.1279 -0.0948
-1 -16 -5 -32.1451 -18.2276
-1 -16 -3 58.4666 26.2884
-1 -16 -1 -140.1479 26.4552
-1 -15 -14 8.9634 -1.4948
-1 -15 -12 1.6915 22.2752
-1 -15 -10 -11.3041 3.8472
-1 -15 -8 25.9063 -26.5314
-1 -15 -6 -5.0105 23.0831
-1 -15 -4 -109.6857 -0.5454
-1 -15 -2 -64.8073 50.1944
-1 -14 -13 -38.7485 30.8627
-1 -14 -11 101.4763 -61.0247
-1 -14 -9 -92.6302 21.0661
-1 -14 -7 -13.4452 9.4756
-1 -14 -5 6.0304 25.2103
-1 -14 -3 -55.7656 -23.6502
-1 -14 -1 19.7189 -63.0466
-1 -13 -12 0.4685 14.0237
-1 -13 -10 -21.9636 -23.7984
-1 -13 -8 22.0339 -1.3016
-1 -13 -6 58.8769 29.0874
-1 -13 -4 -80.6508 29.9963
-1 -13 -2 -23.8280 -10.5721
-1 -12 -11 18.0929 51.5139
-1 -12 -9 -18.5393 -17.3513
-1 -12 -7 48.8732 58.8955
-1 -12 -5 -23.8785 -22.6069
-1 -12 -3 14.4627 -48.8350
-1 -12 -1 75.4686 -14.5761
-1 -11 -10 97.1598 -5.2000
-1 -11 -8 28.2571 16.6657
-1 -11 -6 13.4905 -19.9544
-1 -11 -4 32.2433 8.3182
-1 -11 -2 -67.0784 4.0675
-1 -10 -9 81.8221 24.5142
-1 -10 -7 7.6026 -63.5469
-1 -10 -5 -4.2325 74.1260
-1 -9 -8 24.6970 -5.2224
-1 -9 -6 -90.2821 20.3923
-1 -9 -4 -31.4166 -54.0177
-1 -8 -7 8.0377 18.8029
-1 -8 -5 -29.7952 -87.1140
-1 -8 -3 -50.8111 112.0603
-1 -8 -1 -73.7045 -56.3056
-1 -7 -6 -23.1912 -8.7280
-1 -7 -4 3.6007 -30.7431
-1 -7 -2 -33.8752 86.3587
-1 -6 -5 108.4745 -70.5075
-1 -6 -3 -30.2019 -137.8722
-1 -6 -1 -18.0733 18.2510
-1 -5 -4 -47.5375 24.4333
-1 -5 -2 -186.8095 67.2606
-1 -4 -3 -172.7386 -96.7258
-1 -4 -1 163.9123 -281.2358
-1 -3 -2 54.0144 55.1864
-1 -2 -1 4.9724 522.3785
0 1 1 -262.0282 -6.2487
0 2 2 195.4063 -2.4111
0 3 1 -47.9263 17.2683
0 3 3 179.6766 -32.9692
0 4 0 -874.0021 8.7994
0 4 2 -163.6821 -9.6820
0 4 4 147.4374 7.6475
0 5 1 -100.3333 -12.3558
0 5 3 -86.1168 11.0018
0 5 5 -48.0761 3.2797
0 6 0 13.1465 -12.3723
0 6 2 113.9645 2.1091
0 6 4 -126.5324 4.0709
0 6 6 63.9976 -2.8323
0 7 1 -172.3852 7.4340
0 7 3 83.8319 -8.1789
0 7 5 -6.6512 -3.9592
0 7 7 -41.1955 7.5724
0 8 0 -204.2367 4.9724
0 8 2 16.2055 3.3120
0 8 4 185.2893 -13.9419
0 8 6 -85.1876 -0.9462
0 8 8 51.3712 16.1019
0 9 1 143.2045 -8.4572
0 9 3 47.8580 11.8452
0 9 5 -23.1911 -9.7387
0 9 7 -57.0313 4.6701
0 9 9 93.0039 -8.4300
0 10 0 85.7449 -25.6777
0 10 2 26.1310 7.9175
0 10 4 -53.8298 15.1796
0 10 6 5.8787 -6.1716
0 10 8 -44.6503 -4.0764
0 10 10 -28.6494 -11.3411
0 11 1 1.6462 0.4220
0 11 3 -40.0355 0.6103
0 11 5 -13.7946 7.9006
0 11 7 28.1445 -8.2970
0 11 9 -11.0059 0.4357
0 11 11 15.0747 8.8014
0 12 0 146.7754 40.6887
0 12 2 34.5817 -19.0830
0 12 4 24.6047 -7.7155
0 12 6 -21.2371 8.0439
0 12 8 58.2642 -7.3294
0 12 10 -39.7349 21.5179
0 12 12 10.3187 -35.5337
0 13 1 32.4953 13.6594
0 13 3 8.9799 -23.6356
0 13 5 26.3289 11.0750
0 13 7 -83.6901 -4.0737
0 13 9 -6.3716 10.0333
0 13 11 4.7242 -1.0433
0 13 13 66.1193 -23.4495
0 14 0 -153.3781 -12.5187
0 14 2 -16.5127 5.7696
0 14 4 24.1850 2.7847
0 14 6 7.7283 -1.3433
0 14 8 -12.8904 0.0836
0 14 10 -12.5169 -3.7427
0 14 12 -22.3260 10.2598
0 14 14 -1.6661 -1.4482
0 15 1 22.8206 -16.8985
0 15 3 -40.4647 31.3038
0 15 5 14.8237 -17.4551
0 15 7 17.5583 8.5778
0 15 9 10.2675 -13.4100
0 15 11 -38.4320 4.9174
0 15 13 -26.2944 24.3911
0 15 15 -2.0132 -43.4051
0 16 0 -26.2562 -27.1165
0 16 2 -24.5415 13.9344
0 16 4 49.3246 2.2560
0 16 6 -61.9219 -6.5495
0 16 8 23.8382 10.4755
0 16 10 -14.6533 -16.4062
0 16 12 -30.2018 16.7454
0 16 14 -1.1654 -1.4894
0 16 16 18.4473 -12.1380
0 17 1 -48.8952 6.7256
0 17 3 34.1315 -13.8888
0 17 5 9.3056 -0.7159
0 17 7 11.6848 3.9103
0 17 9 -5.6270 6.1714
0 17 11 -10.2421 -8.2532
0 17 13 62.1855 -3.0744
0 17 15 -5.6894 13.3686
0 17 17 3.3958 1.0763
0 18 0 -85.5225 28.5822
0 18 2 22.9882 -12.4148
0 18 4 14.9742 -9.9033
0 18 6 13.9469 5.8290
0 18 8 -13.7103 -2.5096
0 18 10 9.2921 11.2274
0 18 12 22.3288 -20.3841
0 18 14 -0.8385 7.3191
0 18 16 -7.2316 14.5047
0 18 18 9.1097 -19.8629
0 19 1 35.0486 2.2667
0 19 3 -31.2930 -2.9746
0 19 5 0.0413 10.0733
0 19 7 2.2046 -8.6473
0 19 9 7.8933 0.4762
0 19 11 -1.9283 5.3881
0 19 13 -7.4258 -7.8591
0 19 15 -19.9554 6.0812
0 19 17 16.0310 -5.4363
0 19 19 -32.0022 5.2253
0 20 0 15.3021 -10.0486
0 20 2 -18.7475 0.9516
0 20 4 -8.7304 14.0009
0 20 6 -24.3974 -1.4035
0 20 8 24.2213 -11.6130
0 20 10 26.4901 3.9623
0 20 12 -17.9181 10.0212
0 20 14 -25.7184 -4.0835
0 20 16 22.9048 -10.0996
0 20 18 -17.9778 4.2733
0 21 1 4.0852 -3.0961
0 21 3 -31.8336 3.9000
0 21 5 -13.6978 2.9738
0 21 7 -18.2443 -3.6208
0 21 9 -19.4748 -3.3790
0 21 11 12.9636 4.6159
0 21 13 14.1127 3.4760
0 21 15 -18.8101 -4.7895
0 21 17 -4.5672 -3.5915
0 22 0 -3.3785 11.1967
0 22 2 11.8376 -2.1778
0 22 4 40.7696 -8.8670
0 22 6 -14.4418 2.4549
0 22 8 -1.2905 5.2666
0 22 10 27.0580 0.8714
0 22 12 4.2546 -8.9264
0 22 14 -6.8971 2.5002
0 23 1 -13.7214 4.6014
0 23 3 20.6558 -6.2473
0 23 5 36.2271 -8.3703
0 23 7 1.2600 9.3015
0 23 9 -12.9863 6.2652
0 23 11 -9.8412 -9.8959
0 23 13 -8.8381 -4.9448
0 24 0 -16.3264 -17.8873
0 24 2 24.8198 6.9734
0 24 4 22.0507 -0.6339
0 24 6 18.3783 -4.1943
0 24 8 22.7230 9.8170
0 24 10 -13.4842 -12.4635
0 24 12 -0.0730 11.4095
0 25 1 -8.3713 -11.9312
0 25 3 -33.8450 16.7919
0 25 5 20.8636 -5.8438
0 25 7 11.2749 2.7863
0 25 9 -9.5079 -10.3879
0 26 0 28.9081 -6.6423
0 26 2 6.2992 1.7746
0 26 4 -5.4435 6.3017
0 26 6 -15.3117 0.3547
0 27 1 7.5519 11.7935
0 27 3 21.1922 -23.9040
1 2 1 4.9724 -522.3785
1 3 2 54.0144 -55.1864
1 4 1 163.9123 281.2358
1 4 3 -172.7386 96.7258
1 5 4 -47.5375 -24.4333
1 6 1 -18.0733 -18.2510
1 6 3 -30.2019 137.8722
1 7 2 -33.8752 -86.3587
1 7 4 3.6007 30.7431
1 7 6 -23.1912 8.7280
1 8 1 -73.7045 56.3056
1 8 3 -50.8111 -112.0603
1 8 5 -29.7952 87.1140
1 8 7 8.0377 -18.8029
1 9 2 59.0613 68.8686
1 9 4 -31.4166 54.0177
1 9 6 -90.2821 -20.3923
1 9 8 24.6970 5.2224
1 10 1 -31.1285 35.9503
1 10 3 83.2819 25.4106
1 10 5 -4.2325 -74.1260
1 10 7 7.6026 63.5469
1 10 9 81.8221 -24.5142
1 11 2 -67.0784 -4.0675
1 11 4 32.2433 -8.3182
1 11 6 13.4905 19.9544
1 11 8 28.2571 -16.6657
1 11 10 97.1598 5.2000
1 12 1 75.4686 14.5761
1 12 3 14.4627 48.8350
1 12 5 -23.8785 22.6069
1 12 7 48.8732 -58.8955
1 12 9 -18.5393 17.3513
1 12 11 18.0929 -51.5139
1 13 2 -23.8280 10.5721
1 13 6 58.8769 -29.0874
1 13 8 22.0339 1.3016
1 13 10 -21.9636 23.7984
1 13 12 0.4685 -14.0237
1 14 1 19.7189 63.0466
1 14 3 -55.7656 23.6502
1 14 5 6.0304 -25.2103
1 14 7 -13.4452 -9.4756
1 14 9 -92.6302 -21.0661
1 14 11 101.4763 61.0247
1 14 13 -38.7485 -30.8627
1 15 2 -64.8073 -50.1944
1 15 4 -109.6857 0.5454
1 15 6 -5.0105 -23.0831
1 15 8 25.9063 26.5314
1 15 10 -11.3041 -3.8472
1 15 12 1.6915 -22.2752
1 15 14 8.9634 1.4948
1 16 1 -140.1479 -26.4552
1 16 3 58.4666 -26.2884
1 16 5 -32.1451 18.2276
1 16 7 18.1279 0.0948
1 16 9 3.9381 -26.6928
1 16 11 16.8327 32.2929
1 16 13 -33.4521 -2.8134
1 16 15 -17.1577 -4.5904
1 17 2 -148.8364 -27.4240
1 17 4 11.9297 -8.7758
1 17 6 -10.9988 22.2645
1 17 8 -1.7484 19.8632
1 17 10 -11.5383 -34.0005
1 17 12 -67.1477 0.3089
1 17 14 57.7097 -15.7297
1 17 16 -28.6960 6.3880
1 18 1 -3.8089 -16.1944
1 18 3 -12.8923 -27.6520
1 18 5 -55.4423 -4.7234
1 18 7 -17.5150 -9.0349
1 18 9 0.0587 -2.4634
1 18 11 21.2026 -18.7216
1 18 13 -18.4900 7.5584
1 18 15 10.0853 -8.8862
1 18 17 0.5021 14.2530
1 19 2 65.1321 39.7434
1 19 4 -7.9089 -20.8151
1 19 6 -44.7926 5.5767
1 19 8 -20.4161 15.1301
1 19 10 24.0129 10.0336
1 19 12 3.3853 -13.7823
1 19 14 -53.2012 9.2282
1 19 16 -4.9649 2.6719
1 19 18 16.2144 -3.5173
1 20 1 0.4434 44.8235
1 20 3 -27.8524 15.0527
1 20 5 -13.8415 -47.1103
1 20 7 32.4782 21.9022
1 20 9 1.4479 -8.0099
1 20 11 14.1869 15.6757
1 20 13 -11.6648 -26.5114
1 20 15 2.7281 -26.2627
1 20 17 -10.5767 24.9787
1 21 2 10.0151 6.2636
1 21 4 -1.9628 5.2034
1 21 6 48.2677 8.9882
1 21 8 -0.5624 -8.7623
1 21 10 -21.5414 -12.1603
1 21 12 14.0407 9.7039
1 21 14 23.8581 -3.6935
1 21 16 -4.7440 -19.2159
1 22 1 3.9672 1.7210
1 22 3 -34.0456 34.7247
1 22 5 14.1702 23.3505
1 22 7 19.4125 -17.1568
1 22 9 -23.3946 3.5328
1 22 11 -6.3590 -14.2232
1 22 13 -1.7449 -4.4126
1 22 15 -12.6235 18.0627
1 23 2 14.5273 -11.5252
1 23 4 -16.0683 -5.1992
1 23 6 0.2864 14.6646
1 23 8 -22.6988 -1.0241
1 23 10 28.5055 14.0851
1 23 12 24.5336 -1.5984
1 23 14 5.2593 3.3512
1 24 1 -36.6790 -11.0457
1 24 3 -5.3196 -9.0635
1 24 5 -19.0475 5.1779
1 24 7 -45.3144 -2.2771
1 24 9 -9.4556 0.6694
1 24 11 4.4462 12.6634
1 25 2 0.2187 -4.7617
1 25 4 27.4356 -6.6491
1 25 6 -0.0780 14.6509
1 25 8 1.8355 2.2505
1 25 10 -10.7403 -14.5774
1 26 1 5.2824 -19.0770
1 26 3 31.6771 -15.2514
1 26 5 17.0196 14.7986
1 26 7 -26.7812 3.3686
1 27 2 -11.9416 -8.6927
2 2 2 -292.5983 94.4579
2 3 3 64.8442 173.6572
2 4 2 205.1461 -241.8557
2 4 4 -113.5650 95.5789
2 5 3 -58.1635 55.3727
2 5 5 107.2498 26.5895
2 6 2 37.5747 -124.1825
2 6 4 6.0684 113.2795
2 6 6 -97.6733 68.3250
2 7 3 -44.9011 -18.0435
2 7 5 87.3758 -89.5888
2 7 7 25.0752 -227.9818
2 8 2 -81.1270 78.5380
2 8 4 -10.8459 -62.7125
2 8 6 41.8099 62.3911
2 8 8 6.5578 33.1019
2 9 3 75.7454 22.1346
2 9 5 6.1263 13.4042
2 9 7 28.3160 -16.0724
2 9 9 -71.8897 -0.9788
2 10 2 -83.2103 -30.0504
2 10 4 -26.3455 30.3647
2 10 6 -9.7563 -64.4443
2 10 8 21.3881 -48.7318
2 10 10 28.6582 -67.6909
2 11 3 69.4876 -29.2076
2 11 5 -10.5480 21.6038
2 11 7 21.5282 78.0944
2 11 9 -25.0715 82.5717
2 11 11 -173.6696 44.7411
2 12 2 114.0796 87.7372
2 12 4 -27.0709 75.3309
2 12 6 -15.7392 -50.3823
2 12 8 27.2312 -39.2228
2 12 10 9.9172 36.9398
2 12 12 -9.1899 8.6057
2 13 3 -15.7949 84.7179
2 13 5 69.1135 7.7874
2 13 7 -45.0303 37.6432
2 13 9 26.2780 15.5041
2 13 11 43.0715 -31.5241
2 13 13 30.2959 20.1914
2 14 2 25.6496 -55.1126
2 14 4 36.0508 29.2172
2 14 8 9.1244 -6.5575
2 14 10 -10.9235 -3.5856
2 14 12 9.0795 12.1352
2 14 14 -64.4162 9.6646
2 15 3 -49.9832 0.9473
2 15 5 -20.6519 45.2346
2 15 7 -6.0502 3.1128
2 15 9 11.9488 30.7879
2 15 11 16.3026 32.5624
2 15 13 -13.0195 -18.8540
2 15 15 -8.0315 21.8455
2 16 2 59.7414 33.0937
2 16 4 29.9819 -74.4163
2 16 6 24.0125 21.0014
2 16 8 -28.1962 -44.6266
2 16 10 -10.2201 -40.2614
2 16 12 -31.8156 -37.9990
2 16 14 47.9958 -2.4906
2 16 16 -8.4498 11.5521
2 17 3 -16.4977 37.8269
2 17 5 -1.4417 -13.3959
2 17 7 1.2534 -27.9807
2 17 9 -16.3936 19.2224
2 17 11 14.4626 -4.7236
2 17 13 28.5441 20.2858
2 17 15 -37.6115 8.8545
2 17 17 -4.4354 -11.7566
2 18 2 -85.0571 33.0544
2 18 4 7.0559 -90.2157
2 18 6 23.7380 -44.3164
2 18 8 -2.9436 -14.6610
2 18 10 -33.5465 -18.0436
2 18 12 -15.3370 29.8659
2 18 14 8.2309 12.6854
2 18 16 26.9071 -3.3069
2 18 18 14.9150 22.6219
2 19 3 31.0361 66.5772
2 19 5 27.1429 -27.3701
2 19 7 -8.3487 -44.8321
2 19 9 11.6009 -10.7083
2 19 11 34.0437 30.1689
2 19 13 -15.2485 -7.3670
2 19 15 -8.2913 -10.1383
2 19 17 10.1193 -13.3405
2 19 19 -17.5234 -7.4101
2 20 2 13.5285 24.5815
2 20 4 -25.6220 -19.4854
2 20 6 -24.6171 -29.1005
2 20 8 -15.5136 39.7575
2 20 10 -3.3076 10.2873
2 20 12 -14.6121 -10.2901
2 20 14 23.4530 5.0142
2 20 16 13.1210 -4.2852
2 20 18 4.7802 6.2490
2 21 3 40.5682 10.4049
2 21 5 -12.5271 -14.8845
2 21 7 -20.3506 2.7689
2 21 9 30.4239 -35.7590
2 21 11 5.9569 26.5060
2 21 13 8.7980 6.7222
2 21 15 2.6775 -17.4935
2 21 17 1.6613 7.8041
2 22 2 38.2225 1.3322
2 22 4 27.4043 -18.7171
2 22 6 -22.2003 11.8673
2 22 8 -5.0839 19.4530
2 22 10 -14.7522 -20.1343
2 22 12 29.3888 -9.1047
2 22 14 -4.8808 -8.3298
2 23 3 1.5523 38.5476
2 23 5 -22.4843 -3.3531
2 23 7 -2.8539 -13.2444
2 23 9 1.2736 5.4219
2 23 11 -4.4179 15.7159
2 23 13 -17.5541 9.2941
2 24 2 -1.5961 0.1149
2 24 4 27.9727 4.9452
2 24 6 1.4853 12.7520
2 24 8 16.6892 -19.4257
2 24 10 0.2494 5.1802
2 24 12 6.6610 -2.3377
2 25 3 -4.0609 3.3738
2 25 5 4.6092 -4.2718
2 25 7 1.2171 6.6250
2 25 9 3.4983 12.1224
2 26 2 12.9445 -15.9442
2 26 4 0.8569 22.4088
2 26 6 17.3284 -11.7250
3 4 3 -18.3127 37.0568
3 5 4 88.7063 -110.3770
3 6 3 -238.6621 -102.4010
3 6 5 76.2779 18.7110
3 7 4 29.6251 71.1370
3 7 6 26.7495 -24.5293
3 8 3 -48.7143 51.5306
3 8 5 -39.0438 12.8076
3 8 7 5.3632 4.8020
3 9 4 16.3773 -7.7139
3 9 8 40.4970 34.1064
3 10 3 65.8856 -0.7424
3 10 5 31.5962 -15.2849
3 10 7 -53.1647 -0.2761
3 10 9 -8.2132 36.8892
3 11 4 27.3786 32.8148
3 11 6 3.1721 -31.3661
3 11 8 22.7498 6.8024
3 11 10 23.2426 38.8953
3 12 3 -40.7405 -24.5220
3 12 5 -34.3429 -7.6993
3 12 7 8.9142 9.9374
3 12 9 -20.2734 -56.6460
3 12 11 -1.7456 -17.9301
3 13 4 30.4627 -21.7587
3 13 6 10.9081 -69.1685
3 13 8 -27.9224 34.5934
3 13 10 17.9420 -4.5545
3 13 12 5.7108 18.5792
3 14 3 -18.9378 -4.8541
3 14 5 -30.9323 -29.6496
3 14 7 15.3040 23.6981
3 14 9 -29.9752 -39.6552
3 14 11 45.1643 15.3671
3 14 13 -27.0340 -18.3622
3 15 4 49.9627 -56.2494
3 15 6 68.4429 -73.2287
3 15 8 7.4492 65.4006
3 15 10 -5.5892 8.5633
3 15 12 3.3918 33.4334
3 15 14 4.2881 -0.2472
3 16 3 -16.5689 -14.5911
3 16 5 14.9349 46.7410
3 16 7 -0.0131 -43.2972
3 16 9 5.1141 -26.2207
3 16 11 -15.7232 -46.0404
3 16 13 7.6253 -33.3560
3 16 15 -8.5469 19.7273
3 17 4 -16.1262 9.5564
3 17 6 -8.8802 -9.3826
3 17 8 -6.5078 -6.0756
3 17 10 -56.4082 24.4578
3 17 12 -24.2790 -16.8281
3 17 14 6.5993 5.0828
3 17 16 -30.1138 -21.9707
3 18 3 -17.3027 41.4862
3 18 5 -21.4465 -28.0279
3 18 7 44.5082 23.3341
3 18 9 8.7696 17.4916
3 18 11 26.3234 13.4093
3 18 13 4.9620 -14.3921
3 18 15 7.6428 -32.2877
3 18 17 -14.0044 8.2610
3 19 4 10.0708 37.2970
3 19 6 -8.9914 -5.9976
3 19 8 23.3536 5.7670
3 19 10 2.8062 -15.6318
3 19 12 -17.9676 -11.4143
3 19 14 14.0259 -6.4242
3 19 16 5.5453 7.9174
3 19 18 14.5289 -1.4655
3 20 3 -36.0044 -35.7883
3 20 5 18.6977 -11.9106
3 20 7 2.7183 30.0653
3 20 9 -14.9107 74.4240
3 20 11 4.6191 -19.0352
3 20 13 -41.3661 -5.1651
3 20 15 -12.9335 0.1931
3 20 17 14.1770 4.2218
3 21 4 52.0911 38.9259
3 21 6 37.2333 13.7699
3 21 8 33.5519 -17.0930
3 21 10 -10.5328 -0.0031
3 21 12 1.1646 -2.0011
3 21 14 19.7231 28.6078
3 21 16 -25.8677 -36.3163
3 22 3 -22.6377 30.7597
3 22 5 23.8617 20.4795
3 22 7 38.2724 -27.8570
3 22 9 -29.5933 -31.4605
3 22 11 -6.5103 1.0005
3 22 13 -9.1116 23.7060
3 22 15 -2.7750 3.5132
3 23 4 17.2137 46.5496
3 23 6 -17.0596 55.4025
3 23 8 17.8158 -37.3584
3 23 10 29.0230 -4.9001
3 23 12 -38.7200 4.1199
3 23 14 -11.0565 -13.5252
3 24 3 14.7103 -29.6592
3 24 5 3.6993 5.9050
3 24 7 2.3946 -27.8950
3 24 9 -10.2955 -5.0440
3 24 11 5.0395 -17.0126
3 25 4 13.4942 -27.3509
3 25 6 0.7197 -4.2120
3 25 8 10.0212 -12.7170
3 25 10 -5.4358 -4.2630
3 26 3 -3.7235 -3.5539
3 26 5 3.8512 1.0668
3 26 7 7.7854 27.6545
4 4 4 -121.7374 -214.0334
4 6 4 -211.1888 40.1331
4 7 7 -39.0640 42.0980
4 8 4 15.7171 -43.0114
4 8 6 -3.3919 66.4712
4 9 5 9.9782 2.3926
4 9 7 -10.9734 87.3325
4 10 4 49.4373 -35.2469
4 10 10 6.8401 -96.2134
4 11 5 11.3335 -14.5461
4 11 7 -5.2485 -21.3827
4 11 9 6.6379 31.4477
4 11 11 8.1743 -13.6619
4 12 4 10.8408 85.0934
4 12 6 52.7048 12.4479
4 12 8 -29.8868 30.4612
4 12 10 14.8556 -30.2397
4 12 12 26.0335 42.0402
4 13 5 10.6015 -21.3349
4 13 7 32.4845 -46.2940
4 13 9 -38.2671 -47.0987
4 13 11 -16.4985 18.3603
4 13 13 -45.6369 26.8951
4 14 4 16.5178 17.9752
4 14 6 9.1846 14.9092
4 14 8 -62.8247 46.5094
4 14 10 22.3688 11.9168
4 14 12 -13.3944 -9.2190
4 14 14 7.9178 11.1600
4 15 5 -11.1042 2.1195
4 15 7 -22.1097 14.4426
4 15 9 26.2861 7.5970
4 15 11 -46.4846 19.6694
4 15 13 -26.7394 -49.6521
4 15 15 -51.6375 -0.8055
4 16 4 69.3043 -78.5709
4 16 6 -8.5491 -15.2468
4 16 8 3.0755 7.5085
4 16 10 6.7885 24.4534
4 16 12 5.9972 5.6190
4 16 14 -30.5642 18.7509
4 16 16 -21.5893 29.8190
4 17 5 -2.9335 35.2105
4 17 7 -14.9411 -11.3641
4 17 9 -33.3104 46.5136
4 17 11 32.1801 22.0879
4 17 13 1.9020 -47.8848
4 17 15 -2.4072 8.1978
4 17 17 21.5146 -19.4173
4 18 4 43.8942 -34.3354
4 18 6 100.0278 47.2455
4 18 8 6.7544 -41.5134
4 18 10 -5.2911 24.1952
4 18 12 -14.6439 20.6079
4 18 14 1.2835 -9.5100
4 18 16 -21.9805 12.4173
4 18 18 14.4872 4.6012
4 19 5 62.9211 2.2140
4 19 7 14.3063 -20.7771
4 19 9 -30.1327 -15.0698
4 19 11 23.6022 -25.9454
4 19 13 25.6754 42.3403
4 19 15 -15.4478 16.0672
4 19 17 1.3030 4.5363
4 19 19 0.6896 -13.1619
4 20 4 41.0277 16.5189
4 20 6 13.1935 -4.8571
4 20 8 11.7984 -32.2250
4 20 10 -13.6807 -8.2678
4 20 12 -2.5162 3.3881
4 20 14 -6.2368 1.4436
4 20 16 2.9445 13.6314
4 21 5 39.3407 29.5771
4 21 7 -36.7094 12.0618
4 21 9 12.4361 -3.5642
4 21 11 20.5861 -5.7844
4 21 13 1.9520 -11.3238
4 21 15 11.6298 0.4317
4 22 4 25.3555 0.3007
4 22 6 -17.7080 4.9989
4 22 8 -13.0448 -1.3248
4 22 10 1.4447 -19.9592
4 22 12 4.0998 21.6536
4 22 14 13.9710 27.8839
4 23 5 -2.9596 21.8062
4 23 7 34.9938 -11.2555
4 23 9 1.2746 21.7953
4 23 11 -19.4864 8.9362
4 23 13 -4.2420 -18.1000
4 24 4 9.0008 -8.4050
4 24 6 10.4968 8.4007
4 24 8 -6.1229 40.3490
4 24 10 15.0794 11.4218
4 24 12 13.7073 -7.5007
4 25 5 9.3213 -28.8957
4 25 7 35.6393 0.9053
4 25 9 10.7677 -10.2405
4 26 4 5.7187 -5.5322
4 26 6 -6.3562 8.8141
5 6 5 156.1002 15.2339
5 7 6 18.1104 5.2922
5 8 7 -17.4479 -3.8390
5 9 6 -19.0555 -5.7434
5 9 8 5.0136 -30.2082
5 10 7 -8.2108 65.9325
5 10 9 -25.0483 11.6892
5 11 6 4.7339 23.6912
5 11 8 34.9143 37.9932
5 11 10 16.2476 -26.0058
5 12 5 -22.8378 -0.7201
5 12 7 -10.2315 -18.0443
5 12 9 -32.4697 24.7011
5 12 11 -6.7239 -25.3408
5 13 6 -42.4289 37.0041
5 13 8 -11.1564 22.2325
5 13 10 6.6298 -19.2113
5 13 12 19.0680 21.5002
5 14 5 73.8809 -12.3916
5 14 7 8.3604 -45.9108
5 14 9 69.1483 27.0852
5 14 11 9.9022 17.2131
5 14 13 13.2655 17.6224
5 15 6 -54.1263 7.3234
5 15 8 -16.5991 11.5316
5 15 10 -13.2677 12.9641
5 15 12 -16.5758 57.5323
5 15 14 8.2858 33.4642
5 16 5 6.7674 -82.9822
5 16 7 -18.7537 -37.0050
5 16 9 30.1657 -58.9089
5 16 11 -14.9412 -21.9922
5 16 13 27.8441 -5.5785
5 16 15 10.3486 -11.1294
5 17 6 -4.0077 -16.2607
5 17 8 -4.0985 33.9007
5 17 10 0.0461 14.9117
5 17 12 -15.8995 22.5981
5 17 14 -1.8913 1.0901
5 17 16 8.3184 8.8717
5 18 5 17.5951 -21.6212
5 18 7 6.0088 -37.3514
5 18 9 -9.3131 37.1040
5 18 11 20.5493 -29.7194
5 18 13 4.3737 7.2967
5 18 15 -13.3972 -8.3113
5 18 17 5.7802 7.8213
5 19 6 3.1635 16.8961
5 19 8 -4.0049 -31.2395
5 19 10 -17.1030 10.6281
5 19 12 22.1476 -0.0655
5 19 14 28.8952 -2.6531
5 19 16 24.8226 13.8077
5 19 18 -1.6724 18.1912
5 20 5 -36.7629 54.0139
5 20 7 7.0427 33.2351
5 20 9 -10.6687 -42.1094
5 20 11 9.1965 -0.9454
5 20 13 -18.0262 22.8656
5 20 15 5.4406 -17.5809
5 20 17 1.6067 5.0284
5 21 6 4.5094 14.3087
5 21 8 -28.8396 -24.3181
5 21 10 5.5729 19.0071
5 21 12 -6.4519 15.6907
5 21 14 13.7283 -9.7046
5 21 16 7.9194 9.6607
5 22 5 38.1791 30.0086
5 22 7 16.5418 -34.3250
5 22 9 33.0658 0.8047
5 22 11 -6.8317 -6.7765
5 22 13 30.1534 24.3702
5 22 15 17.3781 -8.2525
5 23 6 29.8760 -1.4196
5 23 8 2.9140 -37.6500
5 23 10 1.3599 -6.3996
5 23 12 -17.6243 -19.4418
5 24 5 -10.8221 7.6178
5 24 7 17.4751 28.4560
5 24 9 -10.8105 16.2406
5 24 11 -6.7129 15.4572
5 25 6 23.2359 -2.2381
5 25 8 -16.1043 -21.8001
5 26 5 5.9994 2.9681
6 6 6 -58.0867 137.8353
6 7 7 -41.7285 -64.6409
6 8 6 38.0075 -72.0552
6 8 8 16.7998 -34.8880
6 9 7 -8.8814 3.3308
6 9 9 -19.2770 24.5822
6 10 6 -37.4675 -42.0051
6 10 8 -58.7992 22.6250
6 10 10 -106.9829 -43.1997
6 11 7 30.6514 13.5732
6 11 9 -1.7764 -1.0164
6 11 11 15.5428 12.2415
6 12 6 86.6083 -20.2082
6 12 8 41.6121 24.7438
6 12 10 56.9046 7.4926
6 12 12 -22.7280 -32.4432
6 13 7 21.0712 30.5494
6 13 9 -18.0561 -51.4368
6 13 11 4.5195 -42.5127
6 13 13 -42.7722 -34.0309
6 14 6 43.6357 25.2075
6 14 8 -7.6280 4.9802
6 14 10 55.3192 22.9046
6 14 12 3.9957 12.6455
6 14 14 6.2381 -2.5369
6 15 7 -13.9944 35.9804
6 15 9 25.2062 15.2133
6 15 11 48.3498 68.6729
6 15 13 -19.7187 -31.0208
6 15 15 -20.7721 20.5197
6 16 6 -17.9267 61.5602
6 16 8 -6.3238 -30.2316
6 16 10 -22.3296 13.3491
6 16 12 -33.3933 33.7507
6 16 14 5.8663 -7.6356
6 16 16 -6.5232 -17.2355
6 17 7 2.5328 11.6169
6 17 9 -6.9205 16.4053
6 17 11 29.5918 -6.8413
6 17 13 45.2108 11.5720
6 17 15 16.4294 5.1358
6 17 17 -11.1237 -6.6723
6 18 6 25.0187 42.8308
6 18 8 -34.7033 -16.5634
6 18 10 -24.5279 -9.9891
6 18 12 -3.3186 6.9145
6 18 14 -49.2063 -9.1254
6 18 16 -7.7145 24.8182
6 18 18 -8.3649 -8.3086
6 19 7 40.5585 -8.2028
6 19 9 9.6483 -16.0689
6 19 11 -28.8290 -9.0642
6 19 13 -0.8882 -11.5010
6 19 15 -7.5006 0.7218
6 19 17 -3.5461 -21.1881
6 20 6 14.1520 79.5917
6 20 8 10.3300 -28.6961
6 20 10 11.7093 -7.7009
6 20 12 -8.5794 20.4759
6 20 14 14.4002 -5.2382
6 20 16 5.2158 11.5219
6 21 7 53.7139 27.5224
6 21 9 -4.8584 17.9780
6 21 11 0.8864 -11.3705
6 21 13 12.9544 5.1634
6 21 15 -12.5246 4.1880
6 22 6 -22.2513 -24.7370
6 22 8 -11.7988 6.8796
6 22 10 6.7418 -24.2542
6 22 12 -13.2994 22.8296
6 22 14 0.0627 1.5933
6 23 7 29.4421 0.2939
6 23 9 -0.1588 -11.0270
6 23 11 5.7048 8.1920
6 23 13 28.2187 12.0711
6 24 6 -18.4927 -1.0302
6 24 8 2.4986 3.7942
6 24 10 3.7578 -1.3110
6 25 7 17.7219 0.6583
7 8 7 -39.9826 -24.8449
7 9 8 -21.6687 -27.9314
7 10 7 -11.4740 40.9268
7 10 9 -22.6216 -20.1920
7 11 8 44.6838 -58.0795
7 11 10 -10.4334 48.3973
7 12 7 -65.3986 -49.8138
7 12 9 -48.6059 77.2745
7 12 11 -32.4153 34.9325
7 13 8 15.5882 7.4818
7 13 10 51.3766 28.4925
7 13 12 3.2478 29.7046
7 14 7 -37.8304 -42.5036
7 14 9 -5.8089 6.0966
7 14 11 -8.3844 14.8334
7 14 13 -4.8674 6.0497
7 15 8 6.0519 22.2049
7 15 10 10.6822 -8.3247
7 15 12 -17.8080 -35.0242
7 15 14 -13.8534 -16.2186
7 16 7 -34.3265 -18.5615
7 16 9 33.9655 19.4830
7 16 11 1.4352 -12.3204
7 16 13 -7.8237 49.5698
7 16 15 7.8399 -34.8432
7 17 8 19.9640 39.5615
7 17 10 -32.2048 -4.9617
7 17 12 -22.9748 -11.0002
7 17 14 17.1570 21.5203
7 17 16 28.8962 -18.2107
7 18 7 24.7504 -2.7632
7 18 9 26.1625 -1.7398
7 18 11 12.0382 21.1234
7 18 13 -2.9226 20.8429
7 18 15 15.4022 19.2183
7 18 17 5.8221 9.4131
7 19 8 -9.2121 -22.0995
7 19 10 2.3614 -2.1539
7 19 12 -9.1129 -5.6140
7 19 14 -1.0067 11.2205
7 19 16 18.6812 -3.7423
7 19 18 -1.2296 -4.0988
7 20 7 -4.6253 3.4010
7 20 9 -1.9198 -6.4754
7 20 11 11.3664 -6.6407
7 20 13 9.4542 16.6325
7 20 15 -4.9109 -7.9123
7 20 17 11.8169 39.0378
7 21 8 1.2783 -25.9451
7 21 10 10.6163 -1.8803
7 21 12 22.2103 -3.0418
7 21 14 17.1643 12.9810
7 22 7 5.8297 22.0278
7 22 9 -7.1259 -13.4996
7 22 11 11.3160 -1.0233
7 22 13 -6.8195 1.1823
7 23 8 -6.1914 2.8402
7 23 10 6.1846 9.7762
7 23 12 -10.4850 -17.1168
7 24 7 -32.1997 30.5497
7 24 9 1.3714 14.2263
7 25 8 -3.8871 49.7561
8 8 8 -52.0959 9.1932
8 9 9 37.6201 -58.2153
8 10 8 -1.1373 -16.3772
8 10 10 3.2733 56.2531
8 11 9 -0.1370 -28.0327
8 11 11 9.3048 23.4888
8 12 8 47.7592 61.7042
8 12 10 32.5583 21.6987
8 12 12 -5.9241 -16.9865
8 13 9 -41.0495 -32.7914
8 13 11 -10.7403 -9.6718
8 13 13 -0.0151 -15.4626
8 14 8 -1.7397 5.9223
8 14 10 -4.3514 0.7083
8 14 12 13.0288 2.8550
8 14 14 9.5204 -10.0753
8 15 9 4.2972 9.0851
8 15 11 30.0561 -25.5656
8 15 13 -12.4601 -26.4119
8 15 15 -24.3688 32.4945
8 16 8 16.1811 -13.8481
8 16 10 -22.8598 -18.5318
8 16 12 15.4033 5.5025
8 16 14 -7.2938 1.0546
8 16 16 5.1095 -9.5206
8 17 9 4.1908 -33.8714
8 17 11 5.8270 -19.2537
8 17 13 28.2484 0.0188
8 17 15 13.9604 16.9198
8 17 17 -4.6181 -19.3007
8 18 8 -41.5923 -14.6300
8 18 10 -10.6471 -1.4056
8 18 12 -3.5392 6.1337
8 18 14 14.3349 3.5425
8 18 16 2.5884 -4.4906
8 18 18 -7.6012 -1.5988
8 19 9 25.9673 -19.4144
8 19 11 2.6967 3.8823
8 19 13 -5.7442 22.6752
8 19 15 2.4477 6.8997
8 19 17 11.1725 -7.6082
8 20 8 0.0973 8.2859
8 20 10 20.3016 -17.4451
8 20 12 18.2235 2.7705
8 20 14 -13.6671 3.7572
8 20 16 17.0518 -16.3949
8 21 9 -11.3566 -2.7655
8 21 11 -15.0554 -6.1890
8 21 13 4.8876 2.2350
8 21 15 -12.2412 3.3652
8 22 8 -2.2127 -11.6743
8 22 10 2.3430 14.3163
8 22 12 -7.8961 9.6421
8 23 9 -20.7812 5.2891
8 23 11 3.6344 -28.6344
8 24 8 28.5405 10.3995
9 10 9 72.2489 -2.1893
9 11 10 -31.1897 4.8399
9 12 9 -68.1091 68.0760
9 12 11 5.4685 22.5293
9 13 10 -30.4788 42.6387
9 13 12 10.9540 11.7822
9 14 9 32.8273 7.0751
9 14 11 -26.8265 -21.1498
9 14 13 31.9285 27.3640
9 15 10 4.9933 -1.4567
9 15 12 -6.0969 -4.1367
9 15 14 22.7559 -25.9355
9 16 9 32.7097 -28.1766
9 16 11 -20.2921 5.7813
9 16 13 -9.0894 2.0266
9 16 15 26.8992 -10.9956
9 17 10 24.3910 15.4857
9 17 12 -0.0151 -3.8086
9 17 14 34.5261 15.3238
9 17 16 -7.6568 -4.9590
9 18 9 5.3279 29.4115
9 18 11 -35.0529 6.5706
9 18 13 7.8846 -1.9986
9 18 15 12.4563 -15.2173
9 18 17 -7.5434 -5.8372
9 19 10 -3.5889 -26.0924
9 19 12 -3.9653 2.6872
9 19 14 19.3796 -2.1207
9 19 16 -9.5661 8.3495
9 20 9 -41.2221 23.2995
9 20 11 3.1742 3.7538
9 20 13 -4.2816 -32.0166
9 20 15 8.7318 2.9020
9 21 10 4.3271 -5.6733
9 21 12 24.0911 -13.1438
9 21 14 1.2230 -6.1764
9 22 9 17.6797 25.4100
9 22 11 18.5944 -16.3757
9 22 13 -22.1467 -14.1838
9 23 10 4.7611 33.0971
9 24 9 -6.7664 -22.6657
10 10 10 29.5486 -13.2402
10 11 11 17.2474 -4.9614
10 12 10 -7.6053 31.3831
10 12 12 15.1906 1.6360
10 13 11 9.4589 15.8915
10 13 13 -34.1782 -10.5783
10 14 10 -41.3706 -12.5963
10 14 12 7.0304 -6.8558
10 14 14 -46.8971 6.0783
10 15 11 -5.0504 17.3819
10 15 13 4.8634 -21.5842
10 15 15 -12.2830 12.6661
10 16 10 -18.4951 -20.6610
10 16 12 -26.3367 8.1966
10 16 14 -4.7468 9.2932
10 16 16 17.2654 8.1002
10 17 11 6.9079 -55.0243
10 17 13 -7.0088 -21.3590
10 17 15 -3.2229 -4.9390
10 17 17 13.5151 -2.4803
10 18 10 11.0273 -3.1271
10 18 12 26.8826 26.7569
10 18 14 -5.9457 7.6164
10 18 16 8.9956 -15.2757
10 19 11 -11.6999 6.6841
10 19 13 12.8191 4.9941
10 19 15 -19.8133 -29.6166
10 20 10 -26.2288 -22.4038
10 20 12 1.6379 3.2525
10 20 14 -4.5098 -14.4792
10 21 11 -16.3966 11.7346
10 21 13 -17.3789 -0.6881
10 22 10 -10.9784 21.8668
10 22 12 4.6890 13.2298
11 12 11 -0.6528 -38.9967
11 13 12 -47.7415 14.1345
11 14 11 -73.4227 22.1643
11 14 13 -45.7835 -13.7930
11 15 12 0.1924 0.1519
11 15 14 9.2048 0.8450
11 16 11 -35.9776 5.0459
11 16 13 -4.9224 -3.1879
11 16 15 11.1509 31.9803
11 17 12 17.3829 -21.0194
11 17 14 47.5293 4.3777
11 17 16 7.7458 -6.2540
11 18 11 13.2097 -34.8787
11 18 13 24.4816 -20.1195
11 18 15 9.1598 -8.2828
11 18 17 -26.1176 -15.6110
11 19 12 8.5450 -25.0161
11 19 14 20.4668 -15.3695
11 20 11 9.0495 -16.8356
11 20 13 6.2272 3.9631
11 21 12 -4.1597 16.0592
11 22 11 0.1426 6.0196
12 13 13 8.1653 41.1185
12 14 12 15.1259 -31.5600
12 14 14 30.5583 24.3805
12 15 13 0.5203 47.6386
12 15 15 12.3729 4.2426
12 16 12 29.0232 -34.7981
12 16 14 -14.8978 -13.2453
12 16 16 10.9892 -6.1377
12 17 13 -9.0659 -17.6675
12 17 15 -13.4662 -11.7014
12 17 17 12.4478 -8.5215
12 18 12 -19.5987 21.3162
12 18 14 -19.2370 -16.1441
12 18 16 -10.1452 -21.4776
12 19 13 3.8306 1.1334
12 19 15 3.7691 -19.9942
12 20 12 3.1330 36.5163
13 14 13 -33.6065 -3.0059
13 15 14 -7.2966 21.4688
13 16 13 -19.0836 -33.8977
13 16 15 -12.5547 -20.5593
13 17 14 -18.6552 19.6545
13 17 16 22.6489 14.8174
13 18 13 6.1079 -6.5264
13 18 15 -1.5894 -4.6294
13 19 14 18.6303 -2.6982
13 20 13 9.3509 7.5598
14 14 14 52.6907 3.1076
14 15 15 -37.9681 -35.6726
14 16 14 14.4258 -10.2669
14 16 16 -23.0261 -8.1088
14 17 15 9.8139 -16.5606
14 18 14 -5.3890 -11.0210
15 16 15 25.0109 -3.8615
0 0 0 0.0 0.0
;
_shelx_fab_checksum              53067
_olex2_submission_special_instructions 'No special instructions were received'
loop_
_space_group_symop_operation_xyz
'x, y, z'
'-x, -y, z'
'-x, y, -z'
'x, -y, -z'
'z, x, y'
'z, -x, -y'
'-z, -x, y'
'-z, x, -y'
'y, z, x'
'-y, z, -x'
'y, -z, -x'
'-y, -z, x'
'y, x, z'
'-y, -x, z'
'y, -x, -z'
'-y, x, -z'
'x, z, y'
'-x, z, -y'
'-x, -z, y'
'x, -z, -y'
'z, y, x'
'z, -y, -x'
'-z, y, -x'
'-z, -y, x'
'x+1/2, y+1/2, z+1/2'
'-x+1/2, -y+1/2, z+1/2'
'-x+1/2, y+1/2, -z+1/2'
'x+1/2, -y+1/2, -z+1/2'
'z+1/2, x+1/2, y+1/2'
'z+1/2, -x+1/2, -y+1/2'
'-z+1/2, -x+1/2, y+1/2'
'-z+1/2, x+1/2, -y+1/2'
'y+1/2, z+1/2, x+1/2'
'-y+1/2, z+1/2, -x+1/2'
'y+1/2, -z+1/2, -x+1/2'
'-y+1/2, -z+1/2, x+1/2'
'y+1/2, x+1/2, z+1/2'
'-y+1/2, -x+1/2, z+1/2'
'y+1/2, -x+1/2, -z+1/2'
'-y+1/2, x+1/2, -z+1/2'
'x+1/2, z+1/2, y+1/2'
'-x+1/2, z+1/2, -y+1/2'
'-x+1/2, -z+1/2, y+1/2'
'x+1/2, -z+1/2, -y+1/2'
'z+1/2, y+1/2, x+1/2'
'z+1/2, -y+1/2, -x+1/2'
'-z+1/2, y+1/2, -x+1/2'
'-z+1/2, -y+1/2, x+1/2'
loop_
_atom_site_label
_atom_site_type_symbol
_atom_site_fract_x
_atom_site_fract_y
_atom_site_fract_z
_atom_site_U_iso_or_equiv
_atom_site_adp_type
_atom_site_occupancy
_atom_site_site_symmetry_order
_atom_site_calc_flag
_atom_site_refinement_flags_posn
_atom_site_refinement_flags_adp
_atom_site_refinement_flags_occupancy
_atom_site_disorder_assembly
_atom_site_disorder_group
Fe1 Fe 0.62807(8) 0.69940(6) 0.30060(6) 0.0231(10) Uani 1 2 d S TU P . .
O1 O 0.6505(3) 0.7593(3) 0.3019(3) 0.061(3) Uani 1 1 d . U . . .
O4 O 0.5995(3) 0.6434(3) 0.2905(3) 0.052(3) Uani 1 1 d . U . . .
O2 O 0.6772(3) 0.6772(3) 0.3228(3) 0.0288(14) Uani 1 6 d S TU P . .
N1 N 0.5738(5) 0.7291(4) 0.2709(4) 0.047(2) Uani 1 2 d DS TU P . .
C1 C 0.5790(4) 0.5790(4) 0.2920(6) 0.036(2) Uani 1 2 d DS TU P . .
C4 C 0.6752(4) 0.7759(5) 0.3248(4) 0.020(2) Uani 1 2 d S TU P . .
C6 C 0.5164(4) 0.5164(4) 0.2902(7) 0.069(2) Uani 1 2 d DS TU P . .
C8 C 0.6114(5) 0.6114(5) 0.2864(6) 0.035(2) Uani 1 2 d S TU P . .
N2 N 0.4627(5) 0.7783(8) 0.2274(8) 0.079(6) Uani 0.5 1 d D U P A -1
H2 H 0.4556 0.8020 0.2372 0.095 Uiso 0.5 1 calc R U P A -1
C10 C 0.5013(6) 0.7611(5) 0.2389(5) 0.090(2) Uani 1 2 d DS TU P . .
C12 C 0.5879(4) 0.5382(4) 0.2893(4) 0.048(4) Uani 1 1 d D U . . .
H12 H 0.6156 0.5308 0.2864 0.058 Uiso 1 1 calc R U . . .
C14 C 0.5576(4) 0.5048(5) 0.2905(7) 0.096(7) Uani 1 1 d D U . . .
H14 H 0.5656 0.4771 0.2914 0.116 Uiso 1 1 calc R U . . .
C16 C 0.5589(5) 0.7121(6) 0.2338(5) 0.097(6) Uani 1 1 d D U . . .
H16 H 0.5712 0.6892 0.2213 0.116 Uiso 1 1 calc R U . . .
C2 C 0.5239(5) 0.7321(5) 0.2166(5) 0.085(5) Uani 1 1 d D U . . .
H2A H 0.5158 0.7256 0.1897 0.103 Uiso 1 1 calc R U . . .
O3 O 0.4509(7) 0.7446(9) 0.1613(6) 0.109(8) Uani 0.5 1 d D U P A -1
C9 C 0.4352(7) 0.7575(8) 0.2001(6) 0.102(8) Uani 0.5 1 d D U P A -1
C5 C 0.4033(5) 0.7865(7) 0.1923(6) 0.088(9) Uani 0.5 1 d DG U P A -1
C11 C 0.3824(7) 0.8031(7) 0.2256(6) 0.092(10) Uani 0.5 1 d DG U P A -1
H11 H 0.3955 0.8052 0.2512 0.111 Uiso 0.5 1 calc R U P A -1
C3 C 0.3422(7) 0.8165(7) 0.2211(7) 0.125(17) Uani 0.5 1 d G U P A -1
H3 H 0.3281 0.8277 0.2436 0.151 Uiso 0.5 1 calc R U P A -1
C13 C 0.3229(5) 0.8134(8) 0.1832(8) 0.084(8) Uani 0.5 1 d G U P A -1
C7 C 0.3437(6) 0.7968(8) 0.1499(6) 0.079(9) Uani 0.5 1 d G U P A -1
H7 H 0.3306 0.7947 0.1243 0.095 Uiso 0.5 1 calc R U P A -1
C15 C 0.3839(6) 0.7834(7) 0.1544(5) 0.082(9) Uani 0.5 1 d DG U P A -1
H15 H 0.3980 0.7722 0.1319 0.099 Uiso 0.5 1 calc R U P A -1
loop_
_atom_site_aniso_label
_atom_site_aniso_U_11
_atom_site_aniso_U_22
_atom_site_aniso_U_33
_atom_site_aniso_U_23
_atom_site_aniso_U_13
_atom_site_aniso_U_12
Fe1 0.0183(18) 0.0255(13) 0.0255(13) 0.0000(16) 0.0005(10) -0.0005(10)
O1 0.065(6) 0.042(5) 0.076(6) 0.017(5) -0.044(6) -0.011(4)
O4 0.013(5) 0.036(5) 0.105(8) 0.001(4) -0.016(5) -0.007(4)
O2 0.0288(14) 0.0288(14) 0.0288(14) 0.0002(8) 0.0002(8) -0.0002(8)
N1 0.047(3) 0.047(2) 0.047(2) 0.0002(14) -0.0005(10) 0.0005(10)
C1 0.036(2) 0.036(2) 0.036(3) 0.0001(10) 0.0001(10) -0.0003(14)
C4 0.020(2) 0.020(3) 0.020(2) 0.0003(10) 0.0002(14) -0.0003(10)
C6 0.069(2) 0.069(2) 0.069(3) -0.0001(10) -0.0001(10) -0.0002(15)
C8 0.035(2) 0.035(2) 0.035(3) -0.0005(10) -0.0005(10) 0.0000(14)
N2 0.077(9) 0.091(16) 0.068(14) 0.009(10) 0.005(9) 0.012(9)
C10 0.090(3) 0.090(2) 0.090(2) -0.0001(15) -0.0002(10) 0.0002(10)
C12 0.050(9) 0.042(7) 0.052(11) -0.009(6) -0.019(7) 0.008(5)
C14 0.067(8) 0.053(9) 0.17(2) -0.001(10) -0.001(8) -0.009(7)
C16 0.087(9) 0.117(11) 0.086(9) -0.016(8) -0.018(7) 0.011(8)
C2 0.082(8) 0.100(9) 0.074(9) -0.005(7) -0.010(7) 0.009(7)
O3 0.088(14) 0.142(18) 0.097(12) -0.008(12) -0.015(10) 0.034(13)
C9 0.098(10) 0.109(13) 0.100(12) -0.002(9) -0.006(8) 0.012(9)
C5 0.081(11) 0.093(14) 0.091(11) 0.001(9) -0.004(8) 0.001(9)
C11 0.083(12) 0.102(15) 0.091(12) 0.000(9) -0.005(9) 0.002(10)
C3 0.091(14) 0.19(4) 0.100(15) -0.019(17) -0.013(11) 0.028(18)
C13 0.078(11) 0.085(14) 0.089(12) 0.012(10) -0.001(9) -0.001(10)
C7 0.073(13) 0.08(2) 0.090(14) 0.010(13) -0.002(10) -0.005(13)
C15 0.076(11) 0.085(15) 0.086(11) 0.002(9) 0.000(8) -0.002(10)
loop_
_atom_type_symbol
_atom_type_description
_atom_type_scat_dispersion_real
_atom_type_scat_dispersion_imag
_atom_type_scat_source
C C 0.0181 0.0091 'International Tables Vol C Tables 4.2.6.8 and 6.1.1.4'
H H 0.0000 0.0000 'International Tables Vol C Tables 4.2.6.8 and 6.1.1.4'
Fe Fe -1.1336 3.1974 'International Tables Vol C Tables 4.2.6.8 and 6.1.1.4'
N N 0.0311 0.0180 'International Tables Vol C Tables 4.2.6.8 and 6.1.1.4'
O O 0.0492 0.0322 'International Tables Vol C Tables 4.2.6.8 and 6.1.1.4'
loop_
_geom_angle_atom_site_label_1
_geom_angle_atom_site_label_2
_geom_angle_atom_site_label_3
_geom_angle
_geom_angle_site_symmetry_1
_geom_angle_site_symmetry_3
_geom_angle_publ_flag
O1 Fe1 O1 85.0(6) . 20_566 ?
O1 Fe1 N1 83.1(4) . . ?
O1 Fe1 N1 83.1(4) 20_566 . ?
O4 Fe1 O1 169.7(4) 20_566 20_566 ?
O4 Fe1 O1 89.5(4) . 20_566 ?
O4 Fe1 O1 89.5(4) 20_566 . ?
O4 Fe1 O1 169.7(4) . . ?
O4 Fe1 O4 94.5(6) 20_566 . ?
O4 Fe1 N1 87.6(4) . . ?
O4 Fe1 N1 87.6(4) 20_566 . ?
O2 Fe1 O1 93.0(5) . 20_566 ?
O2 Fe1 O1 93.0(5) . . ?
O2 Fe1 O4 96.0(5) . . ?
O2 Fe1 O4 96.0(5) . 20_566 ?
O2 Fe1 N1 174.7(8) . . ?
C4 O1 Fe1 131.1(10) . . ?
C8 O4 Fe1 133.0(13) . . ?
Fe1 O2 Fe1 119.77(10) 11_566 8_656 ?
Fe1 O2 Fe1 119.77(10) 8_656 . ?
Fe1 O2 Fe1 119.77(10) 11_566 . ?
C16 N1 Fe1 118.1(9) . . ?
C16 N1 Fe1 118.1(9) 20_566 . ?
C16 N1 C16 123.4(18) 20_566 . ?
C12 C1 C8 121.9(9) . . ?
C12 C1 C8 121.9(9) 13 . ?
C12 C1 C12 114.2(17) . 13 ?
O1 C4 O1 127.3(18) 23_656 . ?
C14 C6 C6 119.3(10) . 2_665 ?
C14 C6 C6 119.3(10) 13 2_665 ?
C14 C6 C14 121(2) . 13 ?
O4 C8 O4 129(2) . 13 ?
O4 C8 C1 113.4(12) 13 . ?
O4 C8 C1 113.4(12) . . ?
C10 N2 H2 119.0 . . ?
C10 N2 C9 122(2) . . ?
C9 N2 H2 119.0 . . ?
C2 C10 N2 126.2(17) . . ?
C2 C10 N2 115.9(14) 20_566 . ?
C2 C10 C2 115.1(19) . 20_566 ?
C1 C12 H12 117.3 . . ?
C1 C12 C14 125.3(14) . . ?
C14 C12 H12 117.3 . . ?
C6 C14 C12 116.5(15) . . ?
C6 C14 H14 121.7 . . ?
C12 C14 H14 121.7 . . ?
N1 C16 H16 122.3 . . ?
N1 C16 C2 115.5(16) . . ?
C2 C16 H16 122.3 . . ?
C10 C2 C16 121.6(16) . . ?
C10 C2 H2A 119.2 . . ?
C16 C2 H2A 119.2 . . ?
O3 C9 N2 118(3) . . ?
C5 C9 N2 104.7(14) . . ?
C5 C9 O3 107.3(16) . . ?
C11 C5 C9 118.3(11) . . ?
C11 C5 C15 120.0 . . ?
C15 C5 C9 116.2(11) . . ?
C5 C11 H11 120.0 . . ?
C3 C11 C5 120.0 . . ?
C3 C11 H11 120.0 . . ?
C11 C3 H3 120.0 . . ?
C13 C3 C11 120.0 . . ?
C13 C3 H3 120.0 . . ?
C7 C13 C3 120.0 . . ?
C13 C7 H7 120.0 . . ?
C13 C7 C15 120.0 . . ?
C15 C7 H7 120.0 . . ?
C5 C15 H15 120.0 . . ?
C7 C15 C5 120.0 . . ?
C7 C15 H15 120.0 . . ?
loop_
_geom_bond_atom_site_label_1
_geom_bond_atom_site_label_2
_geom_bond_distance
_geom_bond_site_symmetry_2
_geom_bond_publ_flag
Fe1 O1 2.086(9) . ?
Fe1 O1 2.086(9) 20_566 ?
Fe1 O4 2.077(9) . ?
Fe1 O4 2.077(9) 20_566 ?
Fe1 O2 1.901(3) . ?
Fe1 N1 2.238(16) . ?
O1 C4 1.225(11) . ?
O4 C8 1.120(11) . ?
O2 Fe1 1.901(3) 11_566 ?
O2 Fe1 1.901(3) 8_656 ?
N1 C16 1.415(16) 20_566 ?
N1 C16 1.416(16) . ?
C1 C8 1.50(3) . ?
C1 C12 1.365(14) . ?
C1 C12 1.365(14) 13 ?
C4 O1 1.224(11) 23_656 ?
C6 C6 1.51(4) 2_665 ?
C6 C14 1.397(16) 13 ?
C6 C14 1.397(16) . ?
C8 O4 1.120(11) 13 ?
N2 H2 0.8700 . ?
N2 C10 1.4300(15) . ?
N2 C9 1.4300(15) . ?
C10 C2 1.401(16) 20_566 ?
C10 C2 1.401(16) . ?
C12 H12 0.9400 . ?
C12 C14 1.469(15) . ?
C14 H14 0.9400 . ?
C16 H16 0.9400 . ?
C16 C2 1.428(15) . ?
C2 H2A 0.9400 . ?
O3 C9 1.4300(15) . ?
C9 C5 1.4301(15) . ?
C5 C11 1.3900 . ?
C5 C15 1.3900 . ?
C11 H11 0.9400 . ?
C11 C3 1.3900 . ?
C3 H3 0.9400 . ?
C3 C13 1.3900 . ?
C13 C7 1.3900 . ?
C7 H7 0.9400 . ?
C7 C15 1.3900 . ?
C15 H15 0.9400 . ?
loop_
_geom_torsion_atom_site_label_1
_geom_torsion_atom_site_label_2
_geom_torsion_atom_site_label_3
_geom_torsion_atom_site_label_4
_geom_torsion
_geom_torsion_site_symmetry_1
_geom_torsion_site_symmetry_2
_geom_torsion_site_symmetry_3
_geom_torsion_site_symmetry_4
_geom_torsion_publ_flag
Fe1 O1 C4 O1 13(3) . . . 23_656 ?
Fe1 O4 C8 O4 8(4) . . . 13 ?
Fe1 O4 C8 C1 163.2(11) . . . . ?
Fe1 N1 C16 C2 179.1(13) . . . . ?
N1 C16 C2 C10 -12(3) . . . . ?
C1 C12 C14 C6 7(3) . . . . ?
C6 C6 C14 C12 178.3(11) 2_665 . . . ?
C8 C1 C12 C14 -174.0(17) . . . . ?
N2 C10 C2 C16 -170(2) . . . . ?
N2 C9 C5 C11 -55(3) . . . . ?
N2 C9 C5 C15 150.9(16) . . . . ?
C10 N2 C9 O3 -54(3) . . . . ?
C10 N2 C9 C5 -173(2) . . . . ?
C12 C1 C8 O4 178.3(17) 13 . . 13 ?
C12 C1 C8 O4 19(3) 13 . . . ?
C12 C1 C8 O4 -178.3(17) . . . . ?
C12 C1 C8 O4 -19(3) . . . 13 ?
C12 C1 C12 C14 -10(3) 13 . . . ?
C14 C6 C14 C12 -3(4) 13 . . . ?
C16 N1 C16 C2 -7(3) 20_566 . . . ?
C2 C10 C2 C16 30(4) 20_566 . . . ?
O3 C9 C5 C11 179(2) . . . . ?
O3 C9 C5 C15 25(3) . . . . ?
C9 N2 C10 C2 -176(2) . . . 20_566 ?
C9 N2 C10 C2 24(4) . . . . ?
C9 C5 C11 C3 -153(2) . . . . ?
C9 C5 C15 C7 153(2) . . . . ?
C5 C11 C3 C13 0.0 . . . . ?
C11 C5 C15 C7 0.0 . . . . ?
C11 C3 C13 C7 0.0 . . . . ?
C3 C13 C7 C15 0.0 . . . . ?
C13 C7 C15 C5 0.0 . . . . ?
C15 C5 C11 C3 0.0 . . . . ?
loop_
_smtbx_masks_void_nr
_smtbx_masks_void_average_x
_smtbx_masks_void_average_y
_smtbx_masks_void_average_z
_smtbx_masks_void_volume
_smtbx_masks_void_count_electrons
_smtbx_masks_void_content
1 -0.375 -0.476 -0.579 25410.6 5182.6 ?
