#------------------------------------------------------------------------------
#$Date: 2022-01-03 22:21:37 +0200 (Mon, 03 Jan 2022) $
#$Revision: 271715 $
#$URL: file:///home/coder/svn-repositories/cod/cif/4/51/92/4519219.cif $
#------------------------------------------------------------------------------
#
# This file is available in the Crystallography Open Database (COD),
# http://www.crystallography.net/
#
# All data on this site have been placed in the public domain by the
# contributors.
#
data_4519219
loop_
_publ_author_name
'Liu, Wansheng'
'Yang, Yi'
'Yang, Xiaojie'
'Peng, Yun-Lei'
'Cheng, Peng'
'Zhang, Zhenjie'
'Chen, Yao'
_publ_section_title
;
 Template-Directed Fabrication of Highly Efficient Metal-Organic Framework
 Photocatalysts.
;
_journal_issue                   49
_journal_name_full               'ACS applied materials &amp; interfaces'
_journal_page_first              58619
_journal_page_last               58629
_journal_paper_doi               10.1021/acsami.1c17925
_journal_volume                  13
_journal_year                    2021
_chemical_formula_moiety         'C24 H12 Cl0.25 N3 O6 Zn1.5, C2 H6 N'
_chemical_formula_sum            'C26 H18 Cl0.25 N4 O6 Zn1.5'
_chemical_formula_weight         589.36
_chemical_name_systematic        Zn-TATB
_space_group_crystal_system      tetragonal
_space_group_IT_number           95
_space_group_name_Hall           'P 4cw 2c'
_space_group_name_H-M_alt        'P 43 2 2'
_atom_sites_solution_hydrogens   difmap
_audit_creation_date             2021-01-18
_audit_creation_method
;
Olex2 1.3
(compiled 2020.11.12 svn.r5f609507 for OlexSys, GUI svn.r6226)
;
_cell_angle_alpha                90
_cell_angle_beta                 90
_cell_angle_gamma                90
_cell_formula_units_Z            8
_cell_length_a                   17.9580(2)
_cell_length_b                   17.9580(2)
_cell_length_c                   26.0252(5)
_cell_measurement_reflns_used    4927
_cell_measurement_temperature    120
_cell_measurement_theta_max      26.7070
_cell_measurement_theta_min      3.3260
_cell_volume                     8392.9(2)
_computing_molecular_graphics    'Olex2 1.3 (Dolomanov et al., 2009)'
_computing_publication_material  'Olex2 1.3 (Dolomanov et al., 2009)'
_computing_structure_refinement  'SHELXL 2018/3 (Sheldrick, 2015)'
_computing_structure_solution    'SHELXT 2018/2 (Sheldrick, 2018)'
_diffrn_ambient_temperature      120
_diffrn_detector                 'CCD area detector'
_diffrn_detector_area_resol_mean 5.6
_diffrn_detector_type            'Bruker SMART CCD 6000 area detector'
_diffrn_measured_fraction_theta_full 0.990
_diffrn_measured_fraction_theta_max 0.990
_diffrn_measurement_device       'three-circle diffractometer'
_diffrn_measurement_device_type  'Bruker SMART CCD 6000'
_diffrn_measurement_method       '\w scans'
_diffrn_radiation_monochromator  graphite
_diffrn_radiation_probe          x-ray
_diffrn_radiation_type           MoK\a
_diffrn_radiation_wavelength     0.71073
_diffrn_reflns_av_R_equivalents  0.0439
_diffrn_reflns_av_unetI/netI     0.0634
_diffrn_reflns_Laue_measured_fraction_full 0.990
_diffrn_reflns_Laue_measured_fraction_max 0.990
_diffrn_reflns_limit_h_max       18
_diffrn_reflns_limit_h_min       -15
_diffrn_reflns_limit_k_max       13
_diffrn_reflns_limit_k_min       -20
_diffrn_reflns_limit_l_max       28
_diffrn_reflns_limit_l_min       -30
_diffrn_reflns_number            16413
_diffrn_reflns_point_group_measured_fraction_full 0.986
_diffrn_reflns_point_group_measured_fraction_max 0.986
_diffrn_reflns_theta_full        24.495
_diffrn_reflns_theta_max         24.495
_diffrn_reflns_theta_min         3.131
_diffrn_source                   'sealed X-ray tube'
_diffrn_source_target            Mo
_exptl_absorpt_coefficient_mu    0.910
_exptl_absorpt_correction_T_max  1.00000
_exptl_absorpt_correction_T_min  0.67689
_exptl_absorpt_correction_type   multi-scan
_exptl_crystal_colour            'clear light red'
_exptl_crystal_colour_lustre     clear
_exptl_crystal_colour_modifier   light
_exptl_crystal_colour_primary    red
_exptl_crystal_density_diffrn    0.933
_exptl_crystal_description       plate
_exptl_crystal_F_000             2394
_exptl_crystal_size_max          0.2
_exptl_crystal_size_mid          0.2
_exptl_crystal_size_min          0.2
_refine_diff_density_max         1.208
_refine_diff_density_min         -0.971
_refine_diff_density_rms         0.094
_refine_ls_abs_structure_details
;
 Flack x determined using 2146 quotients [(I+)-(I-)]/[(I+)+(I-)]
 (Parsons, Flack and Wagner, Acta Cryst. B69 (2013) 249-259).
;
_refine_ls_abs_structure_Flack   0.019(10)
_refine_ls_extinction_method     none
_refine_ls_goodness_of_fit_ref   1.072
_refine_ls_hydrogen_treatment    constr
_refine_ls_matrix_type           full
_refine_ls_number_parameters     371
_refine_ls_number_reflns         6898
_refine_ls_number_restraints     64
_refine_ls_restrained_S_all      1.083
_refine_ls_R_factor_all          0.0660
_refine_ls_R_factor_gt           0.0540
_refine_ls_shift/su_max          0.001
_refine_ls_shift/su_mean         0.000
_refine_ls_structure_factor_coef Fsqd
_refine_ls_weighting_details
'w=1/[\s^2^(Fo^2^)+(0.0826P)^2^+15.7468P] where P=(Fo^2^+2Fc^2^)/3'
_refine_ls_weighting_scheme      calc
_refine_ls_wR_factor_gt          0.1547
_refine_ls_wR_factor_ref         0.1633
_reflns_Friedel_coverage         0.742
_reflns_Friedel_fraction_full    0.979
_reflns_Friedel_fraction_max     0.979
_reflns_number_gt                5776
_reflns_number_total             6898
_reflns_threshold_expression     'I > 2\s(I)'
_cod_data_source_file            am1c17925_si_005.cif
_cod_data_source_block           NKMOF-9-Zn
_cod_original_formula_sum        'C26 H18 Cl0.25 N4 O6 Zn1.50'
_cod_database_code               4519219
_shelx_shelxl_version_number     2018/3
_shelx_space_group_comment
;
The symmetry employed for this shelxl refinement is uniquely defined
by the following loop, which should always be used as a source of
symmetry information in preference to the above space-group names.
They are only intended as comments.
;
_shelx_estimated_absorpt_t_max   0.839
_shelx_estimated_absorpt_t_min   0.839
_olex2_refinement_description
;
1. Fixed Uiso
 At 1.2 times of:
  All C(H) groups
 At 1.5 times of:
  All C(H,H,H) groups
2. Restrained distances
 N2-C60 = N2-C13
 1.445 with sigma of 0.0001
 C60-C13
 2.5 with sigma of 0.001
 N1-C7 \\sim N1-C2
 with sigma of 0.001
3. Uiso/Uaniso restraints and constraints
Uanis(C13) \\sim Ueq, Uanis(N2) \\sim Ueq, Uanis(C60) \\sim Ueq: with sigma of
0.001 and sigma for terminal atoms of 0.002
Uanis(C7) \\sim Ueq, Uanis(N1) \\sim Ueq, Uanis(C2) \\sim Ueq: with sigma of
0.01 and sigma for terminal atoms of 0.02
Uanis(C00J) \\sim Ueq: with sigma of 0.01 and sigma for terminal atoms of 0.02
4. Rigid body (RIGU) restrains
 C13, N2, C60
 with sigma for 1-2 distances of 0.001 and sigma for 1-3 distances of 0.001
 C2, N1, C7
 with sigma for 1-2 distances of 0.001 and sigma for 1-3 distances of 0.001
5. Others
 Fixed Sof: Cl00(0.25) N1(0.5) C2(0.5) H2A(0.5) H2B(0.5) H2C(0.5) C7(0.5)
 H7A(0.5) H7B(0.5) H7C(0.5) N2(0.5) C13(0.5) H13A(0.5) H13B(0.5) H13C(0.5)
 C60(0.5) H60A(0.5) H60B(0.5) H60C(0.5)
6.a Riding coordinates:
 C00I(H00I), C00J(H00J), C00L(H00L), C00M(H00M), C00O(H00O), C00Q(H00Q),
 C00S(H00S), C00V(H00V), C00W(H00W), C00X(H00X), C00Z(H00Z), C010(H010), C2(H2A,
 H2B,H2C), C7(H7A,H7B,H7C), C13(H13A,H13B,H13C), C60(H60A,H60B,H60C)
;
_shelx_res_file
;
TITL p20210117e1_a.res in P4(3)22
    p20210117e1_sq.res
    created by SHELXL-2018/3 at 10:55:27 on 18-Jan-2021
REM Old TITL p20210117E1 in P4(1)2(1)2
REM SHELXT solution in P4(3)22: R1 0.124, Rweak 0.014, Alpha 0.006
REM <I/s> 0.749 for 21 systematic absences, Orientation as input
REM Flack x = 0.131 ( 0.011 ) from 2599 Parsons' quotients
REM Formula found by SHELXT: C50 N8 O13 Zn2 Ru
CELL 0.71073 17.958 17.958 26.0252 90 90 90
ZERR 8 0.0002 0.0002 0.0005 0 0 0
LATT -1
SYMM -Y,+X,0.75+Z
SYMM -X,-Y,0.5+Z
SYMM +Y,-X,0.25+Z
SYMM +X,-Y,0.5-Z
SYMM -X,+Y,-Z
SYMM +Y,+X,0.25-Z
SYMM -Y,-X,0.75-Z
SFAC C H Cl N O Zn
UNIT 208 144 2 32 48 12
RIGU 0.001 0.001 C13 N2 C60
ISOR 0.001 0.002 C13 N2 C60
RIGU 0.001 0.001 C2 N1 C7
SADI 0.001 N1 C7 N1 C2
DFIX 1.445 0.0001 N2 C60 N2 C13
ISOR 0.01 0.02 C7 N1 C2
DFIX 2.5 0.001 C60 C13
ISOR 0.01 0.02 C00J

L.S. 50 0 103
PLAN  32
SIZE 0.2 0.2 0.2
TEMP -153.15
CONF
FREE C7 C2
BIND N2 C13
FREE N2 H60c
FREE C60 C13
list 4
MORE -1
BOND $H
ABIN
fmap 2
acta
OMIT -2 49
OMIT 1 1 6
OMIT 0 2 5
OMIT 2 3 1
OMIT 2 2 5
OMIT 1 1 8
OMIT -2 3 1
OMIT 1 4 4
OMIT 1 4 3
OMIT -1 4 3
OMIT 0 7 6
OMIT -1 4 4
OMIT 4 4 2
OMIT 4 0 4
OMIT 4 0 5
OMIT 3 0 0
OMIT 5 0 5
OMIT 0 1 7
OMIT 2 2 3
OMIT 3 3 2
OMIT 0 3 3
OMIT 1 1 5
OMIT -1 3 6
OMIT 1 3 6
OMIT 0 7 8
OMIT 0 2 4
OMIT 2 2 2
OMIT 0 4 4
OMIT 2 9 0
OMIT 1 6 5
OMIT 2 4 6
OMIT 2 3 0
OMIT -2 6 8
OMIT 3 4 0
OMIT 0 3 0
OMIT 2 2 4
OMIT 1 1 3
REM <olex2.extras>
REM <HklSrc "%.\\p20210117e1_sq.hkl">
REM </olex2.extras>

WGHT    0.082600   15.746798
FVAR       0.24925
ZN1   6    0.500000    0.247100    1.000000    10.50000    0.01716    0.01472 =
         0.01380    0.00000    0.00071    0.00000
ZN02  6    0.668184    0.248747    0.922396    11.00000    0.02000    0.01833 =
         0.01664    0.00121    0.00069   -0.00123
O003  5    0.422249    0.666803    0.496626    11.00000    0.01943    0.01872 =
         0.03288    0.00503    0.00427   -0.00910
CL00  3    0.752513    0.247487    0.875000    10.25000    0.04850    0.04850 =
         0.04659    0.00662    0.00662   -0.00782
O005  5    0.591360    0.288690    0.876672    11.00000    0.02005    0.03464 =
         0.02268    0.00558   -0.00007    0.00132
O006  5   -0.168796    0.414657    0.744372    11.00000    0.02206    0.02944 =
         0.02148    0.00425    0.00209    0.00391
O007  5    0.496689    0.239251    0.920395    11.00000    0.02932    0.03232 =
         0.01646   -0.00054   -0.00386   -0.01289
O008  5    0.302582    0.694955    0.484346    11.00000    0.03063    0.02504 =
         0.02048    0.00216    0.00637   -0.00515
O009  5   -0.141169    0.343881    0.812461    11.00000    0.01608    0.03757 =
         0.02891    0.01162    0.00173    0.00167
C00A  1    0.523001    0.274459    0.883874    11.00000    0.02822    0.02589 =
         0.01358   -0.00240   -0.00015   -0.00093
C00B  1    0.354519    0.662035    0.507590    11.00000    0.02259    0.01836 =
         0.01729   -0.00092   -0.00036   -0.00006
N00C  4    0.236895    0.376536    0.751974    11.00000    0.01695    0.07441 =
         0.04059    0.03568   -0.00069    0.00373
N00D  4    0.330755    0.435945    0.702184    11.00000    0.01615    0.06226 =
         0.03288    0.02564    0.00370    0.00639
C00E  1   -0.124192    0.382052    0.772474    11.00000    0.02486    0.02063 =
         0.02401    0.00077    0.00406   -0.00162
C00F  1    0.468980    0.302641    0.844549    11.00000    0.02752    0.02426 =
         0.01790    0.00839    0.00477    0.00657
C00G  1   -0.042422    0.386573    0.759660    11.00000    0.01734    0.02789 =
         0.03323    0.01406    0.00279    0.00506
C00H  1    0.333192    0.612004    0.551589    11.00000    0.01560    0.02984 =
         0.01944    0.00535   -0.00013   -0.00071
C00I  1    0.395395    0.277330    0.846179    11.00000    0.03243    0.03017 =
         0.02249    0.00923    0.00290   -0.00199
AFIX   3
H00I  2    0.380375    0.242390    0.870449    11.00000   -1.20000
AFIX   0
C00J  1    0.491423    0.354176    0.807079    11.00000    0.00781    0.04463 =
         0.04059    0.01363    0.00725    0.00056
AFIX   3
H00J  2    0.540373    0.371106    0.806609    11.00000   -1.20000
AFIX   0
N00K  4    0.202112    0.455400    0.682949    11.00000    0.01666    0.06564 =
         0.05268    0.03764    0.00284   -0.00054
C00L  1    0.387976    0.572103    0.576872    11.00000    0.02007    0.02840 =
         0.02011   -0.00457    0.00178   -0.00285
AFIX   3
H00L  2    0.437186    0.576633    0.566142    11.00000   -1.20000
AFIX   0
C00M  1    0.370482    0.525529    0.617360    11.00000    0.01816    0.03640 =
         0.03321    0.01384    0.00207    0.00091
AFIX   3
H00M  2    0.407952    0.500499    0.634970    11.00000   -1.20000
AFIX   0
C00N  1    0.364824    0.359047    0.775026    11.00000    0.01079    0.05363 =
         0.02968    0.01866    0.00593    0.00457
C00O  1    0.344910    0.305990    0.811878    11.00000    0.01751    0.04385 =
         0.03870    0.01512    0.00682   -0.00113
AFIX   3
H00O  2    0.296020    0.289000    0.812918    11.00000   -1.20000
AFIX   0
C00P  1    0.277096    0.466857    0.674543    11.00000    0.01680    0.06979 =
         0.04115    0.02470    0.00689    0.00593
C00Q  1    0.011275    0.359795    0.793726    11.00000    0.02775    0.06835 =
         0.03235    0.03300   -0.00076   -0.00067
AFIX   3
H00Q  2   -0.002865    0.338235    0.824726    11.00000   -1.20000
AFIX   0
C00R  1    0.296266    0.515445    0.631452    11.00000    0.03062    0.05610 =
         0.03108    0.01959    0.00195    0.00409
C00S  1   -0.021593    0.420311    0.714490    11.00000    0.02153    0.06828 =
         0.03803    0.02856   -0.00274    0.00776
AFIX   3
H00S  2   -0.058213    0.441101    0.693700    11.00000   -1.20000
AFIX   0
C00T  1    0.308380    0.390886    0.740517    11.00000    0.02641    0.06324 =
         0.03723    0.03095    0.00208    0.00672
C00U  1    0.187681    0.411196    0.722962    11.00000    0.01721    0.06366 =
         0.05122    0.02856    0.00295   -0.00093
C00V  1    0.439030    0.382173    0.772374    11.00000    0.02416    0.06187 =
         0.03141    0.03247    0.00350    0.00584
AFIX   3
H00V  2    0.453590    0.415963    0.747224    11.00000   -1.20000
AFIX   0
C00W  1    0.086664    0.366589    0.780393    11.00000    0.01412    0.08131 =
         0.04894    0.04194   -0.00390   -0.00268
AFIX   3
H00W  2    0.122884    0.348149    0.802573    11.00000   -1.20000
AFIX   0
C00X  1    0.258711    0.605917    0.566114    11.00000    0.02533    0.05468 =
         0.03466    0.02457   -0.00253   -0.00589
AFIX   3
H00X  2    0.221901    0.633167    0.549404    11.00000   -1.20000
AFIX   0
C00Y  1    0.107013    0.401493    0.736118    11.00000    0.01939    0.06905 =
         0.04602    0.03326    0.00288    0.00618
C00Z  1    0.052137    0.428178    0.702203    11.00000    0.02963    0.06939 =
         0.04337    0.02429    0.00791    0.00878
AFIX   3
H00Z  2    0.065467    0.448438    0.670633    11.00000   -1.20000
AFIX   0
C010  1    0.240343    0.555504    0.605788    11.00000    0.01335    0.07169 =
         0.04071    0.03493    0.00140    0.00012
AFIX   3
H010  2    0.190973    0.550764    0.616088    11.00000   -1.20000
AFIX   0

N1    4   -0.053943    0.406653    0.932890    10.50000    0.09053    0.11448 =
         0.04052    0.00451   -0.01792   -0.02185
C2    1   -0.123991    0.388212    0.943550    10.50000    0.09485    0.17187 =
         0.06664    0.00502   -0.01555   -0.03684
AFIX   3
H2A   2   -0.148971    0.383032    0.911130    10.50000   -1.50000
H2B   2   -0.128491    0.342702    0.962640    10.50000   -1.50000
H2C   2   -0.146251    0.428162    0.962640    10.50000   -1.50000
AFIX   0
C7    1    0.015131    0.432503    0.928202    10.50000    0.10565    0.18364 =
         0.07758   -0.01236   -0.00564   -0.05204
AFIX   3
H7A   2    0.030111    0.433503    0.892812    10.50000   -1.50000
H7B   2    0.031331    0.477313    0.944892    10.50000   -1.50000
H7C   2    0.037181    0.390213    0.944892    10.50000   -1.50000
AFIX   0

N2    4    0.005812    0.064454    0.655181    10.50000    0.05284    0.05166 =
         0.05498   -0.00195    0.00294    0.00135
C13   1   -0.007704    0.101306    0.606713    10.50000    0.07545    0.07540 =
         0.07085    0.00620   -0.00187    0.00195
AFIX   3
H13A  2   -0.034844    0.066006    0.584913    10.50000   -1.50000
H13B  2    0.039816    0.114006    0.590423    10.50000   -1.50000
H13C  2   -0.037494    0.146556    0.611173    10.50000   -1.50000
AFIX   0
C60   1    0.067769    0.087452    0.686856    10.50000    0.07549    0.08155 =
         0.07924   -0.00402   -0.00888   -0.00423
AFIX   3
H60A  2    0.114969    0.072532    0.671006    10.50000   -1.50000
H60B  2    0.077129    0.105812    0.721726    10.50000   -1.50000
H60C  2    0.044769    0.127002    0.666326    10.50000   -1.50000
AFIX   0
HKLF 4




REM  p20210117e1_a.res in P4(3)22
REM wR2 = 0.1633, GooF = S = 1.072, Restrained GooF = 1.083 for all data
REM R1 = 0.0540 for 5776 Fo > 4sig(Fo) and 0.0660 for all 6898 data
REM 371 parameters refined using 64 restraints

END

WGHT      0.0831     15.6527

REM Highest difference peak  1.208,  deepest hole -0.971,  1-sigma level  0.094
Q1    1   0.0557  0.1523  0.6512  11.00000  0.05    0.81
Q2    1  -0.0010  0.1171  0.5818  11.00000  0.05    0.69
Q3    1  -0.0739  0.3363  0.9369  11.00000  0.05    0.48
Q4    1  -0.1063  0.4586  0.9405  11.00000  0.05    0.45
Q5    1  -0.1585  0.5819  1.0073  11.00000  0.05    0.39
Q6    1   0.2184  0.3620  0.5676  11.00000  0.05    0.34
Q7    1   0.7871  0.1836  0.8660  11.00000  0.05    0.33
Q8    1   0.0056  0.4449  0.6598  11.00000  0.05    0.32
Q9    1   0.0743  0.1856  0.6919  11.00000  0.05    0.30
Q10   1   0.1119  0.1728  0.7491  11.00000  0.05    0.30
Q11   1   0.3771  0.2345  0.8928  11.00000  0.05    0.28
Q12   1   0.3933  0.2020  0.8955  11.00000  0.05    0.28
Q13   1  -0.0161  0.1662  0.6330  11.00000  0.05    0.27
Q14   1   0.0431  0.3456  0.9311  11.00000  0.05    0.26
Q15   1  -0.0850  0.3205  0.7522  11.00000  0.05    0.26
Q16   1   0.3405  0.7631  0.4998  11.00000  0.05    0.26
Q17   1   0.0546  0.0000  0.7500  10.50000  0.05    0.26
Q18   1   0.0618  0.3429  0.6358  11.00000  0.05    0.26
Q19   1   0.0665  0.3970  0.9286  11.00000  0.05    0.26
Q20   1   0.0597  0.4997  0.9167  11.00000  0.05    0.26
Q21   1   0.4458  0.6587  0.4335  11.00000  0.05    0.25
Q22   1  -0.1037  0.3205  0.9823  11.00000  0.05    0.25
Q23   1  -0.0033  0.6214  0.9170  11.00000  0.05    0.24
Q24   1  -0.0444  0.4624  0.7440  11.00000  0.05    0.24
Q25   1   0.6106  0.3894  0.8750  10.50000  0.05    0.24
Q26   1   0.1507  0.4370  0.7440  11.00000  0.05    0.24
Q27   1   0.5456  0.4190  0.8202  11.00000  0.05    0.24
Q28   1   0.6010  0.2221  0.8834  11.00000  0.05    0.23
Q29   1  -0.1661  0.4386  0.7428  11.00000  0.05    0.23
Q30   1  -0.0943  0.4628  0.7327  11.00000  0.05    0.23
Q31   1   0.3643  0.5060  0.6078  11.00000  0.05    0.23
Q32   1   0.5613  0.2453  0.8728  11.00000  0.05    0.23
;
_shelx_res_checksum              20271
_shelx_hkl_file
;
   0   0  -4 3877.08   71.63
   0   0   4 3906.87   68.63
   0   0  -5   -0.79    2.24
   0   0   5    1.98    1.90
   0   0  -5    1.10    1.68
   0   0  -6   -0.13    2.74
   0   0  -6    1.98    2.07
   0   0   6    2.12    2.10
   0   0  -7   -2.96    3.45
   0   0   7    6.19    2.90
   0   0  -7   -3.49    2.52
   0   0  -8  209.34   12.94
   0   0  -8  215.08   11.24
   0   0  -9    5.64    4.32
   0   0  -9   -1.88    2.49
   0   0 -10    2.13    4.11
   0   0 -10    3.78    2.91
   0   0 -11   12.15    5.62
   0   0 -11    5.53    3.55
   0   0 -12 5910.55  122.80
   0   0 -12 5897.96  115.58
   0   0 -13   14.79    6.99
   0   0 -13    3.12    3.24
   0   0 -14   12.36    7.65
   0   0 -15   18.37    8.15
   0   0 -16 4485.94  108.13
   0   0 -17   18.86    7.58
   0   0 -18    4.65    7.32
   0   0 -19   -5.99    7.42
   0   0 -20  449.06   31.46
   0   0 -21   -1.70    6.49
   0   0 -22   -9.46    9.09
   0   0 -23   -8.90    9.20
   0   0 -24  864.55   48.81
   0   0 -25    0.93    8.15
   0   0 -26    0.04    7.58
   0   0 -27   -4.21    8.69
   0   0 -28  199.20   25.09
   0   0 -29   -6.04    8.98
   0   0 -30    1.51    8.59
   0   0 -31    6.81    8.58
   0   0 -32   15.75   11.62
   0   0 -33   14.71   13.21
   0  -1  -4  303.54   12.62
   1   0  -4  312.03   12.09
   1   0   4  319.65   11.38
   0  -1   4  312.46   10.91
   0  -1  -5   99.34    7.78
   1   0  -5  119.12    8.11
  -1   0   5   95.53    7.13
  -1   0  -5  104.86    7.21
   1   0   5  115.21    7.51
  -1   0   5   98.15    4.97
   1   0  -5  102.50    5.24
   0   1  -5   97.99    6.27
   0  -1   5  112.93    6.90
   0  -1  -6 3408.89   72.63
  -1   0   6 3551.54   71.47
   0   1  -6 3621.48   69.34
   1   0  -6 3570.49   71.78
  -1   0   6 3594.54   64.28
  -1   0  -6 3490.70   70.15
   0  -1   6 3577.35   68.67
   1   0  -6 3444.23   64.87
   0   1  -6 3389.89   67.82
   0   1  -7   81.18    7.53
  -1   0   7   86.57    7.94
   1   0  -7   85.18    8.01
   0  -1  -7   89.18    8.64
  -1   0   7   99.49    6.09
  -1   0  -7   83.37    7.25
   0  -1   7   90.08    7.15
   1   0  -7   88.46    6.08
   0   1  -7   93.58    7.03
   0  -1  -8  391.05   19.02
  -1   0   8  403.98   18.38
   1   0  -8  406.61   18.76
   0   1  -8  416.69   17.62
  -1   0  -8  396.68   17.28
   0  -1  -8  434.70   15.93
   0  -1   8  424.11   16.93
   0   1  -8  395.40   16.28
   1   0  -8  423.38   14.91
   0   1  -9   43.46    6.19
   1   0  -9   45.76    6.88
   0  -1  -9   37.09    7.23
   0  -1  -9   36.12    4.85
   0  -1   9   40.36    5.50
  -1   0  -9   43.71    5.78
   1   0  -9   37.29    4.51
   0   1  -9   42.53    5.50
   0   1 -10  324.19   17.22
   0  -1 -10  343.18   19.18
   1   0 -10  317.17   18.36
  -1   0 -10  343.12   17.07
   0  -1 -10  314.32   15.07
   0  -1  10  311.09   15.56
   0   1 -10  345.73   16.20
   1   0 -10  328.21   14.62
   1   0 -11 1417.54   44.63
   0  -1 -11 1433.00   45.88
   0   1 -11 1484.83   43.42
   0  -1 -11 1473.54   40.22
  -1   0 -11 1506.87   42.23
   0  -1  11 1455.73   40.24
   1   0 -11 1469.42   38.24
   0   1 -11 1492.32   40.57
  -1   0 -12  412.96   25.22
   0  -1 -12  508.54   26.31
   0   1 -12  520.80   24.54
   1   0 -12  532.23   25.84
  -1   0 -12  536.34   23.48
   0  -1  12  503.70   21.75
   0  -1 -12  502.09   21.74
   0   1 -12  524.66   22.02
   1   0 -12  548.08   21.17
   1   0 -13 1851.42   56.68
   0  -1 -13 1933.74   58.17
   0   1 -13 1959.30   55.71
  -1   0 -13 1890.19   56.89
   0  -1 -13 1868.34   50.60
   0  -1  13 2022.62   51.17
   1   0 -13 1958.54   49.02
   0   1 -13 1975.46   51.31
   0  -1 -14  437.97   25.36
   1   0 -14  366.62   23.53
  -1   0 -14  355.12   22.93
   0   1 -14  372.34   22.47
   0  -1  14  407.69   20.81
   1   0 -14  387.11   18.95
   0  -1 -15  302.84   22.38
  -1   0 -15  314.28   22.10
   1   0 -15  312.34   22.03
   0   1 -15  302.69   21.10
   1   0 -15  274.17   16.46
   0   1 -16 1034.38   42.01
  -1   0 -16 1037.52   42.86
   0  -1 -16 1085.20   44.86
   1   0 -16 1009.86   42.93
  -1   0 -17 1034.55   44.41
   1   0 -17  985.25   43.80
   0   1 -17 1029.44   43.04
   0  -1 -17  995.24   44.33
   0   1 -18   11.69    7.20
  -1   0 -18   27.46    9.84
   0  -1 -18   14.20    7.51
   1   0 -18   21.96    8.76
   0   1 -19  151.15   17.34
   0  -1 -19  186.90   19.74
  -1   0 -19  156.07   17.84
   1   0 -19  165.79   19.23
   0   1 -20   11.71    8.16
   0  -1 -20    7.42    6.84
   1   0 -20    5.93    6.80
  -1   0 -20   -0.39    7.17
   0   1 -21  192.80   21.12
  -1   0 -21  195.72   21.20
   0  -1 -21  182.53   21.14
   1   0 -21  199.47   21.80
   0  -1 -22   68.64   14.25
  -1   0 -22   42.74   11.60
   1   0 -22   71.81   13.53
   0   1 -22   67.37   13.61
   0  -1 -23  412.14   33.00
  -1   0 -23  420.28   32.67
   0   1 -23  414.46   32.05
   1   0 -23  444.21   33.80
   1   0 -24  209.64   23.98
   0   1 -24  174.79   21.95
  -1   0 -24  157.74   20.74
   0  -1 -24  195.45   23.99
  -1   0 -25  318.68   30.00
   1   0 -25  363.32   32.51
   0  -1 -25  315.26   30.64
   0   1 -25  327.77   29.90
  -1   0 -26  400.00   34.54
   0  -1 -26  374.94   34.42
   1   0 -26  367.06   33.27
   0   1 -26  351.50   32.29
   0   1 -27  192.02   24.28
   1   0 -27  200.90   25.20
   0  -1 -27  187.02   25.11
  -1   0 -27  213.13   26.34
   0   1 -28   45.60   14.37
   1   0 -28   49.13   15.32
   0  -1 -28   19.51   12.14
  -1   0 -28   20.51   11.06
   1   0 -29    6.78   10.83
   0   1 -29   20.87   11.61
   0  -1 -29   -1.39   11.54
  -1   0 -29  -10.78   11.20
  -1   0 -30   -4.26   10.60
   0  -1 -30   -0.52    8.49
   0   1 -30  -15.72   11.76
   1   0 -30  -10.69   11.09
   0  -1 -31   24.94   14.83
   0   1 -31    0.15    9.10
  -1   0 -31   12.02    9.59
   0  -1 -32   -4.54    9.35
  -1   0 -32    4.73    9.71
   0   1 -32    4.44    7.67
   0  -1 -33   25.72   11.93
  -1   0 -33  -10.32   11.03
  -1   0 -34  -30.25   14.74
  -1  -1   3  142.55    5.32
  -1   1   4 1784.01   39.87
   1  -1  -4 1672.23   39.35
   1  -1   4 1754.88   37.92
   1   1  -4 1832.00   36.24
  -1  -1   4 1752.12   33.49
  -1   1  -4 1634.04   37.39
  -1  -1   5  193.48    9.24
   1  -1  -5  196.52   11.18
  -1   1   5  186.26   10.70
   1   1  -5  173.58    8.94
   1  -1   5  197.44   10.08
   1   1  -5  176.82    7.42
  -1   1  -5  172.26    9.51
  -1  -1   5  191.55    7.93
   1   1  -6  258.44   11.86
  -1   1   6  263.36   13.74
  -1  -1   6  249.19   11.80
   1  -1  -6  272.34   14.21
   1  -1   6  252.17   12.70
   1   1  -6  253.57    9.92
  -1  -1   6  247.90   10.20
  -1   1  -6  263.41   12.55
  -1   1   7  672.53   24.69
   1  -1  -7  709.70   25.21
   1   1  -7  706.93   22.98
  -1  -1   7  721.37   22.85
   1  -1   7  652.52   23.03
  -1  -1   7  699.09   20.28
   1  -1  -7  747.40   19.29
  -1   1  -7  682.60   22.80
   1   1  -7  690.52   19.65
   1   1  -8 1013.07   30.08
  -1  -1   8  825.90   29.32
  -1   1   8 1033.28   32.68
   1  -1  -8 1050.68   33.03
  -1  -1   8  996.34   26.70
   1  -1  -8  986.45   25.18
   1  -1   8 1004.38   30.21
  -1  -1  -8  992.12   28.42
   1   1  -8  957.03   25.89
  -1   1  -8 1029.06   30.27
  -1   1   9 1386.27   41.07
   1   1  -9 1308.72   37.65
   1  -1  -9 1337.84   40.77
  -1  -1   9 1325.98   33.87
  -1  -1  -9 1329.19   36.07
   1  -1  -9 1305.23   32.38
   1  -1   9 1239.21   36.49
   1   1  -9 1361.13   33.41
  -1   1  -9 1362.32   37.57
   1   1 -10  475.40   21.33
   1  -1 -10  457.09   22.92
  -1  -1  10  428.68   17.97
   1  -1  10  445.90   20.11
  -1  -1 -10  468.35   19.84
   1  -1 -10  444.48   17.39
   1   1 -10  463.52   17.84
  -1   1 -10  478.76   20.74
  -1  -1 -11 1339.23   43.83
   1   1 -11 1358.79   41.51
   1  -1 -11 1300.30   43.53
  -1  -1 -11 1367.22   39.55
   1  -1  11 1388.68   40.03
   1  -1 -11 1363.56   36.05
  -1  -1  11 1285.97   35.80
   1   1 -11 1378.15   36.19
  -1   1 -11 1386.76   40.53
  -1  -1 -12    3.30    4.96
   1  -1 -12    3.37    5.33
   1   1 -12    7.61    5.08
   1  -1  12    7.80    4.93
  -1  -1  12    6.20    3.26
  -1  -1 -12    3.34    3.26
   1  -1 -12    1.04    2.37
   1   1 -12    4.77    3.17
   1  -1 -13 2010.88   61.02
  -1   1 -13 2014.18   58.26
   1   1 -13 2113.88   58.62
  -1  -1 -13 1987.55   60.32
   1  -1 -13 2029.56   51.01
   1  -1  13 2229.75   55.99
  -1  -1  13 2132.98   51.62
   1   1 -13 2120.24   51.41
  -1   1 -14  177.82   15.68
   1  -1 -14  176.68   16.96
  -1  -1 -14  139.74   14.80
   1   1 -14  160.44   15.02
   1  -1 -14  168.05   12.13
  -1  -1  14  192.72   12.77
   1  -1  14  206.66   14.90
   1   1 -14  173.74   12.26
   1  -1 -15  402.59   19.74
   1  -1 -15  402.53   25.85
  -1  -1 -15  382.72   25.15
   1   1 -15  368.79   23.54
  -1   1 -15  374.62   23.35
   1   1 -16    5.40    5.95
  -1   1 -16   -4.88    6.12
  -1  -1 -16   12.03    8.06
   1  -1 -16    9.63    6.88
  -1  -1 -17  107.35   15.11
   1  -1 -17  120.91   15.72
   1   1 -17   96.33   13.12
  -1   1 -17  106.89   13.68
   1   1 -18 1001.48   43.77
   1  -1 -18  985.79   45.87
  -1   1 -18 1010.01   43.67
  -1  -1 -18  948.16   44.77
  -1   1 -19   24.34    8.73
   1  -1 -19   35.00   10.88
   1   1 -19   29.36    9.51
  -1  -1 -19   33.78    9.97
  -1  -1 -20   14.46    9.12
  -1   1 -20    9.09    6.95
   1   1 -20    8.19    7.32
   1  -1 -20    8.68    6.72
   1   1 -21   -2.52    7.51
  -1  -1 -21   11.97    8.54
   1  -1 -21   -4.41    7.77
  -1   1 -21    4.77    6.17
  -1  -1 -22  599.73   38.68
   1   1 -22  615.44   37.63
  -1   1 -22  600.23   37.23
   1  -1 -22  606.20   39.13
  -1   1 -23  133.28   18.63
   1   1 -23  124.94   18.18
  -1  -1 -23  106.65   17.26
   1  -1 -23  149.28   20.48
   1  -1 -24    7.50    8.51
  -1   1 -24    0.11    7.75
  -1  -1 -24    9.52    8.25
   1   1 -24   -2.53    7.12
  -1  -1 -25  651.41   44.15
   1  -1 -25  717.84   46.17
   1   1 -25  676.43   43.07
  -1   1 -25  700.41   43.94
   1  -1 -26   32.64   12.70
  -1  -1 -26   45.58   14.21
  -1   1 -26   14.87    9.08
   1   1 -26   40.98   12.96
   1   1 -27  318.53   31.33
   1  -1 -27  290.45   30.95
  -1  -1 -27  328.74   32.95
  -1   1 -27  257.84   27.64
   1   1 -28   17.78   10.37
   1  -1 -28   34.80   14.16
  -1   1 -28   16.49    9.40
  -1  -1 -28   11.05   11.29
  -1   1 -29   36.11   13.49
   1   1 -29   -2.77    7.87
   1  -1 -29   19.31   11.43
  -1  -1 -29    8.91    9.93
  -1   1 -30  144.41   23.31
   1  -1 -30  143.13   23.60
  -1  -1 -30  103.92   21.62
  -1   1 -31   20.81   11.79
  -1  -1 -31   40.83   15.09
  -1   1 -32   25.68   14.12
  -1  -1 -32    8.77   12.13
  -1  -1 -33   17.62   11.91
  -1   1 -33   -5.66    9.78
  -1  -1 -34   33.35   14.38
  -1  -1 -35   23.43   13.79
   0  -2   3 1281.89   28.18
  -2   0  -4  437.21   15.80
   0  -2  -4  438.31   16.65
   0   2  -4  438.47   14.16
   0  -2   4  437.15   14.40
  -2   0   5  670.55   22.16
   0  -2  -5  630.76   22.14
  -2   0  -5  643.49   21.33
   0  -2   5  643.60   19.37
   0   2  -5  647.22   19.02
   0   2  -6  579.78   17.44
   0  -2  -6  568.80   22.24
  -2   0   6  562.51   21.35
  -2   0  -6  571.12   20.83
  -2   0   6  601.87   13.92
   0   2  -6  587.11   18.76
   0  -2   6  608.82   19.48
   2   0  -6  595.26   13.92
  -2   0   7   13.70    3.97
   0   2  -7   13.27    3.26
   0  -2  -7   11.75    5.14
  -2   0  -7   16.58    3.93
   0  -2   7    9.41    3.22
  -2   0   7   18.94    2.45
   0   2  -7   18.07    3.84
   2   0  -7   14.09    2.26
   2   0  -8    7.27    4.16
   0   2  -8    6.28    2.73
  -2   0   8    7.95    3.10
   0  -2  -8    5.25    4.15
  -2   0  -8    4.53    3.09
   0  -2   8    5.00    3.61
   0   2  -8    8.55    3.05
   2   0  -8    6.85    1.96
   0  -2  -9  204.98   15.13
   2   0  -9  181.37   13.50
   0   2  -9  181.19   11.42
  -2   0   9  191.62   13.10
  -2   0  -9  207.22   13.36
   0  -2   9  177.12   11.83
   0   2  -9  205.84   12.00
   2   0  -9  205.11    9.33
  -2   0  10 1704.94   47.66
   2   0 -10 1607.90   47.63
   0   2 -10 1652.50   43.76
   0  -2 -10 1568.63   48.97
   0  -2  10 1678.58   44.20
  -2   0 -10 1644.40   46.20
   2   0 -10 1707.56   37.89
   0   2 -10 1730.79   43.44
   0  -2 -11   -4.61    4.55
   2   0 -11    1.15    4.64
   0   2 -11    4.52    3.54
   0  -2  11   -0.21    3.51
   2   0 -11    2.55    2.31
   0   2 -11    2.86    2.74
   0  -2 -12 1087.06   40.95
   2   0 -12 1116.57   40.37
   0   2 -12 1073.88   35.90
   0  -2  12 1071.18   35.53
   0  -2 -12 1103.68   33.34
   0   2 -12 1102.68   34.59
   2   0 -12 1078.18   30.15
   2   0 -13   77.31   11.29
   0  -2 -13   78.53   11.49
   0   2 -13   86.71   10.23
   0  -2 -13   53.78    7.08
   0  -2  13   71.46    8.85
   2   0 -13   61.00    6.49
   0  -2 -14 3287.51   86.23
   0   2 -14 3340.82   79.65
   2   0 -14 3252.34   84.32
   0  -2  14 3198.97   76.54
   2   0 -14 3174.10   68.98
   0   2 -15   69.01   10.59
   0  -2 -15   66.92   11.39
   2   0 -15   77.58   12.02
   0  -2  15   47.43    7.78
   2   0 -15   83.48    8.29
   0  -2 -16  209.53   19.70
   0   2 -16  185.78   16.38
  -2   0 -16  139.24   17.68
   2   0 -16  225.75   19.37
   0  -2  16  227.30   16.55
   2   0 -16  227.14   14.01
   0  -2 -17  382.93   27.84
   0   2 -17  384.05   24.80
  -2   0 -17  382.21   26.60
   2   0 -17  449.19   28.49
   0  -2  17  443.54   23.71
   2   0 -17  416.38   20.06
  -2   0 -18  130.67   16.12
   0  -2 -18  119.80   16.68
   0   2 -18  116.60   14.39
   2   0 -18  136.19   16.52
   0  -2  18  121.22   14.07
   2   0 -19   22.90   10.06
  -2   0 -19   11.34    7.82
   0  -2 -19   15.49    8.73
   0   2 -19    8.01    6.42
  -2   0 -20  629.90   36.87
   0  -2 -20  559.32   36.32
   0   2 -20  564.75   33.54
   2   0 -20  570.77   35.68
  -2   0 -21   63.35   12.73
   0   2 -21   72.83   12.16
   0  -2 -21   78.25   14.98
   2   0 -21  107.61   16.61
  -2   0 -22   49.01   12.29
   2   0 -22   48.95   12.28
   0   2 -22   34.52    9.40
   0  -2 -22   50.29   13.23
  -2   0 -23  115.60   16.95
   0  -2 -23   89.41   16.70
   0   2 -23   88.08   15.42
   2   0 -23  109.55   17.02
   0   2 -24   82.70   14.72
   2   0 -24   85.87   16.28
  -2   0 -24   67.58   14.30
   0  -2 -24   81.89   17.18
   0   2 -25    4.17    8.00
   0  -2 -25    9.12   11.75
   2   0 -25    7.86    9.03
  -2   0 -25   -5.92    8.98
  -2   0 -26 1039.67   56.96
   0  -2 -26 1116.49   60.59
   0   2 -26 1012.80   53.84
  -2   0 -27   10.96    8.10
   0   2 -27   15.23    9.84
   0  -2 -28   19.92   13.07
  -2   0 -28   20.62   11.13
   0   2 -28   19.12   10.40
   0  -2 -29  -20.39   13.11
   0   2 -29    0.81    8.69
  -2   0 -29   -4.98   10.53
  -2   0 -30   11.36   11.05
   0  -2 -30   30.73   14.99
   0   2 -30   16.69   11.07
   0   2 -31   -1.87    8.34
   0  -2 -31    0.48   11.15
  -2   0 -31   20.50   11.57
   0  -2 -32   73.96   19.29
  -2   0 -32   84.25   19.18
   0  -2 -33   25.80   13.97
  -2   0 -33   17.59   10.38
  -2   0 -34   13.66   10.09
   0  -2 -34   59.05   18.97
  -2  -1 -35    9.03   12.29
  -2  -1 -34   41.03   15.53
  -2  -1 -33  159.33   26.81
  -2  -1 -32   23.26   11.54
   1  -2 -31  112.57   22.19
  -2  -1 -31  151.92   25.56
  -1   2 -31  146.10   22.91
  -1   2 -30   57.37   15.47
   1  -2 -30   63.04   17.34
  -2  -1 -30   39.51   14.63
  -2  -1 -29   14.60   11.66
  -1   2 -29   34.79   11.64
   1  -2 -29   34.84   13.32
  -2  -1 -28   77.71   17.39
  -1   2 -28   63.31   15.04
   1  -2 -28   67.95   17.16
  -2  -1 -27   87.55   18.76
  -1   2 -27  109.48   18.30
   1  -2 -27  118.92   21.00
   1  -2 -26  389.56   35.69
  -1   2 -26  348.16   30.68
  -2  -1 -26  353.37   33.64
   1  -2 -25   71.40   16.33
  -2  -1 -25   68.82   15.49
  -1   2 -25   96.81   16.91
  -1   2 -24  196.69   21.78
  -2  -1 -24  203.11   24.24
   1  -2 -24  171.35   23.45
   2   1 -24  235.24   24.56
   1  -2 -23   38.48   12.30
  -2  -1 -23   40.03   11.51
   2   1 -23   42.22   12.05
  -1   2 -23   33.24   10.42
  -2  -1 -22  209.62   23.36
   1  -2 -22  198.27   23.29
   2   1 -22  196.19   21.77
  -1   2 -22  253.01   23.26
   1  -2 -21  537.67   36.80
  -1   2 -21  490.57   32.14
  -2  -1 -21  567.57   36.49
   2   1 -21  568.13   35.61
   2   1 -20   17.48    8.64
  -2  -1 -20    4.03    7.66
  -1   2 -20    5.23    6.79
   1  -2 -20   32.46   11.09
   2   1 -19  561.77   33.63
  -1   2 -19  618.83   33.62
  -2  -1 -19  606.52   35.91
   1  -2 -19  627.69   38.10
   2   1 -18  148.93   16.83
  -2  -1 -18  155.02   17.81
   1  -2 -18  188.65   20.48
  -1   2 -18  146.43   16.25
  -1  -2  18  166.76   14.43
  -1   2 -17   34.53    8.43
   2   1 -17   35.14    8.32
  -2  -1 -17   40.85    9.57
   1  -2 -17   22.22    8.13
  -1  -2  17   43.69    8.16
  -2  -1 -16  599.50   33.01
   1  -2 -16  544.09   32.52
   2   1 -16  592.25   31.15
  -1   2 -16  601.09   30.20
  -1  -2  16  575.38   25.86
   2   1 -16  576.75   23.45
   1  -2 -15  174.40   17.57
   2   1 -15  181.03   16.80
  -1   2 -15  158.84   14.89
   1  -2 -15  156.44   12.36
  -1  -2  15  158.06   12.86
   2   1 -15  164.05   11.45
   2   1 -14 1407.31   47.53
   1  -2 -14 1407.50   50.79
  -1   2 -14 1346.43   44.60
  -1  -2  14 1344.98   40.85
   1  -2 -14 1320.24   39.12
   2   1 -14 1309.03   36.65
  -1   2 -13  119.35   12.19
   1  -2 -13   97.29   12.81
   2   1 -13  109.06   12.15
   2  -1  13  108.84   11.85
  -1  -2  13   93.54    9.49
   1  -2 -13   93.88    8.58
   2   1 -13  102.71    8.39
   2   1 -12 1258.73   41.63
   1  -2 -12 1239.03   44.39
  -1  -2  12 1199.71   36.47
   2  -1  12 1222.16   39.32
   1  -2 -12 1222.99   34.15
   2   1 -12 1225.82   32.54
   2   1 -11   90.67   10.28
   1  -2 -11   86.91   11.72
  -1  -2  11   74.78    8.08
   2  -1  11   87.19    9.60
   1  -2 -11  103.89    8.13
   2   1 -11   81.35    6.81
  -1   2 -11   78.79    8.69
   1  -2 -10  600.18   27.86
   2  -1  10  626.60   25.21
  -2  -1 -10  622.03   24.60
   2   1 -10  589.03   25.12
  -1  -2  10  585.06   22.34
   2   1 -10  611.20   19.09
  -1   2 -10  589.88   23.83
  -2   1   9 1402.45   41.97
   1  -2  -9 1354.07   42.79
   2   1  -9 1367.72   39.71
  -2  -1  -9 1364.49   38.48
   2  -1   9 1402.46   39.93
  -1   2  -9 1342.22   37.94
  -1  -2   9 1309.21   35.62
   2   1  -9 1389.39   31.60
   1  -2  -8  503.04   23.02
  -2   1   8  464.39   21.38
   2  -1   8  473.71   20.26
  -2  -1  -8  488.58   19.53
  -1   2  -8  478.90   19.74
   2   1  -8  485.03   14.70
  -1  -2   8  474.84   17.80
   2  -1   7  130.72   10.31
  -2   1   7  140.71   10.81
   1  -2  -7  127.23   11.03
   2   1  -7  130.66    6.47
  -1   2  -7  129.61    9.22
  -1  -2   7  129.64    8.35
   2  -1   6   46.83    6.40
  -1  -2   6   50.23    4.79
  -2   1   6   59.39    6.87
   1  -2  -6   51.50    7.14
   2   1  -6   51.75    3.62
  -1   2  -6   43.83    5.46
  -1  -2   6   52.61    4.98
   2  -1   5  422.73   17.38
  -1  -2   5  487.53   14.04
   1  -2  -5  462.80   18.94
  -2   1   5  458.73   18.78
   2   1  -5  444.21   11.43
  -1  -2   5  455.40   14.55
  -1   2  -5  425.22   16.15
   2  -1   4 1068.57   28.77
   1  -2  -4 1031.49   29.52
  -1  -2   4 1121.68   23.35
   2   1  -4 1089.74   21.18
  -1  -2   4 1036.75   24.37
  -1   2  -4 1081.91   27.42
   2  -1   3  698.27   20.36
  -1  -2   3  686.37   17.05
  -1   2   3  640.84   20.27
  -2   1  -3  639.10   19.60
   1  -2   3  693.76   19.23
  -1   2   4 1064.44   30.01
  -2  -1   4 1165.10   22.07
   1   2  -4 1092.36   24.78
   1  -2   4 1109.38   28.38
  -2   1  -4 1122.30   29.39
   1   2  -5  477.80   13.94
  -1   2   5  459.90   18.37
   1   2  -5  431.36   13.69
  -2  -1   5  434.01   11.62
  -2   1  -5  428.85   17.14
   1  -2   5  413.22   16.23
   1   2  -6   53.41    4.90
  -2  -1   6   50.72    5.88
  -1   2   6   41.02    5.95
  -2   1  -6   42.97    5.58
   1  -2   6   48.09    5.79
  -2  -1   6   44.94    3.81
   1   2  -6   47.38    4.44
   2  -1  -7  108.92    5.45
   2  -1  -7  103.99    9.95
   1   2  -7   89.19    7.11
  -2  -1   7  119.69    8.99
  -1   2   7   89.67    8.88
   1   2  -7  108.72    7.03
  -2  -1   7   99.94    5.95
  -2   1  -7   96.88    8.59
   1  -2   7  101.64    8.73
  -1   2   8  502.70   22.82
  -2  -1   8  501.56   20.37
   1   2  -8  530.40   19.23
   2  -1  -8  538.83   23.49
   1  -2   8  500.10   20.83
   2  -1  -8  508.25   14.99
  -2  -1   8  518.58   16.33
  -2   1  -8  561.84   22.24
   1   2  -8  531.54   17.78
  -1   2   9 1505.04   45.23
  -2  -1   9 1554.83   41.59
   2  -1  -9 1395.17   43.98
   1   2  -9 1488.08   39.06
   1  -2   9 1524.06   41.49
   2  -1  -9 1452.64   33.31
  -2  -1   9 1468.55   34.49
  -2   1  -9 1493.41   42.02
   1   2  -9 1457.11   36.26
   1   2 -10  536.79   21.97
  -2  -1  10  507.63   22.34
  -1  -2 -10  512.15   25.28
   2  -1 -10  537.29   25.76
  -2  -1  10  507.39   18.09
   1  -2  10  511.91   22.55
   2  -1 -10  525.26   17.37
   1   2 -10  558.01   19.76
  -2   1 -10  498.69   22.57
   1   2 -11   66.87    8.25
  -2  -1  11   67.04    8.13
  -1  -2 -11   59.65    9.49
   2  -1 -11   44.66    8.93
   2  -1 -11   59.52    5.94
   1  -2  11   51.84    7.67
  -2  -1  11   56.85    6.11
   1   2 -11   61.99    6.76
  -1  -2 -12 1260.24   44.52
   2  -1 -12 1226.08   43.96
   1   2 -12 1180.39   38.87
  -2  -1  12 1240.72   33.60
   1  -2  12 1215.23   40.54
   2  -1 -12 1267.45   33.25
   1   2 -12 1275.37   35.81
   2  -1 -13   86.95   11.90
   1   2 -13   96.82   10.85
  -1  -2 -13  101.58   12.99
   1  -2  13   91.23   10.89
  -2  -1  13  113.36    8.97
   2  -1 -13   92.67    8.15
   1   2 -13   99.43    9.15
   1   2 -14 1364.20   45.39
   2  -1 -14 1390.17   50.37
  -1  -2 -14 1400.96   50.90
   1  -2  14 1374.37   44.94
  -2  -1  14 1502.71   38.75
   1   2 -14 1304.35   39.39
   2  -1 -14 1417.98   38.37
   1   2 -15  178.68   15.85
  -1  -2 -15  187.58   18.10
   2  -1 -15  197.63   18.51
   1  -2  15  171.72   14.86
   2  -1 -15  189.26   12.41
  -2   1 -16  595.14   31.12
   1   2 -16  595.59   29.82
  -1  -2 -16  565.46   32.23
   2  -1 -16  594.70   33.03
   1  -2  16  580.06   27.80
   2  -1 -16  561.91   23.45
   2  -1 -17   28.98    5.44
   1  -2  17   27.75    7.54
  -1  -2 -17   40.01   10.39
   2  -1 -17   29.17    8.73
  -2   1 -17   33.54    8.85
   1   2 -17   43.11    9.82
   1  -2  18  219.04   17.33
   1   2 -18  153.18   16.37
   2  -1 -18  169.61   18.30
  -2   1 -18  164.28   17.57
  -1  -2 -18  195.36   20.47
   1   2 -19  627.85   33.96
  -1  -2 -19  588.11   35.97
  -2   1 -19  580.95   34.05
   2  -1 -19  589.97   36.16
   2  -1 -20   22.59   10.62
  -2   1 -20   22.18    8.54
   1   2 -20   20.10    8.46
  -1  -2 -20   26.78   10.47
  -1  -2 -21  536.96   36.67
   1   2 -21  538.18   33.47
   2  -1 -21  505.02   35.18
  -2   1 -21  544.92   34.77
  -1  -2 -22  253.23   26.12
   1   2 -22  255.80   23.53
   2  -1 -22  237.54   24.66
  -2   1 -22  247.18   24.20
   2  -1 -23   39.33   13.51
   1   2 -23   44.12   11.76
  -1  -2 -23   42.01   12.12
  -2   1 -23   25.19    8.36
  -1  -2 -24  185.76   23.20
  -2   1 -24  215.47   23.72
   2  -1 -24  207.15   24.77
   1   2 -24  163.61   20.35
  -2   1 -25  108.38   18.13
  -1  -2 -25   63.25   14.98
   1   2 -25   85.79   15.62
   2  -1 -25   64.62   16.33
   2  -1 -26  383.87   34.87
   1   2 -26  383.29   32.56
  -2   1 -26  349.35   31.94
  -1  -2 -26  365.63   34.25
  -1  -2 -27   95.90   18.96
   1   2 -27   91.83   17.26
  -2   1 -27  121.41   19.60
   1   2 -28   64.47   15.72
  -1  -2 -28   66.39   17.38
  -2   1 -28   46.64   14.00
  -2   1 -29   28.48   12.84
  -1  -2 -29   14.97   10.47
  -2   1 -30   50.37   13.97
  -1  -2 -30   70.25   18.06
  -2   1 -31  151.31   23.97
  -1  -2 -31  136.27   24.99
  -2   1 -32   13.71   11.58
  -1  -2 -32    8.98   10.29
  -2   1 -33  128.43   23.31
  -1  -2 -33  155.18   28.06
  -1  -2 -34   39.71   16.69
  -2   2   0 1664.89   33.93
  -2   2   1   27.58    2.94
  -2   2  -1   23.48    3.16
  -2   2   2 2898.56   52.20
  -2   2  -2 3017.51   57.48
   2  -2  -3 1332.59   25.51
   2  -2   3 1237.76   31.70
  -2   2  -3 1257.14   31.46
   2  -2   4   35.54    5.17
  -2   2   4   40.55    6.02
  -2  -2   4   41.02    3.58
  -2   2  -4   44.01    5.24
  -2   2   5  862.91   28.47
  -2  -2   5  853.99   20.74
   2   2  -5  887.83   20.69
  -2   2  -5  876.50   26.50
   2  -2   5  877.16   26.86
   2  -2  -6 2464.80   60.85
  -2  -2   6 2671.25   54.43
  -2   2   6 2585.21   61.19
  -2  -2   6 2624.64   50.93
   2   2  -6 2635.04   49.98
  -2   2  -6 2811.62   59.14
   2  -2   6 2559.65   58.75
   2  -2   7 2521.81   58.89
   2  -2  -7 2587.36   62.59
  -2   2   7 2566.54   61.72
  -2  -2   7 2577.85   54.59
   2   2  -7 2469.64   49.34
  -2  -2   7 2505.00   50.71
  -2   2  -7 2616.59   58.54
   2  -2   8 1827.88   49.30
  -2   2   8 1949.41   52.74
  -2  -2   8 1992.53   46.20
   2  -2  -8 1906.43   53.05
   2   2  -8 1977.95   41.13
  -2  -2   8 1911.59   42.51
  -2   2  -8 2010.84   49.96
   2  -2   9  292.35   17.34
   2  -2  -9  360.26   20.53
  -2  -2   9  312.89   15.52
   2   2  -9  340.30   13.44
  -2  -2   9  343.77   14.43
  -2   2  -9  365.03   18.31
   2  -2  10  143.92   12.75
  -2  -2  10  169.75   11.77
   2  -2 -10  169.31   15.20
   2   2 -10  165.98    9.30
  -2  -2  10  145.80    9.77
  -2  -2  11  171.57   11.07
   2  -2 -11  168.61    9.71
   2   2 -11  173.04   13.00
   2  -2  11  135.07   13.35
   2   2 -11  164.23    9.82
  -2  -2  11  172.27   12.58
   2  -2 -11  166.69   15.57
   2  -2 -12   68.20    6.52
  -2  -2  12   68.75    7.46
   2  -2  12   69.33    9.65
   2   2 -12   77.64    7.13
   2  -2 -12   74.09   11.70
   2   2 -12   73.12    9.09
  -2  -2  13  276.66   15.47
   2  -2  13  293.75   19.15
   2   2 -13  259.14   17.69
   2  -2 -13  268.28   14.10
   2  -2 -13  299.52   21.87
   2   2 -13  302.21   14.79
   2   2 -14    4.87    4.20
   2  -2 -14    1.17    6.06
  -2  -2  14    4.97    3.32
   2  -2 -14   10.60    3.68
   2  -2  14    3.35    4.97
   2   2 -14   12.44    3.32
   2  -2 -15  114.79   14.88
   2   2 -15  129.82   13.53
  -2  -2 -15  127.11   15.25
   2  -2 -15  121.36   10.13
   2  -2  15  144.21   13.99
  -2  -2  15  122.54   11.20
   2   2 -15  127.83   10.17
   2  -2  16  522.46   27.31
   2  -2 -16  540.66   23.01
  -2  -2  16  510.23   23.41
   2  -2 -16  476.07   30.56
  -2  -2 -16  517.81   31.37
   2   2 -16  518.54   28.46
   2  -2  17  455.10   25.82
  -2  -2  17  423.05   21.28
   2  -2 -17  414.07   20.38
  -2   2 -17  450.20   27.28
   2  -2 -17  398.81   28.88
  -2  -2 -17  404.41   28.79
   2   2 -17  450.07   26.97
  -2  -2  18  106.40   11.16
  -2  -2 -18  117.29   16.15
   2  -2 -18   98.28   15.54
   2   2 -18  126.89   15.12
  -2   2 -18  103.21   13.73
   2  -2 -19   45.76   11.38
  -2  -2 -19   46.84   11.20
   2   2 -19   41.42    9.87
  -2   2 -19   49.56   10.63
   2   2 -20  704.83   37.51
  -2  -2 -20  665.19   39.80
   2  -2 -20  736.00   42.11
  -2   2 -20  689.53   37.30
   2   2 -21  218.78   21.88
  -2  -2 -21  204.52   22.89
  -2   2 -21  223.31   21.75
   2  -2 -21  272.27   26.46
  -2  -2 -22   31.01   10.95
  -2   2 -22   20.65    8.60
   2   2 -22   25.84   10.13
   2  -2 -22   32.28   10.70
   2   2 -23  583.23   36.77
   2  -2 -23  619.32   42.14
  -2  -2 -23  523.50   38.37
  -2   2 -23  594.11   37.55
  -2  -2 -24  107.13   18.23
   2  -2 -24   78.60   17.50
  -2   2 -24   94.75   16.13
  -2   2 -25   29.33   10.39
  -2  -2 -25   25.19   11.78
   2  -2 -25   30.26   12.11
  -2   2 -26   53.26   12.49
   2  -2 -26   40.38   13.82
  -2  -2 -26   51.37   13.90
   2  -2 -27   51.90   15.52
  -2  -2 -27   49.64   14.20
  -2   2 -27   49.32   13.40
  -2   2 -28   79.63   16.53
  -2  -2 -28   48.76   13.76
  -2  -2 -29  126.01   22.71
  -2   2 -29  127.73   20.65
  -2  -2 -30   21.49   13.85
  -2   2 -30   46.70   14.20
  -2   2 -31   50.54   16.40
  -2  -2 -31   47.43   15.74
  -2  -2 -32  237.98   31.94
  -2  -2 -33   48.50   16.32
  -2  -2 -34   30.51   15.54
  -3   0   0 4854.80   86.07
   0   3   0 5020.81   85.05
  -3   0  -1  974.60   24.24
   0  -3   1 1039.61   24.27
   0   3   1  990.87   24.15
  -3   0  -2  133.37    7.84
   0  -3   2  110.70    6.77
   0   3  -2  125.35    7.15
   0  -3  -2  129.56    7.85
   0   3   2  132.84    8.07
  -3   0  -3  262.94   12.11
   0   3  -3  260.61   10.88
   0  -3   3  266.66   11.17
   0  -3  -3  265.27   12.51
  -3   0  -4  206.23   11.75
   0  -3  -4  228.24   12.52
   0  -3   4  224.92   10.80
   0   3  -4  249.83   10.90
  -3   0  -5   51.23    6.35
   0  -3  -5   64.97    8.10
   0   3  -5   53.03    5.24
   0  -3   5   43.84    5.44
  -3   0  -6 1071.54   32.45
   0  -3  -6 1060.47   33.76
   0   3  -6 1138.95   29.75
   0  -3   6 1180.40   30.95
  -3   0   7   10.18    4.12
   0   3  -7    3.09    2.08
   0  -3  -7    7.03    3.93
  -3   0  -7    4.57    3.25
   0   3  -7   -1.03    2.79
   0  -3   7    1.81    3.07
  -3   0  -8  861.81   30.64
  -3   0   8  934.02   32.18
   0   3  -8  932.68   25.25
   0  -3  -8  888.64   32.53
   0   3  -8  863.16   26.96
   3   0  -8  881.66   18.86
   0  -3   8  902.43   28.55
  -3   0   9  209.50   14.76
   0   3  -9  191.03   10.96
   0  -3  -9  198.71   15.36
  -3   0  -9  209.94   14.32
   3   0  -9  207.81    7.88
   0   3  -9  207.65   12.24
   0  -3   9  219.06   13.47
   0   3 -10    0.96    2.80
  -3   0  10    1.21    2.69
   0  -3 -10   -1.42    5.32
   0  -3  10    2.50    3.57
   3   0 -10    1.83    1.61
   0   3 -10    2.71    2.77
   0   3 -11  736.44   25.86
   0  -3 -11  718.52   32.56
   0   3 -11  731.07   26.20
   0  -3  11  685.10   27.63
   3   0 -11  693.79   19.70
   0  -3 -12   50.43    9.71
   0   3 -12   30.75    5.96
   0  -3  12   17.83    5.13
   3   0 -12   28.33    3.91
   0   3 -13  512.31   23.47
   0  -3 -13  509.80   28.99
   0  -3  13  486.08   24.01
   3   0 -13  504.17   17.69
   0  -3 -14  199.96   18.87
   0   3 -14  179.80   14.17
   0  -3  14  203.99   16.03
   3   0 -14  196.20   10.88
   0   3 -15   -0.84    4.20
   0  -3 -15    4.16    6.22
   0  -3  15   -4.30    4.78
   3   0 -15    4.64    2.61
   0  -3 -16    5.58    6.49
   0   3 -16    5.51    4.22
   0  -3  16   13.18    5.90
   3   0 -16   13.06    3.64
   0  -3 -17   54.96   11.96
   0   3 -17   79.88   11.55
   0  -3  17   78.65   11.32
   3   0 -17   75.52    7.69
   0   3 -18  523.58   29.19
   0  -3 -18  570.10   35.83
   0  -3  18  492.47   27.03
   3   0 -18  530.69   21.76
   0   3 -19  106.94   13.74
   0  -3 -19  105.99   16.98
  -3   0 -19   71.05   15.56
   0  -3  19  102.18   12.72
   3   0 -19   86.94    8.71
   0   3 -20  179.24   17.88
   0  -3 -20  187.72   22.16
  -3   0 -20  213.69   22.21
   0  -3  20  220.05   18.48
   0   3 -21    7.63    6.53
   0  -3 -21   22.06   12.15
  -3   0 -21   16.31    7.83
   0  -3  21   27.84    8.61
   0   3 -22  213.24   21.17
   0  -3 -22  242.33   25.66
  -3   0 -22  234.42   24.00
  -3   0 -23  104.30   17.30
   0  -3 -23   73.06   15.29
   0   3 -23  110.92   16.30
   0   3 -24   -0.05    6.31
  -3   0 -24    3.90    8.99
   0  -3 -24   -9.58    9.88
   0  -3 -25  498.40   39.52
  -3   0 -25  487.56   37.51
   0   3 -25  447.54   33.37
   0   3 -26   41.95   12.62
  -3   0 -26   24.88   11.16
   0  -3 -26   34.78   15.00
   0   3 -27   54.27   13.30
  -3   0 -27   10.71   10.73
   0  -3 -27   37.99   14.31
  -3   0 -28   18.11   10.80
   0  -3 -28   31.70   14.43
   0   3 -28   54.04   13.73
  -3   0 -29    0.17   10.33
   0  -3 -29   22.77   13.31
   0   3 -29    5.79    9.01
   0  -3 -30    1.34   10.61
  -3   0 -30   16.03   10.48
   0  -3 -31   52.11   15.94
  -3   0 -31   36.87   13.25
   0  -3 -32  103.60   22.96
  -3   0 -32  114.23   22.79
   0  -3 -33    8.11   11.84
  -3   0 -33   16.10   11.73
   0  -3 -34   -2.17   11.71
  -3   0 -34   38.30   14.53
  -3  -1 -34   48.78   18.37
  -3  -1 -33  131.28   25.12
  -3  -1 -32   -9.11    9.69
  -3  -1 -31  128.46   23.22
   1  -3 -31  115.21   23.83
  -1   3 -30   36.96   12.36
  -3  -1 -30   47.05   15.83
   1  -3 -30   81.48   20.76
   1  -3 -29   16.32   11.74
  -1   3 -29   26.83   12.03
  -3  -1 -29   43.66   14.68
  -3  -1 -28   39.63   12.81
   1  -3 -28   42.38   16.45
  -1   3 -28   37.43   12.08
  -1   3 -27   12.39    8.50
  -3  -1 -27   18.45   11.64
  -1   3 -26   48.88   12.92
  -3  -1 -26   31.99   11.59
   1  -3 -26   48.86   13.69
  -1   3 -25  149.60   19.32
  -3  -1 -25  173.93   22.70
   1  -3 -25  214.34   26.42
  -3  -1 -24   78.82   16.52
   1  -3 -24  104.01   19.61
  -1   3 -24   77.12   14.49
  -1   3 -23   67.86   13.01
   1  -3 -23   72.96   15.37
  -3  -1 -23   74.14   15.04
   1  -3 -22  255.04   26.73
  -3  -1 -22  176.99   21.47
  -1   3 -22  216.96   21.16
  -1   3 -21  279.24   23.42
   1  -3 -21  296.26   28.66
  -3  -1 -21  305.74   27.61
  -1  -3  21  348.36   23.22
   1  -3 -20    1.75    7.93
  -3  -1 -20    9.06    8.37
  -1   3 -20    1.79    5.56
  -1  -3  20   -0.78    4.29
  -1   3 -19  652.30   33.84
  -3  -1 -19  667.13   38.43
   1  -3 -19  598.35   37.74
  -1  -3  19  582.85   28.98
  -1   3 -18   77.29   11.71
   1  -3 -18   68.45   14.21
  -1  -3  18   65.77    9.86
   3   1 -18   60.54    7.16
  -1   3 -17   46.54    8.55
   1  -3 -17   32.96    8.84
  -1  -3  17   48.32    8.21
   3   1 -17   51.49    6.43
  -1   3 -16  144.01   14.03
   1  -3 -16  169.40   18.87
  -1  -3  16  140.89   13.52
   3   1 -16  151.40   10.46
   1  -3 -15   81.20   13.15
  -1   3 -15   90.83   10.75
  -1  -3  15   74.54    9.62
   3   1 -15   75.99    7.04
  -1   3 -14  297.69   18.62
   1  -3 -14  328.66   23.89
   1  -3 -14  387.43   18.37
  -1  -3  14  262.35   17.40
   3   1 -14  281.88   13.52
  -1  -3  13  577.71   25.26
   3   1 -13  577.65   19.34
   1  -3 -13  573.48   30.95
  -1   3 -13  565.87   25.32
   3  -1  12   84.40   10.66
  -1  -3  12   69.83    8.29
   1  -3 -12   68.11   11.21
   3   1 -12   72.47    5.96
   3  -1  11  578.89   26.15
   1  -3 -11  571.73   29.36
   3   1 -11  608.54   18.00
  -1  -3  11  590.50   23.74
   3  -1  10   71.42    9.39
   1  -3 -10   71.16   10.45
   3   1 -10   74.76    5.29
  -1   3 -10   68.13    7.88
  -1  -3  10   75.56    8.00
   3  -1   9  347.53   18.69
  -3  -1  -9  330.14   17.58
   1  -3  -9  338.13   20.52
  -3   1   9  366.79   20.09
   3   1  -9  323.07   10.94
  -1  -3   9  319.14   15.72
  -1   3  -9  372.14   17.79
   3  -1   8  554.14   23.64
  -3  -1  -8  605.14   23.47
   1  -3  -8  623.97   27.01
  -3   1   8  585.13   25.64
   3   1  -8  601.26   15.13
  -1  -3   8  574.33   20.93
  -1   3  -8  627.08   23.02
  -3  -1  -7 1474.95   38.23
   3  -1   7 1199.35   36.86
   1  -3  -7 1265.19   39.96
  -3   1   7 1353.07   40.38
   3   1  -7 1315.32   26.06
  -1  -3   7 1296.55   33.59
  -1   3  -7 1297.77   35.62
   3  -1   6  826.22   27.56
  -3   1   6  839.15   29.53
   1  -3  -6  842.70   29.72
  -1  -3   6  828.08   24.10
  -1   3  -6  856.93   25.78
   3  -1   5 2149.95   50.33
  -1  -3   5 2066.64   44.71
  -1   3  -5 2042.73   47.07
   1  -3  -5 2175.46   52.26
  -1  -3   5 2162.40   39.59
   3  -1   4 3652.58   74.95
  -1   3  -4 3834.11   72.63
  -1  -3   4 3717.77   69.53
   1  -3  -4 3665.94   76.26
   3  -1   3  219.21   11.71
   1  -3  -3  244.52   12.75
  -1   3  -3  275.47   11.64
  -1  -3   3  235.53   10.01
   3  -1   2  625.88   19.84
   1  -3  -2  635.37   20.06
  -1   3  -2  641.04   18.54
  -1  -3   2  639.37   17.66
  -3   1   2  613.47   14.58
   3  -1   1  974.08   25.01
  -1   3  -1  921.97   23.84
   1  -3  -1 1019.82   23.40
  -3   1   1 1011.90   22.29
  -1   3   0  856.29   22.00
   1  -3   0  947.02   22.52
  -3   1   0  918.83   22.48
  -1   3   1  919.00   24.40
   1  -3   1  963.07   23.48
  -3   1  -1  898.31   23.94
  -3   1  -2  671.85   20.52
   3  -1  -2  681.00   15.58
   1  -3   2  663.19   19.35
  -1   3   2  626.96   20.45
  -3   1  -3  262.33   12.60
  -1   3   3  250.44   12.71
   1  -3   3  255.55   11.67
   1   3  -3  246.96   10.26
  -3   1  -4 3736.75   75.20
  -1   3   4 3843.09   76.93
   1   3  -4 3784.20   69.90
   1  -3   4 3620.57   72.83
  -3   1  -5 2276.70   52.17
  -1   3   5 2292.35   53.63
  -3  -1   5 2272.12   39.84
   1   3  -5 2175.23   45.87
   1  -3   5 2120.83   49.47
  -3   1  -6  851.93   27.78
  -1   3   6  811.23   28.58
  -3  -1   6  806.53   17.72
   1   3  -6  812.08   22.71
   1  -3   6  778.66   25.66
  -3   1  -7 1420.97   39.68
  -3  -1   7 1407.00   38.63
  -1   3   7 1308.66   40.25
   1   3  -7 1410.65   31.75
   1   3  -7 1360.30   33.39
   1  -3   7 1320.73   37.47
  -3  -1   7 1349.58   28.05
   3  -1  -8  678.56   15.48
  -3   1  -8  677.34   26.18
  -3  -1   8  661.47   25.31
  -1   3   8  657.52   27.35
   1   3  -8  644.94   20.35
   1   3  -8  656.44   21.40
   1  -3   8  606.33   24.10
  -3  -1   8  638.96   17.23
  -3  -1   9  335.23   12.21
  -3  -1   9  330.01   17.88
  -1  -3  -9  329.29   20.12
   1   3  -9  322.37   14.70
   1   3  -9  352.07   15.33
   3  -1  -9  343.45   10.87
   1  -3   9  338.09   18.16
   1   3 -10   60.64    6.73
  -1  -3 -10   56.71    8.87
  -3  -1  10   67.51    8.34
   1  -3  10   47.77    7.12
  -3  -1  10   67.20    5.52
   3  -1 -10   62.42    4.90
   1   3 -10   51.99    6.26
  -3  -1  11  504.94   17.58
   1  -3  11  525.03   24.32
  -1  -3 -11  548.14   27.68
   1   3 -11  501.27   21.34
  -3  -1  11  573.60   25.35
   1   3 -11  512.87   20.45
   3  -1 -11  517.14   16.29
  -1  -3 -12   66.15   10.47
   1   3 -12   68.26    8.14
  -3  -1  12   69.67    6.08
   1  -3  12   77.72   10.09
   3  -1 -12   66.61    5.81
   1   3 -12   59.57    6.82
  -1  -3 -13  515.41   29.03
   1   3 -13  506.09   23.52
   1  -3  13  524.20   25.98
  -3  -1  13  534.80   19.13
   3  -1 -13  519.10   18.15
   1   3 -14  312.01   19.17
  -1  -3 -14  324.92   23.83
   1  -3  14  282.83   19.72
  -3  -1  14  391.84   16.49
   3  -1 -14  287.71   13.91
   1   3 -15   94.06   11.18
  -1  -3 -15  118.33   14.96
   1  -3  15   76.76   10.71
   3  -1 -15   83.08    7.28
  -1  -3 -16  134.28   16.40
   1   3 -16  143.79   13.97
   1  -3  16  144.78   14.58
   3  -1 -16  133.48    9.84
   1   3 -17   43.47    9.32
  -1  -3 -17   36.36    9.61
   1  -3  17   27.33    6.64
   3  -1 -17   36.71    5.54
  -1  -3 -18   52.33   12.62
   1   3 -18   63.32   10.88
   1  -3  18   82.75   11.89
   3  -1 -18   51.47    6.58
   1   3 -19  625.91   33.29
  -3   1 -19  649.48   36.27
  -1  -3 -19  612.70   37.42
   1  -3  19  589.07   31.07
   3  -1 -19  581.36   24.16
   1  -3  20   18.20    7.13
  -1  -3 -20    4.62    7.67
  -3   1 -20   -0.42    6.73
   1   3 -20   10.45    6.95
  -1  -3 -21  264.53   26.76
  -3   1 -21  263.48   24.83
   1   3 -21  300.03   24.21
   1   3 -22  242.98   22.34
  -1  -3 -22  254.00   26.06
  -3   1 -22  218.74   23.27
   1   3 -23   86.05   14.53
  -3   1 -23  104.70   16.36
  -1  -3 -23   55.24   14.25
   1   3 -24  112.50   16.91
  -3   1 -24  105.19   17.49
  -1  -3 -24  114.14   19.89
  -3   1 -25  173.30   22.61
   1   3 -25  207.63   22.54
  -1  -3 -25  201.89   25.53
   1   3 -26   34.72   11.07
  -3   1 -26   24.82   11.85
  -1  -3 -26   54.52   15.24
  -3   1 -27   32.73   13.04
  -1  -3 -27   17.97   12.41
   1   3 -27   36.50   11.62
  -1  -3 -28   28.09   14.57
  -3   1 -28   35.05   12.13
  -3   1 -29   20.44   11.90
  -1  -3 -29   21.06   11.94
  -3   1 -30   33.41   12.30
  -1  -3 -30   38.96   14.49
  -1  -3 -31  145.00   26.10
  -3   1 -31  158.12   25.00
  -3   1 -32   22.83   13.77
  -1  -3 -32  -45.31   17.36
  -3   1 -33  117.02   22.57
  -1  -3 -33  102.06   23.78
  -1  -3 -34   10.22   14.27
  -3  -2 -34  133.29   26.96
  -3  -2 -33   32.14   15.97
  -3  -2 -32  153.20   25.92
  -3  -2 -31   62.83   18.43
  -3  -2 -30   56.26   16.68
  -2   3 -30   80.21   17.45
  -2   3 -29    5.55    7.96
  -3  -2 -29    5.21    9.40
  -3  -2 -28   58.51   15.41
  -2   3 -28   62.27   14.24
  -2   3 -27   12.42    8.81
  -3  -2 -27   -6.62    9.65
   2  -3 -27    8.28   10.31
  -3  -2 -26    1.59    9.84
  -2   3 -26   12.97    8.16
   2  -3 -26   24.46   12.33
   2  -3 -25   30.90   12.03
  -2   3 -25   17.17    8.07
  -3  -2 -25   16.82   10.40
  -2   3 -24   43.55   11.65
   2  -3 -24   51.05   14.29
  -3  -2 -24   59.77   15.29
  -3  -2 -23  125.24   20.02
  -2   3 -23  131.52   17.36
   2  -3 -23  148.94   21.77
  -3  -2 -22  324.83   29.66
  -2   3 -22  336.01   26.64
   2  -3 -22  371.87   32.46
  -2  -3  21   70.72   10.59
   2  -3 -21   72.05   15.83
  -3  -2 -21   50.65   13.47
  -2   3 -21   86.25   13.80
  -2  -3  20  424.80   23.81
  -3  -2 -20  381.52   30.64
  -2   3 -20  439.93   28.39
   2  -3 -20  444.27   33.68
  -2  -3  19  498.65   25.68
  -2   3 -19  494.97   29.94
   2  -3 -19  508.77   35.07
  -3  -2 -19  535.24   34.88
  -2  -3  18  451.17   23.86
  -3  -2 -18  425.65   32.22
  -2   3 -18  487.56   28.55
   2  -3 -18  443.18   31.70
   3  -2  17  180.93   17.06
  -2  -3  17  145.26   13.16
   3   2 -17  132.03   10.32
   2  -3 -17  142.56   18.29
  -2   3 -17  144.02   15.39
  -2  -3  16  131.57   12.17
   2  -3 -16  122.88   10.58
   3  -2  16  119.30   14.18
   3   2 -16  110.17    8.99
   2  -3 -16  124.93   16.56
  -2  -3  15   79.47    9.57
   2  -3 -15   87.31    8.86
   3  -2  15   85.76   11.23
   3   2 -15  103.55    8.44
   2  -3 -15  100.23   14.64
  -2  -3  14  285.20   17.15
   3  -2  14  290.18   20.02
   2  -3 -14  306.01   15.27
   3   2 -14  267.80   13.54
   2  -3 -14  310.88   23.66
  -2  -3  13   88.12    9.26
   3  -2  13   87.92   11.04
   2  -3 -13  108.60   14.35
   3   2 -13   94.34    7.37
   3  -2  12  497.41   25.43
   2  -3 -12  509.70   28.52
   3   2 -12  502.79   17.52
  -2  -3  12  494.52   21.27
   3  -2  11  266.33   17.74
   2  -3 -11  236.40   18.90
   3   2 -11  261.68   11.61
  -2  -3  11  236.84   13.78
   3  -2  10  115.21   11.75
  -2  -3  10  141.20   10.15
   2  -3 -10  124.48   13.72
   3   2 -10  120.28    7.30
  -2  -3  10  117.19    9.40
   3  -2   9  213.73   15.19
   2  -3  -9  225.95   16.95
  -2  -3   9  224.37   12.06
   3   2  -9  225.26    9.52
  -2  -3   9  210.08   11.91
   3  -2   8  680.94   27.74
  -2  -3   8  704.81   22.47
   2  -3  -8  683.55   29.73
  -3   2   8  689.73   29.11
   3   2  -8  729.78   18.83
  -2  -3   8  710.65   22.58
  -2   3  -8  756.19   27.04
   3  -2   7 1669.76   45.60
  -3   2   7 1720.71   48.26
   2  -3  -7 1571.58   47.18
  -2  -3   7 1696.71   37.75
   3   2  -7 1632.54   33.67
  -2  -3   7 1575.38   37.65
  -2   3  -7 1624.55   43.15
   2  -3  -6  717.94   28.34
   3  -2   6  777.85   27.43
  -3   2   6  788.71   29.51
  -2  -3   6  821.60   21.56
  -2  -3   6  755.50   21.77
  -2   3  -6  778.49   25.95
   3  -2   5  110.51    9.51
  -2  -3   5   91.61    6.41
  -2   3  -5   92.51    7.95
   3  -2   4 2817.89   60.79
  -2  -3   4 2741.59   53.96
  -2   3  -4 2815.48   59.01
  -2   3  -3  104.22    7.65
  -3   2   3   91.18    4.78
   2  -3  -3  104.78    5.86
   3  -2   3  101.58    8.84
  -2   3  -2 1825.80   40.41
  -3   2   2 1745.14   35.05
   2  -3  -2 1810.13   36.71
   3  -2   2 1958.76   42.47
  -3   2   1  270.94   10.09
  -2   3  -1  284.52   11.69
   2  -3  -1  274.40   10.58
   3  -2   1  292.63   12.29
  -2   3   0 1323.40   29.94
   2  -3   0 1316.49   30.37
   3  -2   0 1343.09   30.59
  -3   2   0 1347.84   30.25
  -2   3   1  274.52   10.46
   2  -3   1  276.06   11.70
  -3   2  -1  279.82   11.70
   3  -2  -1  258.66   10.10
  -2   3   2 1837.53   37.98
  -3   2  -2 1868.70   42.44
   2  -3   2 1908.38   41.91
   3  -2  -2 1908.65   36.95
  -2   3   3  103.23    8.68
   3  -2  -3   95.73    4.82
  -3   2  -3   89.40    7.46
   2  -3   3  103.37    8.16
  -2   3   4 3045.25   66.96
   3  -2  -4 3049.98   52.91
   2  -3   4 3040.05   64.01
  -3   2  -4 2979.12   64.18
  -2   3   5  158.26   11.81
  -3  -2   5  142.80    6.74
   2   3  -5  160.07    8.27
   3  -2  -5  158.69    5.55
  -3   2  -5  135.15   10.15
   2  -3   5  142.23   10.57
  -2   3   6  589.04   24.69
   2   3  -6  621.61   18.43
  -3  -2   6  601.81   16.16
   2  -3   6  616.74   23.56
  -3   2  -6  637.10   23.85
  -2   3   7 1644.97   47.63
  -3  -2   7 1688.89   35.67
   2   3  -7 1733.11   37.89
   2  -3   7 1674.93   45.57
  -3   2  -7 1742.68   46.09
  -3  -2   8  677.06   24.31
   2   3  -8  677.59   20.38
  -3  -2   8  670.46   19.01
  -3   2  -8  653.13   26.22
   2  -3   8  642.82   26.22
  -3  -2   9  212.48   13.27
   2   3  -9  195.48   10.44
  -3  -2   9  184.11    9.59
   2  -3   9  178.60   13.96
   3  -2 -10  136.75    7.19
   2  -3  10  122.21   12.03
  -3  -2  10  125.30   10.78
   2   3 -10  116.92    8.17
  -3  -2  10  118.28    8.10
   2  -3  11  230.48   16.75
   3  -2 -11  234.46   10.37
  -3  -2  11  232.61   15.29
   2   3 -11  248.75   12.84
  -3  -2  11  217.57   11.73
   3  -2 -12  481.12   17.11
  -3  -2  12  518.35   19.62
   2  -3  12  483.40   25.23
   2   3 -12  492.82   19.34
  -3  -2  12  525.43   24.13
   2  -3  13   91.46   11.63
  -3  -2  13   87.70    8.03
   3  -2 -13   89.57    7.28
   2   3 -13  104.11    8.80
   2  -3  14  291.37   20.47
   2   3 -14  291.80   18.95
  -3  -2  14  302.34   15.81
   3  -2 -14  295.48   22.51
   3  -2 -14  302.20   14.18
   2   3 -14  293.63   15.52
  -2  -3 -14  276.39   22.93
  -2  -3 -15   93.40   13.44
   2   3 -15  105.33   11.70
   3  -2 -15   71.17   12.73
   2  -3  15   72.48   10.36
  -3  -2  15   91.59    8.98
   3  -2 -15   85.11    7.85
   2   3 -16   95.75   11.78
   3  -2 -16   87.27   13.94
  -2  -3 -16   87.08   13.30
  -3  -2  16  100.73    9.56
   2  -3  16   80.76   11.24
   3  -2 -16   99.26    8.66
   3  -2 -17  131.77   17.46
  -2  -3 -17  128.66   16.96
   2   3 -17  112.12   13.29
  -3  -2  17  137.70   11.21
   2  -3  17  112.30   13.81
   3  -2 -17  119.07    9.93
  -2  -3 -18  403.34   29.72
   2   3 -18  441.45   26.90
   3  -2 -18  374.74   29.19
   2  -3  18  420.62   26.44
   3  -2 -18  387.85   19.31
  -2  -3 -19  485.87   33.68
   3  -2 -19  450.58   32.41
   2  -3  19  430.31   27.28
   2   3 -19  459.55   28.54
   3  -2 -19  459.98   21.41
  -3   2 -20  458.54   30.61
  -2  -3 -20  413.92   32.20
   2   3 -20  395.34   26.91
   2  -3  20  455.12   27.93
   3  -2 -20  406.77   31.88
  -2  -3 -21   69.23   15.43
  -3   2 -21   62.34   12.39
  -3   2 -22  373.81   29.32
  -2  -3 -22  411.99   33.48
  -3   2 -23  153.55   19.11
  -2  -3 -23  154.51   22.07
  -2  -3 -24   73.28   15.50
  -3   2 -24   84.38   15.05
  -3   2 -25   44.15   12.08
  -2  -3 -25   26.76   11.55
  -2  -3 -26   17.94   11.09
  -3   2 -26   23.08   11.12
  -2  -3 -27    0.27    8.61
  -3   2 -27    1.82    7.55
  -2  -3 -28   47.84   15.01
  -3   2 -28   23.43   10.42
  -2  -3 -29   -4.30   12.13
  -3   2 -29   -0.18    7.46
  -2  -3 -30   48.90   16.88
  -3   2 -30   27.46   12.64
  -2  -3 -31   73.43   19.62
  -3   2 -31   49.63   14.76
  -3   2 -32  144.90   23.82
  -2  -3 -32  122.54   24.27
  -2  -3 -33   39.27   15.53
   3  -3   0   38.68    4.78
  -3   3   0   49.73    4.87
  -3   3   1   41.98    4.21
   3  -3   1   42.58    5.12
   3  -3  -1   42.91    4.71
  -3   3  -1   47.66    4.99
  -3   3   2  411.59   13.28
   3  -3  -2  423.60   13.71
  -3   3  -2  408.02   15.93
   3  -3   2  405.05   16.54
   3  -3  -3  873.38   20.91
  -3   3   3  822.34   20.56
  -3   3  -3  824.54   25.82
   3  -3   3  892.10   27.24
   3  -3  -4 2057.54   39.99
  -3   3  -4 2055.73   48.51
   3  -3   4 2018.85   49.25
  -3   3   5  258.92   16.13
  -3  -3   5  284.86   11.24
   3  -3  -5  281.69    9.70
  -3   3  -5  268.03   14.58
   3  -3   5  280.88   15.69
   3  -3   6   21.04    5.90
  -3   3   6   10.23    4.65
  -3  -3   6   12.75    3.17
  -3   3  -6    9.92    4.04
  -3   3   7 2814.79   70.18
  -3  -3   7 2816.20   56.73
   3  -3   7 2841.80   67.67
  -3   3  -7 2942.13   66.64
   3  -3   8   92.02   10.09
  -3  -3   8   93.12    8.36
  -3  -3   8   82.39    6.60
   3   3  -8   89.92    6.40
   3  -3   9  692.88   29.21
  -3  -3   9  711.53   25.06
   3   3  -9  709.16   20.92
  -3  -3   9  706.91   22.28
   3  -3  10   -4.46    5.41
  -3  -3  10    0.47    2.51
   3   3 -10    0.60    1.81
  -3  -3  10    2.77    2.76
   3  -3  11   28.96    6.65
  -3  -3  11   41.22    6.09
   3   3 -11   47.76    5.16
  -3  -3  11   44.52    5.97
   3  -3  12  186.34   16.55
  -3  -3  12  202.62   14.05
   3   3 -12  206.30   11.54
  -3  -3  12  201.46   12.52
  -3  -3  13   27.74    5.29
   3  -3  13   15.73    6.49
   3   3 -13   17.34    3.62
   3  -3 -13   20.60    8.11
  -3  -3  13   13.83    4.14
   3  -3 -14   26.76    4.46
  -3  -3  14   17.76    5.09
   3  -3  14   28.56    7.90
   3   3 -14   28.62    4.71
   3  -3 -14   18.02    7.49
   3  -3 -15  132.27    9.79
  -3  -3  15  149.46   12.17
   3  -3  15  115.78   13.75
   3   3 -15  137.98   10.04
   3  -3 -15  129.73   16.23
   3  -3  16    5.46    5.46
  -3  -3  16    5.28    3.79
   3  -3 -16    2.48    2.30
   3   3 -16    4.24    3.02
   3  -3 -16   12.11    7.29
  -3  -3  17 1478.71   45.79
   3  -3 -17 1502.54   42.44
   3  -3 -17 1522.24   61.06
   3  -3  17 1593.37   54.98
  -3  -3 -17 1536.53   60.24
   3  -3 -18    4.47    3.30
   3  -3  18    8.54    7.06
  -3  -3  18    7.71    4.81
   3  -3 -18    7.54    8.61
  -3  -3 -18   13.70    9.69
   3  -3  19  720.13   36.72
   3  -3 -19  719.25   42.23
  -3  -3  19  726.29   30.15
  -3  -3 -19  690.95   40.91
  -3  -3  20    5.16    4.35
   3  -3  20    0.01    6.02
  -3   3 -20   15.16    8.19
  -3  -3 -20    1.89    9.15
   3  -3 -20   12.08    9.12
   3  -3 -21  567.94   39.25
  -3  -3  21  697.86   29.87
  -3  -3 -21  539.79   37.80
  -3   3 -21  506.21   32.81
  -3   3 -22  245.34   23.28
  -3  -3 -22  234.17   26.31
  -3  -3 -23  208.93   24.87
  -3   3 -23  159.47   19.38
  -3   3 -24   -0.28    6.49
  -3  -3 -24    0.63    9.25
  -3  -3 -25  -14.01   11.29
  -3   3 -25    2.41    7.67
  -3   3 -26   13.86    7.63
  -3  -3 -26   -6.15   10.24
  -3   3 -27   26.39   11.47
  -3  -3 -27    6.54    9.57
  -3   3 -28   12.49    9.56
  -3  -3 -28  -14.95   13.27
  -3   3 -29   32.54   12.28
  -3  -3 -29   72.48   19.30
  -3   3 -30   -0.87    8.21
  -3  -3 -30   -1.81   13.38
  -3  -3 -31  119.39   22.53
  -3  -3 -32    2.15    8.99
  -3  -3 -33  173.15   28.85
  -4   0   0  127.19    7.70
   0  -4   0  141.51    7.65
   0   4   0  138.75    7.31
  -4   0  -1    8.47    3.05
  -4   0   1   18.82    3.18
   0  -4   1    8.14    3.13
   0   4  -1    6.76    1.85
   0  -4   1    8.57    2.29
   0  -4  -1   10.83    3.17
   0   4   1    9.49    2.91
  -4   0  -2 3767.36   73.43
  -4   0   2 3652.32   66.30
   0   4  -2 3812.10   71.89
   0  -4   2 3882.36   72.14
   0   4   2 3694.04   73.83
   0  -4  -2 3694.34   73.05
  -4   0  -3 4594.99   89.49
   0   4  -3 4758.37   87.16
   0  -4   3 4573.68   86.84
   0  -4  -3 4661.43   89.93
  -4   0  -4 7008.23  128.28
   0  -4   4 6934.79  124.80
   0   4  -4 7080.67  124.26
   0  -4  -4 6712.79  128.56
  -4   0  -5 9999.00  172.51
   0  -4  -5 9595.26  173.57
   0  -4   5 9528.50  168.04
   0   4  -5 9302.73  166.33
  -4   0  -6    6.27    3.62
   0   4  -6    6.18    1.76
   0   4  -6    5.23    2.57
   0  -4   6   -1.98    4.07
  -4   0  -7  196.08   13.53
   0   4  -7  227.51    8.86
   0  -4  -7  239.53   15.75
   0   4  -7  204.36   11.82
   0  -4   7  213.36   12.91
   0  -4  -8   97.14   11.17
   0   4  -8  109.58    6.85
   0   4  -8  105.78    8.68
   0  -4   8   93.37    9.18
   0  -4  -9    3.67    4.98
  -4   0   9    3.24    2.97
   0   4  -9    0.93    2.09
   0   4  -9   -2.00    3.35
   0  -4   9    4.62    3.86
   0   4 -10  162.56   10.33
   0  -4 -10  169.69   15.63
   0   4 -10  193.66   12.67
   4   0 -10  178.34    6.12
   0  -4  10  154.43   12.29
   0  -4 -11  968.58   40.21
   0   4 -11 1055.94   31.23
   4   0 -11 1051.81   22.58
   0  -4  11 1096.83   36.59
   0   4 -12 1014.43   31.63
   0  -4 -12 1039.41   41.76
   4   0 -12  965.38   22.61
   0  -4  12  970.28   35.54
   0  -4 -13   10.78    7.31
   0   4 -13    6.12    3.91
   0  -4  13    4.39    4.71
   4   0 -13   12.76    2.49
   0  -4  14  375.08   22.39
   4   0 -14  413.46   14.38
   0   4 -14  394.27   20.59
   0  -4 -14  416.94   27.68
   0  -4  15  606.93   29.31
   4   0 -15  623.51   19.32
   0  -4 -15  597.79   34.21
   0   4 -15  604.79   27.08
   0  -4  16  211.75   17.44
   4   0 -16  208.97   10.92
   0   4 -16  218.42   16.64
   0  -4 -16  215.17   20.79
   0  -4  17  132.61   14.42
   4   0 -17  135.89    8.96
   0  -4 -17  115.17   16.94
   0   4 -17  121.54   13.25
   0  -4  18  275.25   20.89
   0  -4 -18  260.71   23.95
   0   4 -18  246.26   19.24
   4   0 -18  244.60   12.82
   0   4 -19   32.17    7.90
   0  -4 -19   27.50   10.27
   0  -4  19   30.14    7.23
   4   0 -19   39.29    5.46
   0  -4 -20   -3.66    8.73
   0   4 -20    1.38    5.25
   0  -4  20    2.68    5.61
   0  -4 -21   50.64   13.95
   0   4 -21   48.94    9.88
   0  -4  21   38.68    9.26
   0   4 -22   -0.35    5.31
  -4   0 -22   -7.76    9.15
   0  -4 -22    6.32   10.00
   0  -4  22    2.08    5.52
   0   4 -23   24.63    8.04
  -4   0 -23   10.02    8.08
   0  -4 -23   19.04   10.65
   0  -4  23   26.06    8.46
  -4   0 -24  694.15   43.80
   0   4 -24  601.84   37.13
   0  -4 -24  641.86   45.16
  -4   0 -25   28.14   11.07
   0  -4 -25   46.13   13.82
   0   4 -25   37.52   10.37
   0   4 -26  430.76   32.80
   0  -4 -26  421.51   38.80
  -4   0 -26  423.04   36.44
  -4   0 -27   26.41   12.13
   0  -4 -27   36.78   14.13
   0   4 -27   31.44   11.19
   0   4 -28  184.62   21.90
  -4   0 -28  201.28   26.33
   0  -4 -28  190.19   26.51
   0  -4 -29   14.89   11.94
  -4   0 -29   27.74   13.95
  -4   0 -30   95.13   19.74
   0  -4 -30   67.15   19.76
  -4   0 -31    6.92    8.31
   0  -4 -31   10.36   13.96
  -4   0 -32    5.66    9.56
   0  -4 -32   13.32   13.26
   0  -4 -33  -12.30   13.99
  -4   0 -33   -0.45    8.83
  -4   0 -34   15.53   13.05
  -4  -1 -34   29.23   13.50
  -4  -1 -33   49.17   16.97
  -4  -1 -32  -16.05   13.29
   1  -4 -31   10.64   10.76
  -4  -1 -31   13.38   10.53
   1  -4 -30   71.61   18.65
  -4  -1 -30   87.27   19.80
  -4  -1 -29  225.55   29.28
   1  -4 -29  199.04   28.55
  -4  -1 -28   97.66   19.05
   1  -4 -28  122.00   22.85
  -1   4 -28  111.22   18.21
  -1   4 -27   54.05   13.52
  -4  -1 -27   61.83   15.99
   1  -4 -27  103.30   21.27
   1  -4 -26  263.21   30.92
  -4  -1 -26  272.81   29.58
  -1   4 -26  338.66   28.89
   1  -4 -25   14.62   10.93
  -4  -1 -25    8.30    8.86
  -1   4 -25   14.95    8.67
   1  -4 -24  340.99   32.52
  -4  -1 -24  325.02   30.90
  -1   4 -24  301.80   26.10
   1  -4 -23  187.39   24.14
  -4  -1 -23  182.92   22.92
  -1   4 -23  237.66   22.52
  -1  -4  23  228.29   19.72
  -4  -1 -22   34.14   10.58
   1  -4 -22   40.31   11.41
  -1   4 -22   34.99    9.32
  -1  -4  22   47.43    9.62
  -1   4 -21    5.41    5.16
  -4  -1 -21   -5.01    8.25
   1  -4 -21   18.42   11.21
  -1  -4  21    4.52    5.26
   1  -4 -20   76.34   14.78
  -1   4 -20   63.66   10.53
  -1  -4  20   56.95   10.29
  -1   4 -19   45.69    9.12
   1  -4 -19   35.18   11.68
  -1  -4  19   37.61    8.68
   4   1 -19   46.26    5.96
  -1  -4  18  173.13   16.41
   4   1 -18  170.44   10.77
  -1   4 -18  170.23   16.05
   1  -4 -18  167.27   19.99
  -1  -4  17  402.32   24.28
   4   1 -17  419.35   16.94
  -1   4 -17  428.83   24.46
   1  -4 -17  465.21   32.03
  -1  -4  16  332.19   21.02
   4   1 -16  350.89   14.56
   1  -4 -16  314.52   26.25
  -1   4 -16  315.85   20.03
  -1  -4  15  118.04   12.48
  -1   4 -15  146.57   12.92
   1  -4 -15  145.43   17.42
   4   1 -15  148.24    8.75
  -1   4 -14 1013.56   35.59
   1  -4 -14 1054.06   45.70
   4   1 -14  998.70   26.13
  -1  -4  14 1004.09   37.03
  -1  -4  13   41.92    7.08
  -1   4 -13   41.47    6.71
   1  -4 -13   42.49    9.94
   4   1 -13   37.00    3.86
   1  -4 -12  563.07   30.15
   4   1 -12  538.15   15.70
  -1  -4  12  540.00   24.35
   4  -1  11  685.30   29.74
   1  -4 -11  554.99   29.88
   4   1 -11  598.93   15.96
  -1  -4  11  572.63   24.48
   4  -1  10  299.05   18.45
   1  -4 -10  260.78   19.56
   4   1 -10  270.21    9.14
  -1  -4  10  283.62   16.05
   1  -4  -9   12.43    6.35
   4  -1   9   19.13    5.83
  -1  -4   9   13.58    4.41
   4  -1   8   92.00   10.05
  -4   1   8   80.51    9.93
   1  -4  -8   98.79   11.70
  -1   4  -8   93.13    8.58
  -1  -4   8   79.24    8.19
   4  -1   7 1413.77   41.74
  -4  -1  -7 1528.31   41.59
  -1  -4   7 1380.04   37.37
  -1   4  -7 1513.53   39.64
   1  -4  -7 1405.34   43.89
   4  -1   6  169.71   12.28
  -1   4  -6  163.97   10.71
  -1  -4   6  174.79   10.71
   1  -4  -6  157.05   12.86
   4  -1   5 2379.78   56.22
  -1   4  -5 2451.11   53.75
  -1  -4   5 2362.77   51.62
   1  -4  -5 2496.20   59.05
   4  -1   4  308.13   15.53
   1  -4  -4  331.40   16.33
  -1   4  -4  321.65   14.15
  -1  -4   4  291.86   12.93
   4  -1   3  206.61   12.50
   1  -4  -3  211.05   12.35
  -1   4  -3  174.17   10.39
  -1  -4   3  198.05   10.28
  -4   1   3  193.97    7.19
   4  -1   2  719.02   22.83
   1  -4  -2  826.48   24.71
  -1   4  -2  754.89   22.15
  -1  -4   2  722.94   21.50
  -4   1   2  729.51   18.55
   4  -1   1  733.17   22.24
  -1   4  -1  776.62   22.26
   1  -4  -1  773.60   21.37
  -4   1   1  731.68   20.10
  -4   1   0 2794.24   55.76
   4  -1   0 2715.00   55.22
  -1   4   0 2725.81   55.72
   1  -4   0 2868.16   56.07
  -1   4   0 2851.94   55.82
  -4   1  -1  698.67   21.46
   4  -1  -1  713.50   19.18
   1  -4   1  702.87   20.87
  -1   4   1  659.08   21.09
  -4   1  -2  743.57   23.07
   4  -1  -2  689.54   17.75
   1  -4   2  723.03   21.95
  -1   4   2  699.71   22.83
   4  -1  -3  213.13    7.55
  -4   1  -3  205.47   12.20
   1  -4   3  210.71   11.37
  -1   4   3  203.06   12.10
  -4   1  -4  270.56   14.58
  -1   4   4  257.32   14.52
   1  -4   4  266.47   13.53
   1   4  -4  254.89   11.73
  -4   1  -5 2406.36   57.30
  -1   4   5 2245.44   56.99
   1   4  -5 2525.20   52.05
   1  -4   5 2440.52   54.86
  -4   1  -6  152.81   11.50
  -1   4   6  153.68   12.09
  -4  -1   6  159.93    5.69
   1   4  -6  148.19    9.50
   1  -4   6  162.95   11.39
  -4   1  -7 1672.25   45.90
  -1  -4  -7 1569.94   46.29
  -1   4   7 1573.04   46.51
   1   4  -7 1621.70   39.19
  -4  -1   7 1604.39   30.48
   1  -4   7 1576.25   43.20
   1   4  -8   76.34    5.70
  -1  -4  -8   76.90    9.73
   1   4  -8   71.97    6.70
  -4  -1   8   72.11    4.25
   1  -4   8   78.60    9.06
  -4  -1   9    6.08    1.67
  -1  -4  -9    8.99    5.32
   1   4  -9   13.51    3.16
  -4  -1   9   12.93    4.53
   1   4  -9    7.76    2.80
   1  -4   9    3.20    4.87
  -4  -1  10  247.76    9.84
  -1  -4 -10  253.49   18.65
  -4  -1  10  290.79   17.97
   1   4 -10  275.59   13.42
   1   4 -10  287.98   14.69
   1  -4  10  275.26   17.19
  -4  -1  11  607.41   17.87
  -1  -4 -11  623.70   30.77
   1   4 -11  580.07   22.18
   1   4 -11  619.47   23.47
   1  -4  11  597.70   26.92
   4  -1 -11  633.34   15.43
   1   4 -12  480.41   20.72
  -1  -4 -12  522.57   28.63
  -4  -1  12  511.20   16.29
   1  -4  12  475.01   24.89
   4  -1 -12  487.48   14.29
  -1  -4 -13   27.31    8.90
   1   4 -13   40.02    6.74
  -4  -1  13   40.90    4.70
   1  -4  13   31.62    7.56
   4  -1 -13   35.55    3.80
   1   4 -14  930.82   33.75
  -1  -4 -14  952.15   42.46
   1  -4  14  950.61   37.98
   4  -1 -14  949.35   24.71
  -1  -4 -15  150.61   17.23
   1   4 -15  158.48   13.45
   1  -4  15  153.80   15.41
   4  -1 -15  160.03    9.01
  -1  -4 -16  289.10   24.33
   1   4 -16  318.64   20.17
   1  -4  16  343.30   23.40
   4  -1 -16  339.89   14.32
  -1  -4 -17  429.92   30.28
   1   4 -17  454.28   25.10
   1  -4  17  429.77   26.96
   4  -1 -17  452.86   17.69
   1   4 -18  152.42   14.69
  -1  -4 -18  145.00   18.36
   1  -4  18  136.74   15.53
   4  -1 -18  152.32   10.16
   1   4 -19   60.14   11.03
  -1  -4 -19   68.11   14.16
   1  -4  19   48.05    9.81
   4  -1 -19   48.86    6.11
   1  -4  20   71.35   12.15
  -1  -4 -20   69.95   14.92
   1   4 -20   76.89   11.92
   1  -4  21    4.26    5.20
   1   4 -21    6.50    5.41
  -1  -4 -21    3.98    8.35
   1  -4  22   48.12   10.76
  -4   1 -22   29.38   11.12
  -1  -4 -22   28.10   10.75
   1   4 -22   46.38   10.99
   1  -4  23  196.07   20.01
   1   4 -23  196.68   20.52
  -4   1 -23  168.71   21.10
  -1  -4 -23  172.59   23.22
   1   4 -24  290.81   27.28
  -4   1 -24  339.31   30.58
  -1  -4 -24  282.52   29.67
   1   4 -25   16.54    7.91
  -4   1 -25   10.18   10.67
  -1  -4 -25   15.75   11.21
  -1  -4 -26  295.66   32.58
  -4   1 -26  296.74   29.76
  -4   1 -27   78.49   17.90
  -1  -4 -27   37.92   14.15
  -1  -4 -28  110.50   21.93
  -4   1 -28  103.74   18.88
  -1  -4 -29  171.56   26.35
  -4   1 -29  228.96   28.31
  -4   1 -30   36.67   12.50
  -1  -4 -30   91.44   20.66
  -4   1 -31   26.17   12.81
  -1  -4 -31   11.36   11.37
  -1  -4 -32   16.44   11.93
  -4   1 -32    3.50    9.11
  -1  -4 -33   33.54   15.63
  -4   1 -33   19.01   11.77
  -4  -2 -33   40.93   15.79
  -4  -2 -32   -1.92   11.94
  -4  -2 -31   68.34   17.73
  -4  -2 -30   56.78   16.69
  -4  -2 -29  188.02   27.62
  -2   4 -28   41.92   12.81
  -4  -2 -28   59.77   17.29
   2  -4 -28   25.69   12.72
  -4  -2 -27  135.10   22.89
  -2   4 -27  136.68   19.35
   2  -4 -27  122.39   22.88
  -4  -2 -26   53.00   15.58
  -2   4 -26   34.71   11.16
   2  -4 -26   43.35   14.11
   2  -4 -25    3.65   10.36
  -2   4 -25    9.81    7.46
  -4  -2 -25   28.95   11.64
  -2   4 -24   87.21   14.27
  -4  -2 -24   75.63   15.90
   2  -4 -24   96.55   19.67
  -2  -4  23  215.52   18.39
   2  -4 -23  240.74   26.82
  -4  -2 -23  176.38   23.52
  -2   4 -23  191.88   19.88
  -2  -4  22  103.42   13.24
  -4  -2 -22  110.54   17.76
  -2   4 -22   65.04   11.99
   2  -4 -22   95.84   17.27
  -2  -4  21  125.21   13.81
   2  -4 -21   92.71   17.16
  -2   4 -21  117.90   14.85
  -4  -2 -21  121.98   18.09
  -2  -4  20   71.41   10.66
   2  -4 -20   73.77   15.20
  -2   4 -20   77.85   12.39
  -2  -4  19   43.01    8.40
  -2   4 -19   65.28   11.32
  -2  -4  18  651.75   30.98
   4   2 -18  644.49   22.97
  -2   4 -18  640.52   32.08
   2  -4 -18  669.24   39.92
  -2  -4  17  392.45   23.10
   4   2 -17  398.75   16.87
  -2   4 -17  430.16   25.08
   2  -4 -17  393.17   30.02
  -2  -4  16    2.53    4.03
   4  -2  16    9.17    6.13
   2  -4 -16    7.22    7.41
   4   2 -16    0.28    1.79
   4  -2  15  699.63   33.36
   2  -4 -15  655.56   36.71
   4   2 -15  691.79   21.82
  -2  -4  15  669.98   28.96
   4  -2  14   93.87   12.07
  -2  -4  14   91.61   10.01
   4   2 -14   87.98    6.81
   2  -4 -14  100.83   13.89
  -2  -4  13   39.99    6.76
   4  -2  13   33.79    8.14
   2  -4 -13   40.66    9.11
   4   2 -13   40.73    4.58
   4  -2  12  100.54   12.15
   2  -4 -12  112.56   15.33
   4   2 -12   98.50    6.63
  -2  -4  12  111.08   10.17
   4  -2  11 1047.06   38.80
   2  -4 -11 1018.46   42.02
   4   2 -11 1040.39   25.57
  -2  -4  11 1018.21   32.86
   4  -2  10  239.85   17.47
   2  -4 -10  238.52   19.27
   4   2 -10  241.66    9.60
  -2  -4  10  230.28   13.84
   2  -4  -9  907.28   36.49
  -2  -4   9  842.08   24.75
   4  -2   9  788.08   32.40
  -2  -4   9  824.77   27.07
   2  -4  -8    2.03    4.69
  -2  -4   8    1.04    1.90
   4  -2   8   -6.18    5.60
  -2  -4   8    3.83    3.43
   4  -2   7  122.07   11.78
  -2  -4   7  135.66    7.46
   2  -4  -7  138.05   13.12
  -2  -4   7  119.79    8.77
  -2   4  -7  137.33   10.71
   4  -2   6   75.19    8.91
  -2   4  -6   84.14    8.09
  -2  -4   6   86.09    7.42
  -2  -4   6   80.33    5.15
   2  -4  -6   93.16   10.02
   4  -2   5 1111.49   35.23
  -2   4  -5 1192.50   33.49
  -2  -4   5 1123.24   29.62
   4  -2   4  289.10   15.58
  -4   2   4  277.46    8.70
  -2   4  -4  303.45   14.40
  -2  -4   4  296.09   12.73
   4  -2   3  429.88   18.14
  -2  -4   3  416.03   15.15
   2  -4  -3  396.17   14.26
  -4   2   3  417.55   12.04
  -2   4  -3  419.05   16.71
   4  -2   2 1358.30   35.83
   2  -4  -2 1384.20   32.21
  -2   4  -2 1364.81   34.32
  -4   2   2 1400.15   30.21
   2  -4  -1  225.72   10.56
  -2   4  -1  230.49   11.21
   4  -2   1  219.85   11.63
  -4   2   1  227.46    9.99
   4  -2   0    3.67    3.07
   2  -4   0    1.38    2.94
  -2   4   0   -0.15    2.10
  -4   2   0    0.47    2.06
   2  -4   1  193.47   10.73
  -2   4   1  215.22   10.21
   4  -2  -1  193.62    9.54
  -4   2  -1  218.95   11.13
  -2   4   2 1421.41   37.68
   2  -4   2 1380.85   35.44
   4  -2  -2 1404.78   31.15
  -4   2  -2 1402.12   35.97
  -2   4   3  400.12   18.21
  -4   2  -3  381.97   16.85
   4  -2  -3  363.53   11.83
   2  -4   3  362.51   16.12
  -2   4   4  272.58   15.61
  -4   2  -4  299.62   15.28
   2  -4   4  281.32   14.55
   4  -2  -4  299.00    9.39
  -2   4   5 1200.86   37.38
  -4   2  -5 1191.86   35.74
   4  -2  -5 1185.32   23.66
   2  -4   5 1182.85   34.87
  -2   4   6  195.89   14.06
   2   4  -6  202.88   10.44
  -4  -2   6  187.30    7.88
   2  -4   6  182.99   12.95
  -4   2  -6  201.28   13.63
  -4  -2   7  141.20    6.85
   2   4  -7  161.15    9.49
   2  -4   7  116.97   10.88
   2   4  -8    2.00    2.01
   2  -4   8    2.65    4.30
  -4  -2   8    0.09    1.95
  -4  -2   9  855.27   30.82
   2   4  -9  830.02   25.60
  -4  -2   9  838.23   21.98
   2  -4   9  784.73   31.08
   4  -2 -10  173.57    6.88
  -4  -2  10  195.45   14.23
   2   4 -10  173.47   10.77
  -4  -2  10  161.78    8.86
   2  -4  10  165.47   14.30
   4  -2 -11  957.52   22.78
  -4  -2  11 1044.18   36.20
   2   4 -11 1019.19   30.01
   2  -4  11 1015.89   38.19
  -4  -2  11  968.83   26.45
   4  -2 -12  104.65    6.43
   2  -4  12  103.83   12.59
   2   4 -12   97.95    8.54
  -4  -2  12  105.30    7.86
  -2  -4 -13   42.54   10.28
   4  -2 -13   44.32    4.36
  -4  -2  13   44.43    5.70
   2  -4  13   47.25    9.36
  -2  -4 -14   86.21   12.86
   2  -4  14   96.92   12.54
  -4  -2  14   93.54    8.31
   4  -2 -14   89.08    6.62
  -2  -4 -15  595.31   34.32
   2  -4  15  528.14   29.76
  -4  -2  15  575.42   21.95
   4  -2 -15  599.93   19.82
  -2  -4 -16   -2.14    7.23
  -4  -2  16   -1.01    3.13
   2  -4  16   -1.97    5.45
   4  -2 -16   -2.12    2.20
  -2  -4 -17  433.19   30.66
   2  -4  17  394.87   26.99
  -4  -2  17  432.37   19.14
   4  -2 -17  399.02   16.97
  -2  -4 -18  609.76   37.35
   2  -4  18  603.12   33.28
   4  -2 -18  572.82   21.57
  -2  -4 -19   36.23   11.01
   2  -4  19   41.13    9.55
   4  -2 -19   35.41    5.43
   2  -4  20   64.01   11.53
  -2  -4 -20   66.63   14.31
   2  -4  21   86.03   13.64
  -2  -4 -21   99.89   17.02
   2  -4  22  110.94   15.22
  -4   2 -22   81.98   14.64
  -2  -4 -22  113.89   18.66
   2  -4  23  141.16   17.34
  -2  -4 -23  161.48   22.36
  -4   2 -23  150.62   20.16
  -2  -4 -24   78.28   17.12
  -4   2 -24   74.49   14.88
  -4   2 -25   22.43    9.51
  -2  -4 -25   14.25    9.89
  -4   2 -26   40.29   12.22
  -2  -4 -26   14.24    9.84
  -2  -4 -27  142.39   24.07
  -4   2 -27  148.93   21.42
  -4   2 -28   59.47   15.34
  -2  -4 -28   30.75   13.61
  -4   2 -29  151.09   23.35
  -2  -4 -29  145.34   24.18
  -2  -4 -30   64.57   19.34
  -4   2 -30   46.19   14.78
  -4   2 -31   49.18   15.62
  -2  -4 -31   46.60   15.51
  -2  -4 -32   17.75   11.83
  -4   2 -32   12.78   10.58
  -2  -4 -33   39.63   15.45
  -4  -3 -33   47.23   17.62
  -4  -3 -32  119.53   23.92
  -4  -3 -31   40.47   15.69
  -4  -3 -30   62.10   17.47
  -4  -3 -29   -8.35   10.54
  -4  -3 -28  179.75   27.18
  -3   4 -28  167.23   22.24
  -4  -3 -27   17.08   11.35
  -3   4 -27   40.20   12.21
  -3   4 -26   24.86   10.45
  -4  -3 -26   16.78    9.66
  -3   4 -25    6.66    7.49
  -4  -3 -25   -5.99    9.59
  -3   4 -24   -1.45    6.15
  -4  -3 -24   -2.21    7.82
  -3  -4  23  272.39   19.92
  -3   4 -23  230.25   22.56
  -4  -3 -23  226.33   25.79
  -3  -4  22   71.17   10.81
  -4  -3 -22   64.93   15.43
  -3   4 -22   67.72   12.30
  -3  -4  21   97.65   11.86
  -4  -3 -21   98.11   16.69
   3  -4 -21   90.45   16.78
  -3   4 -21   98.03   14.04
   3  -4 -20  390.57   32.60
  -3  -4  20  302.33   20.56
  -4  -3 -20  295.90   29.57
  -3   4 -20  338.37   25.01
  -3  -4  19  228.54   17.70
   3  -4 -19  271.67   26.17
   4  -3  19  270.96   23.13
  -3   4 -19  267.59   21.80
   4  -3  18  271.05   22.36
   3  -4 -18  333.53   28.45
  -3  -4  18  259.86   18.40
   4  -3  17  216.28   19.96
   3  -4 -17  181.25   12.87
   3  -4 -17  230.05   23.42
  -3  -4  17  189.27   15.05
   4   3 -17  169.49   11.20
   4  -3  16  368.51   25.37
   3  -4 -16  407.26   18.48
   3  -4 -16  414.64   30.52
  -3  -4  16  407.37   21.71
   4   3 -16  380.09   16.80
  -3  -4  15   43.67    6.87
   4  -3  15   41.29    9.04
   3  -4 -15   47.17   11.68
   4   3 -15   52.37    5.91
   4  -3  14  363.00   24.32
   3  -4 -14  383.07   27.70
   4   3 -14  354.54   15.19
  -3  -4  14  375.37   19.70
   4  -3  13   93.85   12.58
   3  -4 -13   77.21   13.06
  -3  -4  13   80.40    8.91
   4   3 -13   74.74    6.46
  -3  -4  13   77.46    8.78
   4  -3  12    6.60    5.58
  -3  -4  12   20.91    4.69
   3  -4 -12   11.43    7.71
   4   3 -12   16.81    3.20
  -3  -4  12   13.98    4.57
   4  -3  11  340.63   22.40
  -3  -4  11  397.54   18.19
   4   3 -11  380.95   14.35
  -3  -4  11  380.07   17.82
  -3  -4  10  405.99   17.66
   4  -3  10  408.69   23.72
  -3  -4  10  436.33   18.45
   4  -3   9  714.61   31.37
  -3  -4   9  797.34   25.51
  -3  -4   9  823.04   25.73
   4  -3   8  621.41   27.93
  -3  -4   8  610.10   21.29
  -3  -4   8  650.66   21.13
   4  -3   7  564.51   25.31
  -3  -4   7  493.99   17.99
   4  -3   6  544.05   24.50
  -3  -4   6  549.47   18.66
  -3   4  -6  575.78   23.38
  -3  -4   5  789.06   23.09
   3  -4  -5  792.31   21.27
  -3   4  -5  786.52   27.27
   4  -3   5  810.57   29.30
   3  -4  -4 1127.05   27.63
  -3   4  -4 1197.93   33.88
  -4   3   4 1182.30   26.09
   4  -3   4 1126.20   35.47
  -3   4  -3  134.53    9.69
  -4   3   3  142.85    7.27
   3  -4  -3  135.50    7.95
   4  -3   3  158.11   11.44
   3  -4  -2  383.39   14.41
  -3   4  -2  415.75   16.90
  -4   3   2  424.38   14.08
   4  -3   2  385.77   17.34
  -4   3   1  159.80    8.74
  -3   4  -1  159.04    9.58
   3  -4  -1  164.35    9.32
   4  -3   1  150.14   10.00
  -3   4   0    8.32    2.59
   4  -3   0   11.21    3.52
   3  -4   0   10.52    2.92
  -4   3   0   10.70    2.98
  -3   4   1  142.63    8.51
   4  -3  -1  144.15    8.74
  -4   3  -1  155.34    9.72
   3  -4   1  138.53    9.29
  -3   4   2  336.16   13.39
   4  -3  -2  340.65   13.09
   3  -4   2  377.46   16.37
  -4   3  -2  373.32   16.09
   3  -4   3  142.52   10.43
  -4   3  -3  176.72   11.19
   4  -3  -3  154.30    7.92
  -3   4   4 1211.63   38.18
   4  -3  -4 1149.21   26.38
   3  -4   4 1174.10   34.95
  -4   3  -4 1181.24   34.51
  -3   4   5  755.18   29.67
   4  -3  -5  728.78   18.39
   3  -4   5  734.86   27.33
  -4   3  -5  763.07   27.29
  -3   4   6  612.49   27.62
   4  -3  -6  689.68   16.64
  -4  -3   6  640.52   18.80
   3  -4   6  621.38   25.77
  -4   3  -6  620.16   25.41
   4  -3  -7  479.78   12.98
  -4  -3   7  473.36   15.69
   3  -4   7  446.20   22.44
   4  -3  -8  530.98   14.00
  -4  -3   8  533.24   17.35
   3   4  -8  551.65   18.85
   3  -4   8  478.09   24.37
  -4  -3   9  792.07   28.40
  -4  -3   9  710.26   21.80
   3   4  -9  760.11   23.25
   3  -4   9  716.67   30.94
  -4  -3  10  390.83   19.60
   3   4 -10  422.87   16.73
   3  -4  10  413.44   23.11
  -4  -3  10  395.61   15.67
   3  -4  11  365.82   22.64
  -4  -3  11  419.51   20.78
   3   4 -11  373.58   16.13
  -4  -3  11  356.47   15.75
   3  -4  12   16.39    7.07
  -4  -3  12   13.68    4.64
   3   4 -12   11.96    3.25
  -4  -3  12   12.15    3.52
   4  -3 -13   81.76    6.26
   3  -4  13   87.14   11.99
  -4  -3  13   75.72    7.64
   3   4 -13   85.09    7.81
   4  -3 -14  322.19   13.82
   3  -4  14  328.56   23.40
   3   4 -14  330.95   16.45
  -4  -3  14  329.33   16.66
  -4  -3  15   53.96    7.06
   4  -3 -15   48.85    5.93
   3  -4  15   44.99   10.06
   3  -4  16  364.53   25.81
   4  -3 -16  354.24   15.89
  -4  -3  16  374.84   18.90
  -3  -4 -17  223.90   22.43
  -4  -3  17  215.20   14.56
   3  -4  17  218.28   20.25
   4  -3 -17  234.55   13.15
  -3  -4 -18  228.21   23.34
   3  -4  18  220.98   20.83
  -4  -3  18  237.93   15.53
   4  -3 -18  223.89   13.47
  -3  -4 -19  292.48   26.73
   3  -4  19  241.16   21.82
  -4  -3  19  249.14   16.27
  -3  -4 -20  297.39   28.00
   3  -4  20  335.19   25.93
  -4  -3  20  343.25   19.47
  -3  -4 -21  124.03   20.05
   3  -4  21  119.37   16.15
  -3  -4 -22   59.21   15.64
  -4   3 -22   53.18   11.98
   3  -4  22   60.08   12.29
  -3  -4 -23  225.83   25.89
  -4   3 -23  237.12   23.76
  -4   3 -24    9.75    8.14
  -3  -4 -24   22.09   10.63
  -4   3 -25    8.91    7.63
  -3  -4 -25    0.43    8.37
  -4   3 -26   30.48   10.38
  -3  -4 -26   39.41   13.72
  -3  -4 -27   -3.23   10.02
  -4   3 -27   35.08   11.56
  -4   3 -28  171.36   22.99
  -3  -4 -28  178.04   26.89
  -4   3 -29    3.55    6.95
  -3  -4 -29    0.75   10.27
  -3  -4 -30   39.68   14.24
  -4   3 -30   74.16   17.77
  -3  -4 -31   47.81   16.78
  -3  -4 -32   95.63   22.74
  -3  -4 -33   50.96   18.63
  -4   4   0  272.98   12.99
   4  -4   0  282.87   13.69
  -4   4   1   75.47    6.35
  -4   4  -1   71.51    6.86
   4  -4   1   72.57    7.57
   4  -4  -1   75.52    6.82
  -4   4  -2  604.67   22.21
  -4   4   2  629.37   19.38
   4  -4  -2  596.95   19.77
   4  -4   2  602.11   22.90
   4  -4  -3  721.02   21.47
  -4   4   3  737.09   21.60
  -4   4  -3  784.05   26.31
   4  -4   3  798.06   27.82
  -4   4   4 1879.12   41.08
   4  -4  -4 1959.29   41.71
   4  -4   4 2005.54   51.42
  -4   4  -4 2054.65   50.09
   4  -4  -5  425.70   14.39
   4  -4   5  465.28   21.94
   4  -4   6    9.66    4.98
   4  -4  -6   15.05    2.95
  -4  -4   6   14.07    3.64
   4  -4   7  140.35   13.04
  -4  -4   7  140.86    8.98
   4  -4  -7  116.95    7.03
   4  -4  -8 1048.80   25.34
  -4  -4   8 1065.85   28.90
   4  -4   8 1066.58   39.24
  -4  -4   9 1604.83   42.04
   4  -4   9 1453.15   48.84
  -4  -4   9 1545.60   38.48
  -4  -4  10    2.00    3.29
   4  -4  10   -2.71    6.02
  -4  -4  10   -2.22    3.05
  -4  -4  11  468.52   21.13
   4  -4  11  467.77   26.49
  -4  -4  11  456.38   19.00
   4  -4  12   96.14   12.59
  -4  -4  12   91.55    9.55
   4   4 -12   95.12    7.69
  -4  -4  12   97.00    8.83
   4  -4  13   -1.02    5.58
  -4  -4  13   -1.33    3.12
   4   4 -13   -1.27    2.25
  -4  -4  13    1.48    3.50
   4  -4  14  158.74   16.90
   4   4 -14  145.13   10.09
  -4  -4  14  136.67   11.24
   4  -4  15  440.86   29.01
   4   4 -15  486.82   19.73
  -4  -4  15  517.14   23.06
   4  -4  16  160.01   17.62
   4  -4 -16  182.98   11.47
  -4  -4  16  181.42   13.84
   4  -4  17  159.87   17.82
   4  -4 -17  160.21   11.23
  -4  -4  17  161.13   13.43
  -4  -4  18   34.99    6.98
   4  -4 -18   32.71    5.76
   4  -4  18   47.42   10.62
   4  -4  19   11.45    5.95
  -4  -4  19   10.63    5.51
  -4  -4 -19   22.74    9.97
   4  -4  20  174.39   19.42
  -4  -4  20  176.21   14.92
  -4  -4 -20  169.53   21.66
  -4  -4  21  193.70   16.01
   4  -4  21  219.14   22.08
  -4  -4 -21  245.54   26.42
   4  -4  22   14.30    8.71
  -4  -4  22    7.27    5.28
  -4  -4 -22    1.72    8.13
  -4   4 -22   -5.83    6.51
  -4  -4  23  247.40   18.10
  -4   4 -23  195.33   21.57
  -4  -4 -23  220.67   26.30
  -4  -4 -24    5.63    7.41
  -4   4 -24    0.96    6.80
  -4  -4 -25   43.95   13.76
  -4   4 -25   36.19   11.22
  -4  -4 -26   39.18   14.32
  -4   4 -26   43.68   12.01
  -4   4 -27   96.99   16.80
  -4  -4 -27   50.88   16.23
  -4   4 -28   21.63   10.04
  -4  -4 -28    8.13    8.78
  -4  -4 -29  140.64   24.82
  -4   4 -29   81.25   17.28
  -4  -4 -30    5.26   10.97
  -4  -4 -31   70.46   20.10
  -4  -4 -32  161.50   28.14
  -5   0   0    3.40    2.27
   0  -5   0    3.71    3.05
   0  -5   0    1.24    2.26
   0   5   0    3.19    1.99
  -5   0  -1  163.53    9.75
  -5   0   1  153.00    8.51
   0  -5   1  160.53    7.92
   0  -5   1  136.91    9.24
   0   5  -1  133.57    7.08
   0  -5  -1  151.29    9.25
  -5   0  -2   82.28    7.50
  -5   0   2   75.79    5.51
   0  -5   2   77.28    7.66
   0  -5  -2   80.19    7.54
   0   5  -2   73.49    4.48
  -5   0   3 1598.68   34.88
  -5   0  -3 1725.95   43.31
   0  -5   3 1784.30   42.04
   0   5  -3 1879.97   42.28
   0  -5  -3 1705.64   43.43
  -5   0   4 1166.41   25.28
  -5   0  -4 1248.28   35.96
   0   5  -4 1305.56   33.91
   0  -5   4 1193.69   33.22
   0  -5  -4 1296.96   36.98
  -5   0  -5 8655.68  158.06
   0  -5   5 8554.97  153.92
   0   5  -5 8538.43  152.43
   0  -5  -5 8262.62  158.27
  -5   0  -6 2453.45   61.17
   0  -5  -6 2387.47   62.29
   0   5  -6 2593.31   57.03
   0  -5   6 2576.91   58.55
   0   5  -7    8.73    1.98
   0  -5  -7    1.19    4.81
   0   5  -7    5.82    3.14
   0  -5   7    3.76    3.72
   0   5  -8   15.98    2.70
   0  -5  -8   14.57    5.48
   0  -5   8   14.47    5.50
   0   5  -9  490.16   15.71
   0  -5  -9  435.48   25.02
   0  -5   9  474.51   22.06
   0   5 -10   19.04    3.74
   0  -5 -10   15.56    6.52
   0  -5  10   12.39    5.52
   0   5 -11  166.93   10.28
   0  -5 -11  186.90   17.36
   0  -5  11  176.58   14.50
   0  -5 -12  221.22   19.47
   0   5 -12  227.15   12.90
   0  -5  12  198.97   15.75
   0   5 -13  341.22   17.13
   0  -5 -13  327.11   24.69
   5   0 -13  351.67    9.60
   0  -5  13  316.22   20.37
   0   5 -14  402.69   19.95
   0  -5 -14  427.35   28.79
   5   0 -14  428.37   11.95
   0  -5  14  394.18   23.47
   0   5 -15  914.27   32.81
   0  -5 -15  909.20   43.88
   5   0 -15  853.61   20.63
   0  -5  15  858.92   36.78
   0  -5  16  117.01   13.71
   5   0 -16  105.69    6.24
   0  -5 -16  100.63   15.54
   0   5 -16  106.20   11.21
   0  -5  17  216.01   18.53
   5   0 -17  208.95    9.58
   0  -5 -17  175.09   19.89
   0   5 -17  192.81   15.87
   0  -5  18   27.43    7.38
   5   0 -18   20.27    3.27
   0   5 -18   15.03    5.18
   0  -5 -18   12.16    7.10
   0  -5  19  200.70   19.04
   0  -5 -19  185.44   21.60
   0   5 -19  218.56   17.91
   0  -5  20    4.92    5.32
   0   5 -20    3.03    4.52
   0  -5 -20   -1.60    8.81
   0  -5  21   31.96    8.83
   0  -5 -21   27.92   10.92
   0   5 -21   27.14    8.39
   0  -5  22   63.20   11.35
   0  -5 -22   42.17   12.88
   0   5 -22   38.61    9.17
   0  -5  23   12.97    7.94
   0   5 -23    4.83    5.19
   0  -5 -23    3.68    9.99
   0  -5  24   37.98   10.42
   0  -5 -24   18.73   12.42
   0   5 -24   31.53    9.48
  -5   0 -24   25.88   11.50
   0  -5  25  671.41   38.18
  -5   0 -25  668.41   45.89
   0  -5 -25  728.37   50.25
   0   5 -25  713.96   40.07
   0  -5 -26   77.18   18.77
  -5   0 -26   71.78   16.57
   0   5 -26   41.17   10.89
  -5   0 -27  208.36   26.50
   0  -5 -27  198.97   27.49
  -5   0 -28    1.55    8.57
   0  -5 -28    1.39    9.87
   0  -5 -29   22.63   14.41
  -5   0 -29   17.99   12.05
   0  -5 -30   21.14   13.18
  -5   0 -30   10.80   10.12
   0  -5 -31   -7.44   12.45
  -5   0 -31    0.72    9.87
   0  -5 -32  -19.94   15.75
  -5   0 -32   -8.34   11.35
  -5   0 -33   -3.46   10.18
  -5   0 -34   15.78   10.38
  -5  -1 -34    9.30   12.17
  -5  -1 -33   12.46   11.78
  -5  -1 -32    6.43   10.08
  -5  -1 -31   22.03   13.13
   1  -5 -31  -24.87   13.51
   1  -5 -30    3.25   11.11
  -5  -1 -30   21.50   10.58
   1  -5 -29   18.74   13.69
  -5  -1 -29   10.93   10.74
  -5  -1 -28  179.60   25.96
   1  -5 -28  210.40   29.47
  -5  -1 -27  140.71   23.20
   1  -5 -27  142.22   23.62
   1  -5 -26   46.21   15.61
  -1   5 -26   13.86    7.41
  -5  -1 -26   35.17   13.39
  -1  -5  25  316.38   24.69
  -5  -1 -25  296.13   31.10
   1  -5 -25  273.93   31.27
  -1   5 -25  255.62   24.26
  -1  -5  24  189.70   19.07
  -1   5 -24  193.97   20.27
   1  -5 -24  135.66   21.83
  -5  -1 -24  178.64   23.82
  -1  -5  23   90.67   13.38
   1  -5 -23   68.12   15.56
  -5  -1 -23  117.15   19.29
  -1   5 -23   85.03   13.53
  -1  -5  22   61.08   11.36
   1  -5 -22   58.21   15.60
  -1   5 -22   51.83   10.51
  -1  -5  21   26.24    7.86
   1  -5 -21   33.30   11.16
  -1   5 -21   36.92    9.15
  -1  -5  20   40.07    9.50
   1  -5 -20   37.63   13.49
  -1   5 -20   38.25    8.78
  -1  -5  19   81.20   12.16
  -1   5 -19   90.00   11.61
   1  -5 -19   96.65   16.17
  -1  -5  18   41.87    8.90
   5   1 -18   63.14    5.76
  -1   5 -18   69.98   10.32
   1  -5 -18   52.09   12.58
  -1  -5  17    2.30    4.70
   1  -5 -17    2.18    7.43
  -1   5 -17   -1.83    3.91
   5   1 -17    5.73    2.28
   1  -5 -16  991.56   47.25
  -1   5 -16  932.46   35.07
   5   1 -16  922.67   24.01
  -1  -5  16  922.93   38.16
   1  -5 -15  175.91   19.28
  -1   5 -15  163.11   13.33
   5   1 -15  174.88    8.15
  -1  -5  15  151.93   14.73
  -1  -5  14   29.43    7.58
   1  -5 -14   30.15    9.27
  -1   5 -14   32.50    6.26
   5   1 -14   39.90    3.74
  -1   5 -13  514.94   22.09
   1  -5 -13  499.20   30.80
   5   1 -13  526.74   14.12
  -1  -5  13  507.98   25.21
   1  -5 -12  369.37   25.22
  -1   5 -12  300.13   17.20
  -1  -5  12  387.70   20.70
   1  -5 -11  409.89   25.69
  -1  -5  11  421.91   21.54
   1  -5 -10   90.49   12.33
  -1  -5  10   85.27    9.50
   1  -5  -9   30.58    8.12
   5  -1   9   57.05    9.01
  -1  -5   9   44.96    7.10
   5  -1   8 1229.94   39.75
  -1  -5   8 1179.94   35.52
   1  -5  -8 1164.51   42.18
   5  -1   7  350.33   19.43
  -1  -5   7  374.15   17.44
   1  -5  -7  358.30   21.07
   5  -1   6    6.07    4.67
  -1  -5   6    3.97    3.42
  -1   5  -6    3.30    3.28
   1  -5  -6   -2.81    5.50
   5  -1   5  793.57   28.49
   1  -5  -5  797.06   29.97
  -1   5  -5  899.75   27.66
  -1  -5   5  797.03   25.82
   5  -1   4  822.31   27.87
   1  -5  -4  825.95   29.29
  -1  -5   4  773.00   24.79
  -1   5  -4  810.39   25.90
  -5   1   4  790.38   18.54
   5  -1   3  714.55   24.88
   1  -5  -3  720.34   25.80
  -1   5  -3  697.68   23.21
  -1  -5   3  667.79   22.58
  -5   1   3  708.80   18.50
   5  -1   2  216.02   12.21
   1  -5  -2  233.47   13.05
  -1  -5   2  211.72    7.64
  -1  -5   2  204.10   11.44
  -1   5  -2  224.82   12.04
  -5   1   2  200.64    9.49
   5  -1   1 1962.81   45.69
  -5   1   1 1967.88   43.71
  -1   5  -1 2142.82   46.83
   1  -5  -1 1964.55   44.97
  -1   5  -1 1958.31   42.71
  -1  -5   1 2082.25   40.62
  -5   1   0 1582.89   38.32
   5  -1   0 1643.04   37.93
   1  -5   0 1596.24   38.73
  -1   5   0 1551.80   37.43
  -1  -5   0 1703.32   36.41
   5  -1  -1 1944.09   41.80
  -5   1  -1 1988.17   46.08
   1  -5   1 1943.03   44.88
  -1  -5  -1 1929.45   43.57
  -1   5   1 1985.95   45.42
   5  -1  -2  219.84    9.62
  -5   1  -2  214.47   12.49
   1  -5   2  201.59   12.04
  -1  -5  -2  226.62   12.30
  -1   5   2  206.30   12.09
  -5   1  -3  823.93   27.49
   1  -5   3  762.48   25.16
  -1   5   3  792.12   26.88
  -1  -5  -3  764.63   25.92
  -5   1  -4  797.91   28.03
   1   5  -4  805.76   24.91
   1  -5   4  772.35   26.00
  -1  -5  -4  826.17   28.33
  -1   5   4  746.69   27.56
  -5   1  -5  778.08   28.68
  -1   5   5  709.07   27.94
  -1  -5  -5  810.17   29.30
   1   5  -5  812.30   25.07
   1  -5   5  807.60   27.54
  -1   5   6    7.12    2.93
  -1  -5  -6    5.58    4.65
   1   5  -6    4.16    2.68
   1  -5   6    1.91    3.82
  -1  -5  -7  323.40   19.58
  -5  -1   7  347.44    9.26
   1   5  -7  348.14   16.05
   1  -5   7  343.46   18.10
  -1  -5  -8 1228.80   42.33
   1   5  -8 1270.70   35.42
  -5  -1   8 1271.48   24.86
   1  -5   8 1297.32   39.74
  -1  -5  -9   56.06   10.49
   1  -5   9   41.12    7.31
  -5  -1   9   48.58    3.30
  -1  -5 -10   74.23   11.29
   1  -5  10   87.62   10.71
  -5  -1  10   86.02    4.75
  -1  -5 -11  444.42   26.75
  -5  -1  11  478.74   13.49
   1   5 -11  452.96   18.75
   1  -5  11  467.79   24.87
  -1  -5 -12  394.26   25.55
  -5  -1  12  376.62   12.04
   1   5 -12  359.11   16.52
   1  -5  12  360.72   22.08
  -1  -5 -13  515.21   30.80
   1   5 -13  500.10   21.17
   1  -5  13  475.63   26.32
   1  -5  14   30.57    7.09
   5  -1 -14   34.66    2.88
  -1  -5 -14   49.41   11.11
   1   5 -14   33.34    6.05
   1  -5  15  167.50   16.32
   5  -1 -15  158.70    7.06
  -1  -5 -15  148.31   18.10
   1   5 -15  176.57   13.44
   1  -5  16  887.96   39.78
  -1  -5 -16  946.72   46.31
   1   5 -16  978.55   35.77
   5  -1 -16  964.97   23.21
  -1  -5 -17   -2.51    7.43
   1   5 -17    3.01    3.94
   1  -5  17    7.52    6.85
   5  -1 -17    2.40    1.45
   1  -5  18   42.81    9.38
   5  -1 -18   69.91    5.71
  -1  -5 -18   58.27   13.32
   1   5 -18   77.33   10.61
   1  -5  19   95.27   14.58
   1   5 -19  100.45   12.81
  -1  -5 -19   81.44   15.24
   1  -5  20   28.44    8.70
   1   5 -20   43.42    8.79
  -1  -5 -20   35.10   11.01
   1  -5  21   11.46    6.18
  -1  -5 -21   37.13   12.43
   1   5 -21   30.00    8.86
   1  -5  22   60.88   12.21
   1   5 -22   59.34   11.11
  -1  -5 -22   72.53   17.04
   1  -5  23   75.86   13.59
   1   5 -23  106.51   14.41
  -1  -5 -23   65.19   15.23
   1  -5  24  154.22   18.28
  -1  -5 -24  152.49   23.52
  -5   1 -24  112.71   18.62
   1  -5  25  313.04   26.31
  -5   1 -25  322.10   31.00
  -1  -5 -25  318.79   33.21
  -1  -5 -26   18.37   11.24
  -5   1 -26   31.11   11.77
  -1  -5 -27  137.54   23.24
  -5   1 -27  164.79   23.88
  -5   1 -28  302.40   32.35
  -1  -5 -28  233.95   31.52
  -5   1 -29   18.88   10.25
  -1  -5 -29   29.45   13.56
  -1  -5 -30   -0.96   11.77
  -5   1 -30    3.76    8.34
  -1  -5 -31    0.47   11.15
  -5   1 -31    9.05    8.96
  -5   1 -32    8.16    8.56
  -1  -5 -32    5.46   10.26
  -5   1 -33   27.93   15.46
  -5  -2 -33   37.65   17.57
  -5  -2 -32   32.90   13.37
  -5  -2 -31   14.49   13.16
  -5  -2 -30   65.11   18.42
  -5  -2 -29   98.86   20.61
   2  -5 -28  105.05   20.87
  -5  -2 -28  102.49   19.70
  -5  -2 -27   16.16   10.68
   2  -5 -27  -11.83   11.68
   2  -5 -26  293.52   33.34
  -5  -2 -26  215.38   27.50
  -2   5 -26  296.06   26.48
  -2  -5  25   33.02    9.38
   2  -5 -25   24.83   12.55
  -5  -2 -25   45.24   14.52
  -2   5 -25   33.23   10.52
  -2  -5  24   59.53   11.02
  -2   5 -24   58.57   11.30
   2  -5 -24   76.89   17.67
  -5  -2 -24   49.28   14.80
  -2  -5  23  254.78   21.23
  -5  -2 -23  246.67   27.10
  -2   5 -23  238.19   21.80
   2  -5 -23  287.68   30.68
  -2  -5  22   40.27    9.46
  -2   5 -22   48.11   10.16
   2  -5 -22   33.32   12.77
  -2  -5  21   -5.49    5.46
   2  -5 -21    6.25   10.82
  -2   5 -21   -2.06    4.88
  -2  -5  20   54.42    9.90
   2  -5 -20   79.44   17.13
  -2   5 -20   51.78    9.77
  -2  -5  19   92.68   12.39
   2  -5 -19   98.97   17.02
  -2   5 -19  116.18   13.56
  -2  -5  18  189.13   16.71
  -2   5 -18  202.69   17.04
   2  -5 -18  227.43   24.36
   5   2 -18  167.89    9.98
  -2   5 -17  558.87   27.74
   2  -5 -17  510.29   34.64
   5   2 -17  537.51   18.28
  -2  -5  17  514.61   27.69
   2  -5 -16  185.58   20.86
  -2   5 -16  122.97   14.65
   5   2 -16  189.03    9.76
  -2  -5  16  164.98   15.10
   5  -2  15  348.14   24.14
   2  -5 -15  302.34   25.77
   5   2 -15  308.34   12.42
  -2  -5  15  307.16   19.74
   5  -2  14  243.70   19.98
   2  -5 -14  229.27   21.78
   5   2 -14  236.14   10.16
  -2  -5  14  204.84   15.58
   2  -5 -13   29.26    9.04
   5  -2  13   38.73    9.18
  -2  -5  13   33.16    6.89
   2  -5 -12  590.98   32.92
   5  -2  12  580.06   29.51
  -2  -5  12  555.40   24.96
   2  -5 -11  817.94   38.42
   5  -2  11  836.55   35.32
  -2  -5  11  882.27   31.10
   2  -5 -10  277.80   21.36
   5  -2  10  261.59   18.56
  -2  -5  10  286.68   16.13
   5  -2   9  439.55   24.14
  -2  -5   9  481.97   20.67
   2  -5  -9  482.57   26.87
   5  -2   8  577.49   26.78
  -2  -5   8  562.01   22.09
   2  -5  -8  513.29   27.31
   2  -5  -7  516.31   26.41
   5  -2   7  460.74   23.86
  -2  -5   7  546.27   20.76
  -2  -5   7  517.36   13.97
   2  -5  -6  319.44   19.63
   5  -2   6  293.25   18.23
  -2  -5   6  315.57   14.84
   5  -2   5 1747.95   48.70
  -2  -5   5 1794.05   42.51
  -5   2   5 1720.38   33.06
  -2   5  -5 1768.89   45.21
   5  -2   4  194.44   13.78
  -2   5  -4  196.67   12.01
  -2  -5   4  198.74   11.23
  -5   2   4  190.47    7.69
   5  -2   3   13.87    4.54
  -2  -5   3   11.72    3.57
   2  -5  -3   17.83    3.68
  -2   5  -3   17.99    4.07
  -5   2   3   14.22    2.29
   5  -2   2  819.12   27.51
   2  -5  -2  815.26   24.46
  -2   5  -2  860.15   26.18
  -5   2   2  824.15   22.34
   5  -2   1   71.91    7.50
   2  -5  -1   72.28    6.77
  -2   5  -1   77.72    7.09
  -5   2   1   74.88    6.39
   5  -2   0 1201.11   32.47
  -2   5   0 1189.44   32.15
   2  -5   0 1355.11   33.66
  -5   2   0 1232.82   32.37
   5  -2  -1   67.25    6.47
  -2   5   1   57.20    6.88
   2  -5   1   69.36    7.04
  -2   5   1   79.00    6.69
  -5   2  -1   65.61    6.77
   5  -2  -2  771.51   21.91
  -2   5   2  783.12   27.11
   2  -5   2  744.83   25.19
  -5   2  -2  798.03   26.10
  -2   5   3    8.83    3.14
   5  -2  -3   19.86    3.31
  -5   2  -3   16.40    4.20
   2  -5   3   16.40    4.50
  -2   5   4  255.28   15.53
  -5   2  -4  241.38   14.74
   2  -5   4  239.73   14.39
   5  -2  -4  266.58    9.93
  -2   5   5 1518.40   45.44
  -5   2  -5 1532.73   44.37
   5  -2  -5 1638.31   31.93
   2  -5   5 1526.23   43.31
   2  -5   6  334.18   18.10
  -5  -2   7  534.69   14.70
   2   5  -7  512.87   19.60
   2  -5   7  494.75   23.45
   2   5  -8  642.81   22.49
  -5  -2   8  623.06   16.58
   2  -5   8  613.80   27.06
   2   5  -9  470.96   19.13
  -5  -2   9  445.33   13.93
   2  -5   9  404.53   22.40
   2   5 -10  265.21   14.18
   2  -5  10  248.59   18.03
  -5  -2  10  249.21   10.34
  -5  -2  11  798.22   22.05
   2  -5  11  800.36   33.84
  -2  -5 -12  578.88   31.64
   2  -5  12  541.06   28.20
  -5  -2  12  553.27   18.01
  -2  -5 -13   32.66    8.57
  -5  -2  13   41.70    4.86
   2  -5  13   25.08    7.55
   5  -2 -13   39.84    3.11
  -2  -5 -14  198.16   19.95
   2  -5  14  237.70   19.32
  -5  -2  14  219.47   11.52
   5  -2 -14  223.28    8.41
  -2  -5 -15  310.74   25.01
  -5  -2  15  298.72   13.94
   2  -5  15  275.36   21.51
   5  -2 -15  296.97   10.70
  -2  -5 -16  185.96   20.50
  -5  -2  16  176.00   10.69
   2  -5  16  153.35   16.91
   5  -2 -16  170.16    8.33
  -2  -5 -17  456.06   32.35
   2  -5  17  470.71   29.65
  -5  -2  17  580.12   20.76
   5  -2 -17  478.62   16.11
  -2  -5 -18  168.63   20.27
   2  -5  18  188.40   19.14
   5  -2 -18  202.87   10.17
   2  -5  19  103.33   14.76
  -2  -5 -19   82.25   16.29
   2  -5  20   73.81   13.40
  -2  -5 -20   95.47   16.82
   2  -5  21   -0.74    6.41
  -2  -5 -21   -8.22    9.75
   2  -5  22   26.29    8.85
  -2  -5 -22   34.41   11.08
   2  -5  23  248.56   23.40
  -2  -5 -23  232.28   26.81
   2  -5  24   97.99   15.21
  -2  -5 -24   59.39   15.99
  -5   2 -24   60.57   13.89
   2  -5  25   32.75   10.86
  -2  -5 -25   29.57   12.49
  -5   2 -25   36.33   12.53
  -2  -5 -26  283.38   31.73
  -5   2 -26  267.29   28.60
  -5   2 -27   16.27    9.62
  -2  -5 -27   -5.96    9.86
  -5   2 -28  113.31   19.52
  -2  -5 -28  109.93   21.45
  -2  -5 -29  143.32   24.93
  -5   2 -29  115.77   20.73
  -2  -5 -30   77.71   19.13
  -5   2 -30   93.83   19.54
  -5   2 -31   -1.04    8.73
  -2  -5 -31   21.39   12.66
  -2  -5 -32   15.51   13.30
  -5   2 -32  -12.98   10.66
  -5  -3 -33   89.54   22.81
  -5  -3 -32   15.27   13.53
  -5  -3 -31   92.73   20.94
  -5  -3 -30   86.61   20.97
  -5  -3 -29   77.97   18.65
  -5  -3 -28   57.75   16.33
  -3   5 -27  130.03   18.51
  -5  -3 -27  116.51   22.16
  -3   5 -26   27.30   10.70
  -5  -3 -26   17.88    9.83
  -3   5 -25  243.66   23.47
  -5  -3 -25  237.82   28.46
  -3  -5  24  165.52   16.78
  -3   5 -24  180.06   19.99
  -5  -3 -24  194.23   25.38
  -3  -5  23   66.16   10.84
  -5  -3 -23   95.86   18.35
  -3   5 -23   49.75   11.10
  -3  -5  22   76.02   11.35
  -3   5 -22   69.83   12.74
  -5  -3 -22  109.76   18.90
  -3  -5  21  137.26   15.02
  -3   5 -21  163.94   17.82
   3  -5 -21  160.14   22.65
  -3  -5  20   86.80   12.44
  -3   5 -20  102.74   13.66
   3  -5 -20   93.78   18.75
  -3  -5  19 1022.31   40.16
   3  -5 -19 1076.91   54.69
   5  -3  18    4.91    7.07
  -3  -5  18    4.67    4.53
   5   3 -18    6.85    2.93
   3  -5 -18   10.97    9.01
  -3  -5  17   90.39   11.21
   5  -3  17   79.69   13.33
   3  -5 -17  109.89   16.71
   5   3 -17  107.98    8.18
   3  -5 -16  225.87   22.73
   5  -3  16  228.75   20.56
   5   3 -16  224.00   11.79
  -3  -5  16  196.77   15.95
   5  -3  15  146.97   16.24
   3  -5 -15  147.85   18.11
   5   3 -15  132.93    8.71
  -3  -5  15  157.93   13.66
   5  -3  14  193.73   18.33
   3  -5 -14  209.71   20.95
  -3  -5  14  190.03   14.73
   3  -5 -13  853.67   42.19
   5  -3  13  878.76   39.15
  -3  -5  13  862.66   31.71
  -3  -5  12   96.71    8.56
   3  -5 -12  100.59   14.17
   5  -3  12   81.64   11.65
  -3  -5  12   94.30    9.85
  -3  -5  11 1455.11   37.46
   5  -3  11 1298.52   47.89
  -3  -5  11 1335.22   39.80
   5  -3  10  216.11   17.87
  -3  -5  10  246.57   14.56
  -3  -5  10  244.03   12.48
   5  -3   9  675.59   31.06
  -3  -5   9  681.53   24.84
  -3  -5   9  691.18   21.60
   5  -3   8   66.89    9.97
  -3  -5   8   72.03    7.52
  -3  -5   8   66.64    5.82
   5  -3   7  808.55   32.47
  -3  -5   7  772.55   25.42
   5  -3   6   69.45    9.27
   3  -5  -6   39.80    5.87
  -3  -5   6   59.59    6.58
   5  -3   5  674.93   27.60
   3  -5  -5  676.29   20.87
  -3  -5   5  668.23   22.50
  -5   3   5  660.56   17.50
   5  -3   4  674.92   26.68
  -3   5  -4  660.05   24.51
  -5   3   4  650.56   17.85
   3  -5  -4  650.67   20.70
  -3  -5   4  638.53   21.88
  -5   3   3 1097.96   26.85
  -3   5  -3 1132.46   32.93
   3  -5  -3 1073.10   28.91
   5  -3   3 1095.34   34.87
   5  -3   2   36.79    6.38
   3  -5  -2   44.96    5.47
  -3   5  -2   36.44    5.31
  -5   3   2   44.25    4.54
  -3   5  -1  838.16   26.15
   3  -5  -1  819.71   25.33
   5  -3   1  806.68   27.11
  -5   3   1  871.48   24.64
   3  -5   0  316.96   14.81
  -3   5   0  336.57   14.98
  -5   3   0  313.26   14.20
   5  -3   0  330.35   15.44
  -3   5   1  786.56   24.30
   3  -5   1  771.20   25.62
   5  -3  -1  756.23   23.98
  -5   3  -1  815.94   25.70
  -3   5   2   65.56    6.24
  -5   3  -2   69.89    7.50
   3  -5   2   55.60    6.99
   5  -3  -2   52.91    5.55
   5  -3  -3 1105.05   28.17
  -5   3  -3 1135.07   34.20
   3  -5   3 1130.65   34.34
  -3   5   4  604.84   26.44
   5  -3  -4  575.67   17.58
  -5   3  -4  609.05   24.10
   3  -5   4  587.95   24.04
  -3   5   5  705.01   29.68
   3  -5   5  670.30   27.32
   5  -3  -5  717.17   18.83
   5  -3  -6   70.53    4.85
   3  -5   6   65.78    9.05
  -5  -3   7  940.43   24.13
   5  -3  -7  903.20   20.62
   3  -5   7  901.12   33.89
   5  -3  -8   95.57    4.84
  -5  -3   8   90.13    6.39
   3  -5   8   85.58   10.80
   5  -3  -9  701.33   16.16
   3   5  -9  733.45   24.29
  -5  -3   9  711.38   20.83
   3  -5   9  728.72   31.51
   5  -3 -10  238.35    7.78
   3   5 -10  254.10   13.58
  -5  -3  10  233.36   11.23
   3  -5  10  285.25   19.50
  -5  -3  11 1459.85   45.38
   5  -3 -11 1387.66   27.82
   3   5 -11 1470.36   38.85
   3  -5  11 1400.09   48.78
  -5  -3  11 1421.92   34.89
   3  -5  12  104.19   12.58
   5  -3 -12  107.04    5.68
  -5  -3  12  101.20    8.13
   5  -3 -13  821.27   20.85
   3  -5  13  832.26   37.91
  -5  -3  13  849.36   26.35
   3  -5  14  216.02   19.26
   5  -3 -14  188.25    8.83
  -5  -3  14  201.74   12.35
   3  -5  15  134.55   15.58
  -5  -3  15  152.92   10.94
   5  -3 -15  138.78    8.01
  -3  -5 -16  198.47   21.31
  -5  -3  16  196.41   12.83
   3  -5  16  167.78   18.17
   5  -3 -16  198.45    9.98
  -3  -5 -17  102.36   16.70
  -5  -3  17   82.62    8.69
   3  -5  17  108.79   15.53
   5  -3 -17   92.42    6.99
  -3  -5 -18    4.15    7.71
  -5  -3  18    1.49    2.93
   3  -5  18   10.84    7.31
   5  -3 -18    0.59    2.03
  -5  -3  19 1085.66   34.46
   3  -5  19 1033.00   48.15
  -3  -5 -19 1013.62   51.99
   3  -5  20   96.69   14.78
  -5  -3  20  103.44    9.89
  -3  -5 -20   89.91   16.45
   3  -5  21  161.35   19.38
  -3  -5 -21  143.94   20.84
   3  -5  22   80.26   14.40
  -3  -5 -22   69.33   16.22
   3  -5  23   99.08   15.87
  -3  -5 -23   96.22   18.41
   3  -5  24  175.55   21.57
  -5   3 -24  136.49   19.35
  -3  -5 -24  150.81   22.99
  -5   3 -25  253.29   26.68
  -3  -5 -25  215.15   27.66
  -3  -5 -26   11.25    9.52
  -5   3 -26   28.73   11.58
  -3  -5 -27  128.21   22.81
  -5   3 -27  134.45   20.70
  -5   3 -28   70.77   17.13
  -3  -5 -28   58.04   16.77
  -3  -5 -29   94.59   21.55
  -5   3 -29   64.88   14.97
  -5   3 -30   58.17   15.50
  -3  -5 -30   25.82   14.87
  -3  -5 -31  102.31   24.05
  -3  -5 -32   43.20   18.28
  -5  -4 -32   79.15   23.09
  -5  -4 -31  193.52   30.09
  -5  -4 -30   72.46   18.36
  -5  -4 -29   21.73   14.03
  -5  -4 -28  100.20   21.70
  -5  -4 -27   73.82   17.87
  -4   5 -27   45.32   12.03
  -5  -4 -26   85.59   18.96
  -4   5 -26   99.53   15.95
  -5  -4 -25    8.31   10.30
  -4   5 -25   13.96    8.12
  -4   5 -24  247.40   24.11
  -5  -4 -24  246.06   28.46
  -4  -5  23   57.00    9.83
  -4   5 -23   70.30   13.66
  -5  -4 -23   68.83   16.72
  -4  -5  22   81.67   11.41
  -5  -4 -22   94.03   17.98
  -4   5 -22   81.68   13.71
   5  -4  21  529.34   34.55
  -4  -5  21  421.29   25.28
   5  -4  20   46.15   11.70
  -4  -5  20   21.44    5.94
  -4  -5  19  154.04   14.23
   5  -4  19  182.50   20.12
  -4  -5  18   36.25    7.45
   4  -5 -18   25.74    5.16
   5  -4  18   11.87    7.03
  -4  -5  17   58.34    8.83
   5  -4  17   59.08   11.67
   5   4 -17   58.90    6.56
   5  -4  16  272.64   22.96
   5   4 -16  316.17   15.08
  -4  -5  16  305.62   19.12
  -4  -5  15  500.25   24.28
   5  -4  15  499.67   31.21
  -4  -5  15  547.21   25.21
  -4  -5  14  639.00   26.51
   5  -4  14  646.60   34.67
  -4  -5  14  606.86   26.26
  -4  -5  13    6.20    3.03
   5  -4  13   18.90    7.72
  -4  -5  13   10.60    4.04
  -4  -5  12  779.51   27.69
   5  -4  12  681.34   34.77
  -4  -5  12  729.08   27.14
   5  -4  11  178.92   17.34
  -4  -5  11  188.65   12.57
  -4  -5  11  176.50   12.09
   5  -4  10  747.89   34.77
  -4  -5  10  772.77   26.71
  -4  -5  10  788.21   26.42
  -4  -5   9 1923.51   46.49
   5  -4   9 1851.83   57.31
  -4  -5   9 1817.06   45.65
   5  -4   8  104.79   12.87
   4  -5  -8   93.12    7.09
  -4  -5   8   92.60    8.49
   5  -4   7  731.04   31.19
   4  -5  -7  675.85   20.92
  -4  -5   7  669.88   23.15
   4  -5  -6  196.38   10.41
  -4  -5   6  212.84   11.97
   5  -4   6  206.60   16.39
   5  -4   5   58.90    8.53
   4  -5  -5   67.84    6.22
  -5   4   5   56.19    5.38
   4  -5  -4  265.71   12.32
  -5   4   4  241.06   11.05
   5  -4   4  238.59   15.98
  -5   4   3 1599.83   36.90
   4  -5  -3 1620.68   38.75
   5  -4   3 1543.26   44.74
  -4   5  -2 1480.94   39.90
  -5   4   2 1436.00   35.36
   4  -5  -2 1498.91   37.41
   5  -4   2 1462.22   41.26
  -5   4   1  212.70   11.49
   4  -5  -1  204.30   12.04
  -4   5  -1  211.98   12.35
   5  -4   1  194.25   12.86
  -4   5   0  918.13   27.00
  -5   4   0  776.38   25.31
   4  -5   0  812.46   26.83
   5  -4   0  764.68   26.54
  -4   5   1  224.98   12.05
   5  -4  -1  219.50   12.28
  -5   4  -1  210.78   12.51
   4  -5   1  205.59   12.96
  -4   5   2 1473.76   36.89
   5  -4  -2 1440.09   36.57
   4  -5   2 1457.08   41.04
  -5   4  -2 1512.86   40.39
  -4   5   3 1604.77   38.17
   5  -4  -3 1540.47   37.41
  -5   4  -3 1644.57   43.69
   4  -5   3 1527.65   43.97
   5  -4  -4  303.66   12.79
   4  -5   4  278.92   17.02
   5  -4  -5   85.09    6.36
   4  -5   5   78.29    9.75
   5  -4  -6  205.35    9.49
   4  -5   6  221.58   16.29
   5  -4  -7  711.72   19.48
  -5  -4   7  744.47   22.51
   4  -5   7  671.23   30.18
   4  -5   8   74.78   10.97
  -5  -4   8   88.81    7.26
   5  -4  -8   90.49    5.77
  -5  -4   9 1776.39   41.97
   5  -4  -9 1798.57   36.89
   4  -5   9 1829.48   56.17
   5  -4 -10  803.63   20.30
  -5  -4  10  805.67   25.19
   4  -5  10  810.43   35.64
  -5  -4  11  208.88   14.85
   5  -4 -11  211.24    8.80
  -5  -4  11  197.07   11.63
   4  -5  11  218.86   18.82
  -5  -4  12  737.95   30.07
   4  -5  12  697.62   34.42
  -5  -4  12  716.34   24.65
   4  -5  13   18.38    7.66
  -5  -4  13   11.77    4.06
   4  -5  14  572.42   32.38
  -5  -4  14  612.96   23.87
   4  -5  15  529.25   31.85
   5  -4 -15  557.96   18.40
  -5  -4  15  553.78   23.20
   4  -5  16  250.07   22.59
   5  -4 -16  269.66   12.77
  -5  -4  16  259.36   16.14
  -5  -4  17   65.76    8.38
   4  -5  17   54.64   10.70
   5  -4 -17   61.47    6.19
  -5  -4  18   39.01    7.12
   4  -5  18   35.44    8.54
  -4  -5 -19  137.90   19.61
  -5  -4  19  127.20   12.12
   4  -5  19  134.46   17.26
  -4  -5 -20   47.95   14.04
   4  -5  20   31.33   10.61
  -5  -4  20   29.84    6.51
  -4  -5 -21  525.04   38.31
   4  -5  21  547.87   35.12
  -5  -4  21  495.25   24.60
  -4  -5 -22  113.82   19.30
  -5  -4  22   76.43    9.90
   4  -5  22   97.41   15.77
  -4  -5 -23   52.46   14.55
   4  -5  23   56.04   12.42
  -4  -5 -24  229.58   27.60
  -5   4 -24  247.73   26.03
   4  -5  24  256.18   25.83
  -5   4 -25   12.23    8.81
  -4  -5 -25  -16.22   11.30
  -4  -5 -26   61.92   15.77
  -5   4 -26  110.56   17.98
  -5   4 -27   70.56   15.38
  -4  -5 -27   98.91   20.54
  -5   4 -28  134.80   20.69
  -4  -5 -28   96.93   20.61
  -4  -5 -29   -6.67    9.99
  -5   4 -29    5.94    8.01
  -4  -5 -30  121.40   23.32
  -4  -5 -31  123.77   24.64
  -4  -5 -32   21.94   13.82
  -5   5   0   28.52    4.95
   5  -5   0   26.33    5.42
  -5   5  -1 2074.73   50.90
  -5   5   1 2107.97   49.01
   5  -5   1 2032.37   52.38
   5  -5  -1 2155.28   50.75
  -5   5   2  146.41    9.63
   5  -5  -2  129.77    9.77
   5  -5   2  121.28   10.70
  -5   5   3  636.38   21.12
   5  -5  -3  599.72   21.24
   5  -5   3  577.38   25.38
   5  -5  -4   98.99    7.90
  -5   5   4   94.69    7.40
   5  -5   4  111.92   11.56
   5  -5  -5  234.35   11.90
   5  -5   5  264.06   18.03
   5  -5  -6  197.89   10.47
   5  -5   6  181.12   15.43
   5  -5  -7  223.88   10.81
  -5  -5   7  214.84   12.38
   5  -5   7  230.35   17.52
   5  -5   8   -3.02    6.65
  -5  -5   8   -1.02    3.30
   5  -5  -8   -0.67    2.24
  -5  -5   9  165.57   11.01
   5  -5  -9  167.12    9.37
   5  -5   9  166.23   16.24
   5  -5  10  877.66   38.68
   5  -5 -10  841.43   23.43
  -5  -5  10  867.95   27.88
   5  -5  11  393.31   25.83
  -5  -5  11  383.19   19.62
   5  -5 -11  363.21   13.78
  -5  -5  11  367.97   17.56
   5  -5  12    2.87    6.05
  -5  -5  12    5.96    3.57
   5  -5 -12    0.32    2.16
  -5  -5  12    1.75    3.40
  -5  -5  13 1690.34   48.24
   5  -5  13 1544.75   57.57
  -5  -5  13 1625.08   44.67
  -5  -5  14  648.14   27.85
   5  -5  14  613.13   34.98
  -5  -5  14  620.97   25.68
   5  -5  15  565.02   33.90
  -5  -5  15  571.19   24.94
   5  -5  16   41.47   11.28
  -5  -5  16   33.05    6.54
   5  -5 -17  241.98   13.10
   5  -5  17  230.49   22.93
  -5  -5  17  222.54   16.04
  -5  -5  18   58.24    8.71
   5  -5  18   47.04   11.35
   5  -5  19   -6.82    7.66
  -5  -5  19    3.11    3.97
   5  -5  20   20.87    9.06
  -5  -5  20   14.58    5.38
  -5  -5  21   16.33    5.43
   5  -5  21   26.02   11.35
  -5  -5 -21   20.92   11.47
  -5  -5  22  167.09   15.17
   5  -5  22  182.55   21.86
  -5  -5 -22  133.18   20.57
   5  -5  23  294.45   27.07
  -5  -5 -23  256.37   29.29
  -5   5 -24    8.51    8.71
  -5  -5 -24   21.42   12.98
  -5   5 -25  200.95   23.11
  -5  -5 -25  186.49   26.54
  -5   5 -26   -4.09    6.81
  -5  -5 -26   -0.84   10.59
  -5  -5 -27  171.17   26.20
  -5   5 -27  169.25   22.01
  -5  -5 -28  -12.66   10.12
  -5  -5 -29   95.94   21.69
  -5  -5 -30  195.16   30.22
  -5  -5 -31   24.53   13.09
  -6   0   0    7.17    3.16
   0  -6   0    3.64    3.18
   0  -6   0    4.21    3.03
  -6   0  -1  161.95   10.70
  -6   0   1  158.67    9.49
   0  -6   1  154.43   11.05
   0  -6  -1  150.05   10.42
  -6   0   2  506.30   17.51
  -6   0  -2  543.53   21.47
   0  -6   2  502.62   20.30
   0  -6  -2  557.24   21.21
  -6   0  -3   90.94    8.65
  -6   0   3   78.94    5.92
   0  -6   3   86.69    8.35
   0   6  -3   87.79    8.10
   0  -6  -3   74.38    8.38
  -6   0  -4  354.34   18.36
  -6   0   4  353.20   12.32
   0   6  -4  371.60   16.99
   0  -6   4  375.56   17.67
   0  -6  -4  346.37   18.38
  -6   0   5  424.13   12.71
   0  -6   5  429.23   19.53
   0  -6  -5  430.84   21.72
  -6   0   6 2163.63   40.12
   0  -6  -6 2178.61   58.61
   0  -6   6 2195.13   54.70
   0  -6  -7  451.43   24.14
   0  -6   7  436.17   20.94
   0  -6  -8  261.77   19.07
   0  -6   8  236.58   15.55
   0  -6  -9   39.45    9.23
   0   6  -9   51.87    4.17
   0  -6   9   50.07    8.35
   0  -6 -10  242.22   19.72
   0   6 -10  262.39   10.94
   0  -6  10  240.53   16.74
   0  -6 -11  225.33   19.26
   0   6 -11  198.16   10.50
   0  -6  11  186.50   15.67
   0   6 -12    6.94    3.05
   0  -6 -12    5.17    6.53
   0  -6  12   -2.11    5.02
   0  -6 -13   10.30    8.37
   0   6 -13    7.71    3.26
   0  -6  13    4.37    4.68
   0  -6 -14 2069.71   70.28
   0   6 -14 2045.96   51.08
   0  -6  14 2076.17   62.14
   0  -6  15   38.05    8.63
   0   6 -15   24.30    5.39
   0  -6 -15   36.85   10.52
   0  -6  16   -2.76    6.48
   0   6 -16    9.47    4.65
   0  -6 -16    9.91    9.53
   0  -6  17    5.90    6.76
   0   6 -17   -1.56    4.09
   0  -6 -17   -0.26    7.32
   0  -6  18  375.22   26.11
   6   0 -18  403.62   11.18
   0   6 -18  359.17   21.73
   0  -6 -18  399.98   31.52
   0   6 -19   12.95    5.78
   0  -6 -19    9.65    9.60
   0  -6  19    7.57    5.72
   0  -6 -20   47.39   12.83
   0   6 -20   18.29    5.82
   0  -6  20   49.27   10.17
   0  -6 -21   -6.29   10.21
   0   6 -21   -1.65    4.40
   0  -6  21   14.43    7.12
   0   6 -22    4.70    4.32
   0  -6 -22   10.54   10.85
   0  -6  22   11.86    7.11
   0  -6 -23   71.69   16.15
   0   6 -23   60.57   11.14
   0  -6  23   80.55   13.63
   0  -6 -24    9.58    9.37
   0   6 -24   12.36    5.44
   0  -6  24   -1.00    6.38
   0  -6 -25    8.40    9.84
  -6   0 -25   20.85   12.25
   0  -6  25    5.16    7.47
   0  -6 -26  911.60   59.00
   0  -6  26  887.65   46.28
   0  -6 -27   40.15   16.44
  -6   0 -27   53.15   16.09
   0  -6  27   30.46   10.56
   0  -6 -28   -7.65   11.79
  -6   0 -28   -3.15    7.78
   0  -6 -29  -12.36   11.07
  -6   0 -29  -10.69   12.10
   0  -6 -30   19.29   12.51
  -6   0 -30   16.66   12.16
  -6   0 -31  -13.14   12.70
   0  -6 -31   -4.83   11.47
  -6   0 -32  -17.78   14.03
   0  -6 -32    8.88   12.66
  -6   0 -33    6.29    9.82
  -6   0 -34   10.47   12.13
  -6  -1 -33   39.16   15.24
  -6  -1 -32  -21.28   15.21
  -6  -1 -31    5.10    8.67
   1  -6 -31    1.04   12.41
  -6  -1 -30    3.75   10.51
   1  -6 -30   17.24   13.86
  -6  -1 -29   51.24   15.55
   1  -6 -29   23.46   13.58
  -6  -1 -28  124.19   22.28
   1  -6 -28  104.98   21.52
  -6  -1 -27  353.24   35.38
   1  -6 -27  433.57   41.47
  -1  -6  27  368.04   28.22
   1  -6 -26   80.46   20.00
  -6  -1 -26   93.13   18.76
  -1  -6  26   72.32   13.04
   1  -6 -25  270.32   31.22
  -6  -1 -25  174.08   29.89
  -1  -6  25  251.59   23.15
   1  -6 -24   84.85   18.35
  -1   6 -24  111.49   15.36
  -1  -6  24   98.68   14.35
   1  -6 -23   38.13   14.43
  -1   6 -23   34.25    8.73
  -1  -6  23   38.14   10.09
  -1   6 -22    9.45    5.95
   1  -6 -22   22.90    9.75
  -1  -6  22    4.61    5.62
   1  -6 -21  171.93   23.30
  -1   6 -21  144.59   15.47
  -1  -6  21  131.38   16.60
   1  -6 -20   61.50   13.85
  -1   6 -20   74.55   11.21
  -1  -6  20   74.68   12.11
   1  -6 -19   56.67   13.62
  -1   6 -19   52.73    9.22
  -1  -6  19   37.91    8.84
  -1   6 -18  110.24   12.11
   1  -6 -18  100.07   17.17
  -1  -6  18  123.09   15.28
  -1   6 -17  350.39   20.37
   1  -6 -17  343.36   28.96
  -1  -6  17  300.12   22.33
  -1   6 -16   27.34    6.09
   1  -6 -16   30.97    9.95
  -1  -6  16   28.71    7.96
  -1   6 -15  789.85   29.23
   1  -6 -15  791.44   42.08
  -1  -6  15  784.27   34.97
   1  -6 -14  151.59   18.75
  -1   6 -14  154.26   11.45
  -1  -6  14  132.69   13.78
  -1   6 -13  511.14   20.62
   1  -6 -13  472.01   30.48
  -1  -6  13  509.98   26.01
  -1   6 -12  697.21   23.87
   1  -6 -12  646.95   35.23
  -1  -6  12  626.95   28.79
   1  -6 -11  540.20   31.15
  -1  -6  11  587.61   26.66
   1  -6 -10  239.81   19.69
  -1  -6  10  213.54   15.36
   1  -6  -9   28.91    8.75
  -1  -6   9   33.03    6.66
  -1  -6   8  135.50   11.59
   1  -6  -8  107.86   13.30
  -1  -6   7 1234.58   36.92
   1  -6  -7 1148.06   41.51
   6  -1   6  581.77   25.03
   1  -6  -6  487.67   24.82
  -1  -6   6  533.30   21.93
   6  -1   5   84.56    9.59
   1  -6  -5   70.18    8.97
  -1  -6   5   59.95    7.45
  -6   1   5   74.41    4.48
   6  -1   4  479.18   21.26
   1  -6  -4  438.58   21.63
  -1  -6   4  433.25   19.13
  -6   1   4  455.80   14.21
   6  -1   3 1663.29   42.93
   1  -6  -3 1709.28   45.09
  -1  -6   3 1675.55   41.57
  -1   6  -3 1752.88   42.58
  -6   1   3 1596.14   35.45
   6  -1   2  284.28   14.80
   1  -6  -2  220.45   14.96
  -1  -6   2  253.60    9.86
  -1   6  -2  263.44   11.45
   1  -6  -2  297.08   14.19
  -1   6  -2  261.68   14.04
  -1  -6   2  281.43   14.32
  -6   1   2  267.63   12.20
  -6   1   1  646.36   21.48
   6  -1   1  641.12   22.63
   1  -6  -1  678.60   23.04
  -1  -6   1  645.08   18.64
  -1   6  -1  611.06   20.12
  -6   1   0  249.73   13.09
   1  -6   0  245.91   13.31
  -1   6   0  231.80   12.03
  -1  -6   0  232.81   11.35
  -6   1  -1  698.74   24.58
   1  -6   1  679.44   24.10
  -1  -6  -1  700.86   22.87
  -1   6   1  718.61   24.04
  -6   1  -2  228.70   13.62
   1  -6   2  241.13   13.48
  -1   6   2  185.03   12.41
  -1  -6  -2  238.22   13.23
  -6   1  -3 1766.74   46.82
   1  -6   3 1703.74   44.62
  -1   6   3 1716.80   45.71
  -1  -6  -3 1737.06   45.23
  -6   1  -4  478.52   21.98
  -1  -6  -4  495.94   21.72
  -1   6   4  399.71   20.26
   1  -6   4  503.53   21.20
  -1   6   5   94.24   10.25
  -1  -6  -5   73.06    9.01
   1   6  -5   96.99    8.60
   1  -6   5   96.53    9.77
  -1  -6  -6  527.42   25.13
   1  -6   6  530.01   23.22
  -1  -6  -7 1171.67   41.14
   1  -6   7 1221.62   38.88
  -1  -6  -8  112.29   12.89
  -6  -1   8  113.02    4.69
   1  -6   8  115.27   11.72
  -1  -6  -9   16.72    7.06
   1  -6   9   23.17    6.92
  -1  -6 -10  199.62   17.80
   1  -6  10  187.92   15.44
  -1  -6 -11  592.45   31.74
   1  -6  11  578.72   28.42
  -1  -6 -12  663.24   34.62
   1  -6  12  686.35   31.95
  -1  -6 -13  412.05   27.90
   1  -6  13  433.61   25.60
  -1  -6 -14  149.10   17.47
   1  -6  14  119.64   13.96
  -1  -6 -15  812.21   41.64
   1  -6  15  773.99   36.98
   1  -6  16   23.73    8.25
  -1  -6 -16   17.17   10.10
   1  -6  17  311.74   23.36
  -1  -6 -17  262.65   25.22
   1  -6  18  103.95   14.24
   6  -1 -18   98.72    4.41
  -1  -6 -18   94.88   15.58
  -1  -6 -19   36.90   12.82
   1  -6  19   34.98    9.97
  -1  -6 -20   98.90   17.45
   1  -6  20   80.77   14.30
  -1  -6 -21  139.71   21.32
   1  -6  21  172.49   19.08
  -1  -6 -22   18.39   10.50
   1  -6  22    9.57    7.53
  -1  -6 -23   37.60   12.66
   1  -6  23   38.64   10.67
  -1  -6 -24   83.99   16.91
   1  -6  24   98.47   15.70
  -1  -6 -25  177.34   26.06
   1  -6  25  230.41   23.05
  -1  -6 -26   77.59   20.46
  -6   1 -26  100.53   19.56
   1  -6  26  113.14   17.00
  -6   1 -27  329.50   33.36
  -1  -6 -27  366.08   38.40
   1  -6  27  364.87   30.19
  -1  -6 -28  144.08   25.45
  -6   1 -28   95.22   19.19
  -6   1 -29   59.87   16.62
  -1  -6 -29   32.10   15.48
  -6   1 -30   14.52    9.64
  -1  -6 -30   20.56   12.73
  -1  -6 -31   -2.23   10.87
  -6   1 -31   -5.53   10.15
  -1  -6 -32    8.99   10.63
  -6   1 -32   -0.44    9.20
  -6   1 -33   45.56   15.13
  -6  -2 -33   21.55   12.30
  -6  -2 -32   18.50   14.67
  -6  -2 -31   10.86    9.35
  -6  -2 -30    2.52    9.91
  -6  -2 -29  126.28   22.79
  -6  -2 -28  168.89   26.13
  -6  -2 -27   17.46   10.47
   2  -6 -27   -6.71   11.70
  -6  -2 -26  212.14   27.53
   2  -6 -26  230.75   29.82
  -2  -6  26  228.44   21.33
  -2   6 -25   19.03    8.31
   2  -6 -25   28.91   12.61
  -6  -2 -25   20.18   11.36
  -2  -6  25   22.79    8.47
   2  -6 -24  162.43   24.65
  -2   6 -24  151.24   17.55
  -2  -6  24  137.83   16.75
   2  -6 -23   40.56   13.58
  -2   6 -23   53.88   10.63
  -2  -6  23   21.25    6.99
  -2   6 -22   24.49    7.96
   2  -6 -22   29.86   12.00
  -2  -6  22   24.09    7.97
  -2   6 -21  261.43   20.79
   2  -6 -21  290.23   29.93
  -2  -6  21  236.90   21.14
   2  -6 -20    6.69    9.03
  -2   6 -20   -2.91    5.04
  -2  -6  20    4.82    5.65
  -2   6 -19   30.29    7.79
   2  -6 -19   36.73   12.55
  -2  -6  19   23.68    7.12
   2  -6 -18  361.69   30.88
  -2   6 -18  403.90   23.58
  -2  -6  18  402.77   25.73
   2  -6 -17  222.57   23.74
  -2   6 -17  207.81   16.22
  -2  -6  17  213.00   18.28
   2  -6 -16  128.07   17.72
  -2   6 -16  144.86   13.03
  -2  -6  16  147.72   14.68
   2  -6 -15   76.28   14.84
  -2  -6  15   64.68   10.32
   2  -6 -14  297.61   25.61
   6  -2  14  340.43   23.97
  -2  -6  14  307.91   20.08
   2  -6 -13  210.31   20.80
   6  -2  13  177.73   17.73
  -2  -6  13  195.90   15.58
   2  -6 -12 1415.04   54.74
   6  -2  12 1495.57   51.24
  -2  -6  12 1432.33   45.06
   2  -6 -11    9.67    7.15
   6  -2  11   10.82    5.80
  -2  -6  11   20.29    5.92
   6  -2  10  409.25   24.25
  -2  -6  10  377.12   19.99
   2  -6 -10  392.65   26.13
   6  -2   9  657.47   30.54
  -2  -6   9  612.13   25.26
   2  -6  -9  653.23   33.06
   6  -2   8   73.16   10.54
  -2  -6   8   61.92    7.69
   2  -6  -8   73.26   11.15
   6  -2   7  111.24   12.32
  -2  -6   7   99.66    9.30
   2  -6  -7  106.81   13.12
   2  -6  -6 1592.70   49.77
   6  -2   6 1531.73   47.11
  -6   2   6 1528.69   29.92
  -2  -6   6 1637.25   42.45
   6  -2   5  179.94   14.07
  -6   2   5  162.22    7.11
  -2  -6   5  176.49   11.73
   6  -2   4  246.06   15.58
   2  -6  -4  226.76   12.07
  -2  -6   4  207.23   12.56
  -6   2   4  196.48    8.86
   6  -2   3  207.30   14.12
  -2  -6   3  207.51   12.45
   2  -6  -3  198.97   11.62
  -6   2   3  212.82   10.07
   6  -2   2  611.90   24.15
  -2   6  -2  635.26   23.20
   2  -6  -2  614.03   21.84
  -6   2   2  590.86   19.83
   6  -2   1  245.36   14.23
  -2   6  -1  281.04   14.47
   2  -6  -1  255.46   13.59
  -6   2   1  257.22   12.87
  -2   6   0 1778.56   43.83
   6  -2   0 1787.70   43.79
   2  -6   0 1670.10   42.97
  -2   6   0 1670.28   42.71
  -6   2   0 1708.31   42.51
   6  -2  -1  263.15   13.45
  -2   6   1  242.38   14.05
   2  -6   1  233.85   13.54
  -6   2  -1  246.88   13.90
   6  -2  -2  662.29   21.32
  -2   6   2  621.40   24.84
   2  -6   2  633.83   23.97
  -6   2  -2  650.26   24.55
   6  -2  -3  222.30   10.98
  -2   6   3  259.66   15.65
   2  -6   3  257.68   15.05
  -6   2  -3  246.10   14.88
   6  -2  -4  198.85    9.45
  -2   6   4  187.99   13.91
   2  -6   4  179.99   13.18
   6  -2  -5  208.72    8.66
   2  -6   5  197.26   14.11
   6  -2  -6 1398.90   28.27
   2  -6   6 1429.59   42.92
   2  -6   7  107.13   11.78
  -6  -2   8   81.21    5.24
   2  -6   8   91.90   10.56
  -6  -2   9  546.20   15.12
   2  -6   9  491.52   25.76
  -2  -6 -10  438.07   26.42
  -6  -2  10  410.02   12.99
   2  -6  10  419.04   24.20
  -2  -6 -11   33.53    9.15
  -6  -2  11   26.51    3.32
   2  -6  11   30.81    8.51
  -2  -6 -12 1514.58   54.90
  -6  -2  12 1453.98   32.71
   2  -6  12 1445.45   50.42
  -2  -6 -13  195.80   19.74
   2  -6  13  198.28   17.75
  -6  -2  13  198.88    9.52
  -2  -6 -14  331.96   25.79
  -6  -2  14  324.81   13.07
   2  -6  14  318.10   23.34
   2  -6  15   62.20   11.56
  -6  -2  15   65.72    5.85
  -2  -6 -15   84.32   13.84
  -6  -2  16  159.42    9.08
   2  -6  16  147.58   16.73
  -2  -6 -16  140.16   17.94
   2  -6  17  174.41   18.31
  -2  -6 -17  212.37   22.79
   2  -6  18  344.69   25.98
   6  -2 -18  340.10    9.43
  -2  -6 -18  319.80   28.34
  -2  -6 -19   26.94   10.31
   2  -6  19    8.16    6.38
  -2  -6 -20   -4.01    8.84
   2  -6  20   -7.64    7.47
  -2  -6 -21  260.30   27.28
   2  -6  21  206.40   22.24
  -2  -6 -22   11.62   10.95
   2  -6  22   17.07    8.48
  -2  -6 -23   55.67   16.32
   2  -6  23   39.81   10.60
  -2  -6 -24  127.10   22.06
   2  -6  24  121.38   17.46
  -2  -6 -25   34.31   14.62
   2  -6  25   11.88    7.75
  -2  -6 -26  228.44   29.62
  -6   2 -26  260.11   28.84
   2  -6  26  221.27   23.78
  -6   2 -27   36.41   12.37
  -2  -6 -27   34.32   15.07
   2  -6  27   24.55   10.21
  -2  -6 -28  207.27   29.85
  -6   2 -28  154.58   23.13
  -6   2 -29   95.17   19.56
  -2  -6 -29  109.78   23.00
  -6   2 -30   62.71   16.66
  -2  -6 -30   30.85   16.63
  -2  -6 -31    8.61   12.16
  -6   2 -31   17.25   10.26
  -2  -6 -32   14.27   14.01
  -6   2 -32    7.81   11.03
  -6  -3 -32   94.95   21.79
  -6  -3 -31   23.03   12.97
  -6  -3 -30   55.56   16.30
  -6  -3 -29   51.75   17.17
  -6  -3 -28   10.93   10.27
  -6  -3 -27  334.20   35.51
  -6  -3 -26   29.29   13.90
  -3   6 -25  206.45   21.07
  -6  -3 -25  204.19   26.54
  -3   6 -24   17.04    7.49
  -6  -3 -24   21.93   13.80
  -3  -6  24    5.83    5.25
  -3   6 -23   22.77    7.34
  -3  -6  23   34.62    9.07
  -3   6 -22  139.27   16.29
  -3  -6  22  136.12   15.81
   3  -6 -21    4.71    7.84
  -3   6 -21    6.92    6.53
  -3  -6  21    8.05    5.26
  -3   6 -20  254.80   20.51
  -3  -6  20  227.84   19.59
   3  -6 -20  276.58   28.96
  -3   6 -19  259.64   20.65
   3  -6 -19  265.95   27.92
  -3  -6  19  280.94   21.20
   3  -6 -18  607.92   40.63
  -3  -6  18  593.59   30.67
   3  -6 -17   65.50   15.20
   6  -3  17   92.29   14.29
  -3  -6  17   69.95   10.63
   3  -6 -16   68.85   13.95
   6  -3  16   69.54   12.56
  -3  -6  16   74.41   10.72
   6  -3  15  198.91   19.11
   3  -6 -15  228.86   23.17
  -3  -6  15  207.29   16.55
   3  -6 -14   18.08    9.66
   6  -3  14    9.02    6.30
  -3  -6  14   17.49    5.35
   6  -3  13 1346.81   50.89
   3  -6 -13 1406.30   56.07
  -3  -6  13 1343.70   43.39
   6  -3  12   42.10   10.04
  -3  -6  12   44.17    7.20
   6  -3  11  553.28   30.22
  -3  -6  11  559.23   24.50
   6  -3  10  205.28   18.38
  -3  -6  10  229.26   14.78
  -3  -6  10  258.82   11.50
   6  -3   9  191.20   17.38
  -3  -6   9  199.68   13.55
  -3  -6   9  214.94    9.76
   6  -3   8  847.72   36.53
  -3  -6   8  861.65   29.83
  -3  -6   8  951.68   23.31
   6  -3   7  707.28   31.68
  -3  -6   7  712.20   25.47
   6  -3   6  128.21   13.21
  -3  -6   6  132.16   10.26
  -6   3   6  127.79    6.56
   3  -6  -6  135.11    9.56
   6  -3   5   19.97    6.38
   3  -6  -5   28.98    4.73
  -6   3   5   21.20    2.95
  -3  -6   5   28.99    5.50
   6  -3   4  458.61   22.79
  -6   3   4  474.91   15.51
   3  -6  -4  484.69   18.67
  -3  -6   4  420.25   18.70
   6  -3   3  336.87   18.77
   3  -6  -3  326.31   15.48
  -6   3   3  363.27   13.97
   6  -3   2   94.96    9.63
   3  -6  -2   89.00    8.13
  -6   3   2   83.55    6.76
   6  -3   1 1638.45   44.13
  -3   6  -1 1706.35   43.14
   3  -6  -1 1557.02   41.17
  -6   3   1 1681.64   40.66
   6  -3   0   39.31    6.88
  -3   6   0   29.23    5.13
   3  -6   0   42.64    6.84
  -6   3   0   29.83    5.06
  -3   6   1 1848.86   44.79
   3  -6   1 1719.27   45.51
   6  -3  -1 1786.43   44.18
  -6   3  -1 1778.75   45.60
  -3   6   2   89.72    9.47
   6  -3  -2   91.53    7.83
  -6   3  -2   83.29    8.58
   3  -6   2   76.68    8.40
  -3   6   3  359.60   20.02
   3  -6   3  351.84   18.47
  -6   3  -3  341.13   17.98
   6  -3  -3  372.00   15.17
   6  -3  -4  513.83   17.35
   3  -6   4  483.45   22.66
   6  -3  -5   16.70    3.23
   3  -6   5   14.35    5.41
   6  -3  -6  192.59    8.81
   3  -6   6  221.16   15.92
   6  -3  -7  748.95   18.80
   3  -6   7  770.10   31.40
  -6  -3   8  946.04   24.83
   3  -6   8  962.26   37.21
   6  -3  -8  972.20   21.23
  -6  -3   9  180.50    9.36
   3  -6   9  204.38   16.99
  -6  -3  10  213.32   10.26
   3  -6  10  220.33   18.01
  -6  -3  11  532.57   17.81
   3  -6  11  492.26   27.70
   3  -6  12   64.05   11.07
  -6  -3  12   67.22    6.09
   3  -6  13 1337.21   50.86
  -6  -3  13 1337.01   34.22
  -3  -6 -14   25.80    9.13
   3  -6  14   13.72    7.64
  -6  -3  14   10.92    3.22
  -3  -6 -15  204.98   21.65
   3  -6  15  240.57   21.34
  -6  -3  15  207.82   12.14
   3  -6  16   57.55   11.29
  -6  -3  16   46.97    6.03
  -3  -6 -16   49.07   12.13
   6  -3 -16   50.14    3.01
   6  -3 -16   58.84    3.52
  -3  -6 -17   62.33   13.49
   3  -6  17   90.19   14.92
  -6  -3  17   60.64    6.77
   6  -3 -17   76.97    4.41
  -3  -6 -18  603.94   39.39
   3  -6  18  568.74   35.50
  -6  -3  18  643.19   23.45
  -3  -6 -19  235.18   25.10
   3  -6  19  217.44   21.77
  -6  -3  19  222.83   13.32
  -3  -6 -20  202.81   23.87
   3  -6  20  223.00   22.64
  -3  -6 -21    7.82    7.84
   3  -6  21    6.66    7.52
  -3  -6 -22  153.28   22.13
   3  -6  22  188.01   22.02
  -3  -6 -23   33.66   12.50
   3  -6  23   53.51   13.00
  -3  -6 -24   16.66   12.25
   3  -6  24    8.86    6.85
  -3  -6 -25  191.44   26.66
   3  -6  25  220.37   24.06
  -3  -6 -26   37.64   13.71
  -6   3 -26   32.47   12.63
   3  -6  26   10.28    8.25
  -3  -6 -27  321.85   35.74
  -6   3 -27  348.88   33.23
  -6   3 -28   15.90   10.67
  -3  -6 -28   -7.24   11.28
  -3  -6 -29   38.95   13.46
  -6   3 -29   57.06   15.30
  -3  -6 -30   37.39   14.39
  -6   3 -30   72.49   17.66
  -3  -6 -31   -1.30    8.07
  -6  -4 -31   12.11   11.48
  -6  -4 -30    0.61   13.08
  -6  -4 -29   96.81   21.38
  -6  -4 -28   80.48   18.96
  -6  -4 -27    0.13   11.06
  -6  -4 -26  395.73   37.85
  -6  -4 -25   57.36   16.80
  -4   6 -25   58.86   11.93
  -4   6 -24   82.86   14.11
  -6  -4 -24  117.82   20.91
  -4   6 -23  118.09   15.74
  -4  -6  23  164.62   16.95
  -4   6 -22  120.44   15.57
  -4  -6  22  127.66   14.68
  -4   6 -21  316.18   23.95
  -4  -6  21  229.71   19.50
  -4  -6  20  423.06   26.20
   6  -4  20  422.64   31.39
   6  -4  19   65.13   13.39
  -4  -6  19   65.31   10.68
   6  -4  18  268.55   24.50
  -4  -6  18  239.71   18.33
   6  -4  17  113.29   16.40
  -4  -6  17  131.22   13.49
   6  -4  16   30.22    9.67
  -4  -6  16   28.39    7.29
   6  -4  15  292.00   24.14
  -4  -6  15  279.58   18.47
   6  -4  14 1017.41   44.48
  -4  -6  14 1087.26   36.64
  -4  -6  13   24.86    4.58
   6  -4  13   13.96    8.85
  -4  -6  13   36.26    6.96
  -4  -6  12 1062.11   32.31
   6  -4  12 1080.58   45.92
  -4  -6  12 1139.37   36.78
   6  -4  11   94.32   13.60
  -4  -6  11  111.59   10.41
  -4  -6  11  117.34    9.04
   6  -4  10  973.35   41.27
  -4  -6  10 1006.54   33.12
  -4  -6  10 1040.50   29.46
  -4  -6   9  761.25   23.90
   6  -4   9  696.28   33.98
   4  -6  -9  703.48   23.37
  -4  -6   9  742.16   26.97
   6  -4   8  505.24   27.65
   4  -6  -8  472.36   18.23
  -4  -6   8  492.94   20.88
   6  -4   7  444.78   25.35
  -4  -6   7  460.59   19.78
   4  -6  -7  490.22   18.77
   6  -4   6  391.48   22.90
   4  -6  -6  348.34   15.36
  -4  -6   6  348.40   17.10
   6  -4   5   27.30    7.17
  -4  -6   5   25.97    5.36
  -6   4   5   26.73    3.78
   4  -6  -5   22.14    4.50
   6  -4   4   80.49   10.11
   4  -6  -4  105.28    8.45
  -6   4   4   90.15    6.77
   4  -6  -3  110.61    8.85
  -6   4   3  137.13    8.64
   6  -4   3  133.60   12.29
  -6   4   2 1860.24   44.00
   4  -6  -2 1900.35   46.41
   6  -4   2 1840.10   50.55
   6  -4   1   90.14    9.75
  -6   4   1   80.26    7.47
   4  -6  -1   84.11    8.41
   4  -6   0  235.94   14.01
  -4   6   0  204.85   12.56
  -6   4   0  209.20   12.56
   6  -4   0  228.97   13.82
  -4   6   1   86.35    8.02
   6  -4  -1   82.97    8.45
  -6   4  -1   75.74    7.98
   4  -6   1   63.65    7.99
  -4   6   2 1971.65   45.99
  -6   4  -2 1776.25   47.75
   6  -4  -2 1851.18   45.34
   4  -6   2 1749.40   48.52
   6  -4  -3  146.75    9.86
   4  -6   3  144.95   12.71
   4  -6   4  123.32   12.17
   6  -4  -4  110.42    8.23
   6  -4  -5   41.54    4.91
   4  -6   5   34.93    8.15
   6  -4  -6  379.37   14.47
   4  -6   6  391.96   22.13
   4  -6   7  414.80   23.75
   6  -4  -7  457.79   15.17
  -6  -4   8  514.12   18.22
   6  -4  -8  500.42   15.54
   4  -6   8  481.19   26.38
   6  -4  -9  707.65   18.38
  -6  -4   9  671.17   21.85
   4  -6   9  672.46   32.17
   6  -4 -10 1011.77   23.15
  -6  -4  10 1002.84   28.19
   4  -6  10  943.18   40.17
   4  -6  11  107.21   13.59
  -6  -4  11  108.91    8.33
   6  -4 -11  107.27    5.67
   6  -4 -12 1141.41   24.67
  -6  -4  12 1157.39   31.99
   4  -6  12 1103.31   45.67
   4  -6  13   23.67    7.75
   6  -4 -13   24.68    2.80
  -6  -4  13   32.04    5.22
   6  -4 -14 1137.34   25.20
   4  -6  14 1066.17   46.78
   6  -4 -14 1082.16   23.79
  -6  -4  14 1095.17   32.71
   6  -4 -15  286.19   10.85
   4  -6  15  324.02   25.33
   6  -4 -15  307.97   10.10
  -6  -4  15  282.53   15.59
  -6  -4  16   26.17    5.11
   6  -4 -16   21.28    3.13
   4  -6  16   15.46    8.18
   6  -4 -16   24.10    2.97
  -4  -6 -17   88.76   15.37
   4  -6  17   98.49   15.30
  -6  -4  17  101.79    9.64
   6  -4 -17  118.77    7.04
  -4  -6 -18  246.00   25.50
  -6  -4  18  197.46   13.96
   4  -6  18  213.69   22.66
  -4  -6 -19   60.17   15.21
  -6  -4  19   64.53    8.33
   4  -6  19   75.99   14.67
  -4  -6 -20  510.18   37.63
  -6  -4  20  471.40   22.50
   4  -6  20  466.88   33.58
  -4  -6 -21  248.29   27.32
   4  -6  21  226.37   23.91
  -4  -6 -22  167.68   24.56
   4  -6  22  133.55   18.39
  -4  -6 -23  153.55   23.24
   4  -6  23  103.84   17.15
  -4  -6 -24  139.70   23.57
   4  -6  24  113.83   17.64
  -4  -6 -25   52.54   15.44
   4  -6  25   52.46   13.08
  -4  -6 -26  369.97   37.22
  -6   4 -26  470.29   36.99
   4  -6  26  452.42   36.41
  -6   4 -27   -7.97   10.30
  -4  -6 -27   36.85   14.30
  -6   4 -28   28.98    9.88
  -4  -6 -28   66.51   17.92
  -4  -6 -29  102.61   22.17
  -6   4 -29   70.02   15.86
  -4  -6 -30   13.29   13.36
  -4  -6 -31   32.26   15.74
  -6  -5 -31   53.80   18.93
  -6  -5 -30   35.02   17.22
  -6  -5 -29  207.92   29.98
  -6  -5 -28   69.18   20.52
  -6  -5 -27  124.63   23.17
  -6  -5 -26  146.54   24.29
  -6  -5 -25  186.80   26.06
  -5   6 -25  185.97   21.35
  -5   6 -24  330.57   27.85
  -6  -5 -24  314.78   33.32
  -6  -5 -23  421.57   37.72
  -5   6 -23  413.23   30.67
   6  -5  23  444.12   33.79
   6  -5  22   47.85   12.94
  -5  -6  22   35.88    8.05
   6  -5  21  130.69   18.63
  -5  -6  21  134.49   14.18
   6  -5  20   26.50    9.99
  -5  -6  20   26.37    7.50
   6  -5  19  145.14   18.79
  -5  -6  19  161.87   15.28
  -5  -6  18   25.86    6.74
   6  -5  18   35.20   10.33
   6  -5  17  194.14   21.45
  -5  -6  17  206.44   16.33
   6  -5  16  184.69   20.63
  -5  -6  16  180.45   14.83
  -5  -6  15    5.80    3.66
   6  -5  15   -1.72    6.80
  -5  -6  15    2.65    3.65
  -5  -6  14  295.63   17.58
   6  -5  14  309.69   25.18
  -5  -6  14  303.33   18.19
  -5  -6  13 1573.53   44.74
   6  -5  13 1576.07   59.08
  -5  -6  13 1584.83   45.71
   6  -5  12  428.39   28.85
   5  -6 -12  402.75   16.18
  -5  -6  12  380.55   19.75
  -5  -6  12  432.87   20.32
   6  -5  11 1377.94   52.04
  -5  -6  11 1427.96   41.23
   5  -6 -11 1377.82   35.15
  -5  -6  11 1363.88   40.30
   6  -5  10  271.13   21.62
  -5  -6  10  252.44   14.97
   5  -6 -10  246.58   12.62
   6  -5   9  171.74   16.67
  -5  -6   9  169.95   12.11
   5  -6  -9  162.41   10.17
   6  -5   8   58.68    9.80
  -5  -6   8   75.08    7.91
   5  -6  -8   85.84    7.37
   6  -5   7    2.42    5.76
   5  -6  -7   12.08    3.39
  -5  -6   7    5.45    3.10
   6  -5   6  116.78   12.94
  -5  -6   6  103.26    9.14
   5  -6  -6  110.68    8.56
   5  -6  -5  199.79   11.83
  -6   5   5  216.31   11.33
   6  -5   5  253.66   18.13
   5  -6  -4  481.43   19.37
  -6   5   4  517.01   18.68
   6  -5   4  491.28   25.24
  -6   5   3  313.75   14.49
   5  -6  -3  327.95   15.91
   6  -5   3  287.68   18.45
   5  -6  -2  666.78   24.90
  -6   5   2  731.48   24.10
   6  -5   2  688.93   28.38
  -6   5   1 1022.84   30.91
   5  -6  -1  960.50   31.66
   6  -5   1 1001.73   33.92
  -6   5   0  741.42   26.19
   6  -5   0  732.73   27.48
   5  -6   0  739.06   27.51
  -5   6   1  963.31   30.39
   5  -6   1  962.38   33.11
   6  -5  -1  994.34   32.00
  -5   6   2  720.73   24.93
   6  -5  -2  691.67   25.11
   5  -6   2  722.77   28.51
  -5   6   3  347.81   15.91
   6  -5  -3  306.70   15.57
   5  -6   3  334.60   19.61
  -5   6   4  527.56   19.92
   6  -5  -4  519.90   19.83
   5  -6   4  519.38   25.41
   5  -6   5  222.25   17.05
   6  -5  -5  239.07   12.40
   5  -6   6  100.14   11.99
   6  -5  -6   99.48    7.64
  -6  -5   7    6.05    3.04
   5  -6   7    0.16    5.76
   5  -6   8   75.80   11.13
  -6  -5   8   84.97    7.73
   6  -5  -8   76.15    6.43
   5  -6   9  129.59   14.70
   6  -5  -9  126.84    8.01
  -6  -5   9  154.73   10.52
  -6  -5  10  242.16   13.33
   6  -5 -10  262.55   11.21
   5  -6  10  257.27   20.53
  -6  -5  11 1448.26   38.97
   6  -5 -11 1458.79   32.98
   5  -6  11 1404.95   53.02
  -6  -5  12  411.90   22.12
   5  -6  12  395.77   26.99
   6  -5 -12  361.51   13.36
  -6  -5  12  361.48   17.43
   5  -6  13 1612.62   59.51
   6  -5 -13 1644.38   35.70
  -6  -5  13 1624.17   43.63
   5  -6  14  292.60   24.36
   6  -5 -14  312.57   11.89
  -6  -5  14  311.73   16.95
   5  -6  15    0.74    7.94
   6  -5 -15    2.86    2.01
  -6  -5  15   10.20    4.19
   5  -6  16  160.20   19.06
   6  -5 -16  169.19    8.78
  -6  -5  16  164.97   13.07
   5  -6  17  237.58   23.34
   6  -5 -17  217.11   10.15
  -6  -5  17  231.49   15.92
   5  -6  18   14.81    9.22
  -6  -5  18   23.13    6.49
   5  -6  19  142.51   19.04
  -6  -5  19  138.59   12.52
  -5  -6 -20   25.67   10.84
   5  -6  20   37.84   11.77
  -6  -5  20   31.64    6.95
  -5  -6 -21  145.87   21.47
   5  -6  21  103.46   16.64
  -5  -6 -22   51.04   14.94
   5  -6  22   32.13   10.84
  -5  -6 -23  390.02   36.31
   5  -6  23  458.61   35.12
  -5  -6 -24  318.09   32.80
   5  -6  24  315.13   29.25
  -5  -6 -25  155.90   24.43
   5  -6  25  210.22   24.20
  -5  -6 -26  203.68   28.76
  -6   5 -26  227.79   25.38
  -5  -6 -27  140.42   24.57
  -6   5 -27  162.93   21.73
  -5  -6 -28   60.24   17.25
  -5  -6 -29  212.65   30.37
  -5  -6 -30   22.25   13.62
  -5  -6 -31   69.07   20.56
   6  -6   0 5195.87  106.92
   6  -6   1    0.44    4.12
   6  -6  -1    8.69    5.07
   6  -6   2   -4.97    5.82
   6  -6  -2   -0.73    3.70
  -6   6   3  110.48    9.02
   6  -6   3   98.34   11.03
   6  -6  -3  138.95   10.67
  -6   6   4  465.73   18.95
   6  -6  -4  478.95   20.03
   6  -6   4  472.80   24.97
   6  -6  -5  522.94   20.49
   6  -6   5  509.97   27.22
   6  -6   6   79.65   11.95
   6  -6  -6   64.76    7.12
   6  -6   7   23.36    7.37
  -6  -6   7   18.62    4.62
   6  -6  -7   13.63    3.36
   6  -6   8    2.77    5.91
  -6  -6   8    7.86    3.83
   6  -6  -8    4.68    2.70
   6  -6   9   -6.38    7.10
   6  -6  -9    4.78    2.80
  -6  -6   9    0.58    3.16
   6  -6  10   -2.15    6.61
  -6  -6  10   -1.33    3.43
   6  -6 -10    2.11    2.38
   6  -6  11   67.33   12.92
  -6  -6  11   56.65    7.29
   6  -6 -11   61.08    6.04
   6  -6  12 3675.23  101.03
  -6  -6  12 3896.23   83.21
   6  -6 -12 3712.28   74.06
  -6  -6  12 3942.04   86.91
   6  -6  13  106.88   15.27
  -6  -6  13  120.74   11.80
  -6  -6  13  117.66   10.78
   6  -6 -13  115.57    7.97
   6  -6  14    0.11    7.29
   6  -6 -14    2.88    2.19
  -6  -6  14    0.32    3.65
   6  -6  15   10.11    6.64
   6  -6 -15   14.33    3.42
  -6  -6  15   19.37    5.56
   6  -6  16  169.05   19.48
   6  -6 -16  149.07    9.28
  -6  -6  16  145.97   12.98
   6  -6  17   10.25    8.00
   6  -6 -17   17.57    3.57
  -6  -6  17   23.86    6.16
   6  -6  18    7.59    7.89
   6  -6 -18    9.00    3.43
  -6  -6  18   17.98    6.19
   6  -6  19   -3.20    8.36
  -6  -6  19   18.80    6.32
   6  -6  20   26.33    9.04
  -6  -6  20   41.99    8.21
  -6  -6  21    3.99    4.34
   6  -6  21    8.62    9.61
   6  -6  22    3.04    9.21
  -6  -6 -22   -1.04    8.89
   6  -6  23  105.18   18.04
  -6  -6 -23   74.99   16.83
   6  -6  24 1039.73   54.95
  -6  -6 -24 1039.71   61.28
  -6   6 -25   12.75    8.74
  -6  -6 -25    0.99   11.49
  -6  -6 -26    1.24    9.65
  -6  -6 -27   -9.73   10.82
  -6  -6 -28  517.29   46.24
  -6  -6 -29    9.54   11.24
  -6  -6 -30   19.47   12.59
  -7   0   0  326.51   15.94
   0  -7   0  285.95   15.74
   0  -7   0  322.47   15.04
  -7   0   1  367.78   16.30
  -7   0  -1  364.97   17.64
   0  -7   1  374.77   18.24
   0  -7  -1  369.01   17.30
  -7   0  -2  149.31   11.49
  -7   0   2  138.47    9.24
   0  -7   2  147.57   11.59
   0  -7  -2  161.43   11.85
  -7   0   3  514.86   18.02
   0  -7   3  505.94   21.82
   0  -7  -3  535.46   23.17
  -7   0   4  179.56    9.50
   0  -7   4  172.54   12.57
   0  -7  -4  205.82   14.93
  -7   0   5 1888.92   40.11
   0  -7   5 1941.76   50.88
   0  -7  -5 1889.25   53.82
  -7   0   6  298.86   10.87
   0  -7  -6  321.18   20.12
   0  -7   6  297.56   17.50
   0  -7  -7 3036.52   76.88
   0  -7   7 2905.44   70.60
  -7   0   7 2922.00   52.40
   0  -7  -8  175.33   16.40
   0  -7   8  182.06   14.21
   0  -7  -9   -0.81    5.69
   0  -7   9   -2.74    4.62
   0  -7 -10  199.25   18.81
   0  -7  10  218.32   16.68
   0  -7 -11  104.94   14.47
   0   7 -11  114.29    6.58
   0  -7  11  104.01   12.43
   0  -7 -12  363.05   26.01
   0   7 -12  353.74   13.86
   0  -7  12  337.86   21.83
   0  -7 -13  147.26   17.45
   0   7 -13  153.45    9.53
   0  -7  13  150.31   15.29
   0  -7 -14  116.02   16.63
   0   7 -14  116.49    8.88
   0  -7  14   73.45   11.30
   0  -7 -15  793.54   42.96
   0   7 -15  787.11   27.30
   0  -7  15  827.25   38.05
   0   7 -16   71.72    8.24
   0  -7 -16   65.41   14.10
   0  -7  16   60.60   11.45
   0  -7 -17  109.05   17.65
   0   7 -17  119.17   11.25
   0  -7  17  161.66   17.18
   0   7 -18   -3.46    4.10
   0  -7 -18    1.85    9.37
   0  -7  18   -5.78    6.92
   0   7 -19   17.04    4.90
   0  -7 -19   15.75    9.50
   0  -7  19   18.01    7.23
   0  -7 -20    2.33   10.36
   0   7 -20    1.35    3.39
   0  -7  20    4.00    6.18
   0  -7 -21   -3.07    9.95
   0   7 -21    9.91    4.95
   0  -7  21    4.20    5.86
   0  -7 -22   51.85   13.52
   0   7 -22   55.65   10.14
   0  -7  22   44.21   11.41
   0  -7 -23  -10.93   12.16
   0  -7  23   10.40    7.80
   0  -7 -24   34.12   13.32
   0  -7  24   59.10   12.38
   0  -7 -25  335.48   35.74
   0  -7  25  361.33   29.91
   0  -7 -26  166.88   25.41
   0  -7  26  140.54   18.96
   0  -7 -27  126.67   23.53
  -7   0 -27  108.97   21.08
   0  -7  27  156.18   19.88
   0  -7 -28   73.77   19.85
  -7   0 -28   67.58   16.96
   0  -7  28   78.53   14.80
   0  -7 -29   91.30   22.48
  -7   0 -29   68.81   18.00
  -7   0 -30  -10.73   13.08
   0  -7 -30    3.53    9.54
  -7   0 -31   -4.29    9.87
   0  -7 -31   -9.72   10.29
  -7   0 -32  -15.07   12.23
  -7   0 -33    8.70   12.19
  -7  -1 -33  -20.18   14.39
  -7  -1 -32   11.57   10.51
  -7  -1 -31    7.41   11.24
   1  -7 -31   10.00   11.44
   1  -7 -30   67.00   18.21
  -7  -1 -30   34.19   13.47
   1  -7 -29    1.24    9.78
  -7  -1 -29   53.56   17.96
  -7  -1 -28  185.24   27.13
   1  -7 -28  160.02   26.59
  -7  -1 -27  143.97   23.95
   1  -7 -27  118.24   22.88
  -1  -7  27  117.66   16.91
   1  -7 -26    5.24    8.33
  -1  -7  26   17.89    8.63
   1  -7 -25  102.26   20.46
  -1  -7  25  140.26   18.21
   1  -7 -24  355.68   35.35
  -1  -7  24  301.94   26.38
   1  -7 -23   36.44   14.18
  -1  -7  23   70.57   13.55
   1  -7 -22   31.74   13.37
  -1   7 -22   76.88   11.20
  -1  -7  22   51.02   11.32
   1  -7 -21   16.28   10.47
  -1   7 -21    4.70    4.38
  -1  -7  21    8.18    6.35
   1  -7 -20   64.29   15.52
  -1   7 -20   72.70   10.39
  -1  -7  20   75.87   13.15
   1  -7 -19   -1.93    8.52
  -1   7 -19    2.86    3.95
  -1  -7  19   12.29    6.62
   1  -7 -18    4.64    8.42
  -1   7 -18    3.27    4.62
  -1  -7  18  -13.64    7.16
   1  -7 -17    3.47    8.35
  -1   7 -17    8.56    4.35
  -1  -7  17   14.91    7.62
  -1   7 -16  770.00   28.93
   1  -7 -16  742.84   43.00
  -1  -7  16  774.90   36.54
  -1   7 -15  151.10   11.23
   1  -7 -15  138.84   19.07
  -1  -7  15  128.53   14.39
   1  -7 -14   41.30   11.29
  -1   7 -14   59.04    6.70
  -1  -7  14   52.96    9.88
  -1   7 -13  472.21   18.53
   1  -7 -13  445.07   31.03
  -1  -7  13  452.83   25.38
   1  -7 -12  246.15   22.54
  -1   7 -12  253.86   12.43
  -1  -7  12  235.81   18.13
  -1   7 -11  219.36   10.67
   1  -7 -11  205.15   19.45
  -1  -7  11  219.00   16.62
   1  -7 -10  139.32   16.43
  -1  -7  10  115.48   11.55
   1  -7  -9  184.84   17.62
  -1  -7   9  149.32   13.54
   1  -7  -8 1077.87   42.66
  -1  -7   8 1121.70   37.46
   1  -7  -7  934.13   38.32
  -1  -7   7  918.11   32.60
   1  -7  -6  197.50   16.52
  -1  -7   6  208.57   14.25
  -7   1   6  219.53    8.21
   1  -7  -5  330.72   20.24
  -1  -7   5  344.02   18.21
  -7   1   5  314.00   11.95
  -1   7  -4 1407.36   31.69
   1  -7  -4 1497.53   45.13
  -1  -7   4 1474.57   41.66
  -7   1   4 1500.54   34.41
   1  -7  -3  200.46   14.48
  -1   7  -3  190.88    9.26
  -1  -7   3  189.62   13.15
  -7   1   3  183.80   10.32
  -7   1   2   39.84    4.90
  -1  -7   2   43.61    6.60
   1  -7  -2   44.26    6.37
  -1  -7   2   49.10    4.64
  -1   7  -2   48.62    5.09
  -7   1   1  812.54   26.56
   1  -7  -1  824.43   28.06
  -1  -7   1  834.18   28.58
  -1  -7   1  833.57   23.64
  -1   7  -1  797.68   24.56
  -7   1   0   20.15    4.69
   1  -7   0   23.08    5.42
  -1  -7   0   19.96    4.10
  -1   7   0   25.94    4.33
  -7   1  -1  820.09   28.59
   1  -7   1  818.76   28.49
  -1  -7  -1  828.23   26.70
  -1   7   1  845.14   27.70
  -7   1  -2   44.70    6.87
  -1   7   2   37.13    5.99
  -1  -7  -2   39.77    6.15
   1  -7   2   43.90    7.03
  -1  -7  -3  187.03   13.18
  -1   7   3  172.46   12.91
   1  -7   3  200.05   13.52
  -1  -7  -4 1482.21   44.37
  -1   7   4 1587.65   45.91
   1  -7   4 1530.83   44.01
  -1  -7  -5  365.57   20.32
   1  -7   5  385.85   20.30
  -1  -7  -6  195.43   15.46
   1  -7   6  211.85   15.35
  -1  -7  -7  846.84   34.80
   1  -7   7  871.93   33.35
  -1  -7  -8 1105.12   41.97
   1  -7   8 1058.22   38.11
  -1  -7  -9  154.66   15.59
  -7  -1   9  133.37    4.99
   1  -7   9  121.17   13.06
  -1  -7 -10  143.46   15.74
   1  -7  10  137.82   13.80
  -1  -7 -11  174.34   17.94
   1  -7  11  176.93   15.99
  -1  -7 -12  202.85   19.59
   1  -7  12  235.54   18.67
  -1  -7 -13  517.65   31.77
   1  -7  13  525.39   29.24
  -1  -7 -14   41.94   10.23
   1  -7  14   48.14   10.39
  -1  -7 -15  132.12   17.59
   1  -7  15  135.87   16.33
  -1  -7 -16  836.15   44.40
   1  -7  16  722.49   37.52
  -1  -7 -17    6.20    6.47
   1  -7  17   11.53    7.38
  -1  -7 -18   -4.82    8.81
   1  -7  18   -4.96    6.25
  -1  -7 -19    8.49    9.74
   1  -7  19   10.57    7.10
  -1  -7 -20   49.04   13.17
   1  -7  20   68.77   13.03
  -1  -7 -21    0.48    7.62
   1  -7  21   12.50    7.44
  -1  -7 -22   60.11   15.89
   1  -7  22   59.78   12.88
  -1  -7 -23   60.05   16.13
   1  -7  23   67.91   13.94
  -1  -7 -24  392.79   37.05
   1  -7  24  365.58   30.26
  -1  -7 -25  145.37   23.13
   1  -7  25  152.64   19.94
  -1  -7 -26    0.29    7.68
   1  -7  26    7.23    6.84
  -1  -7 -27  104.06   21.14
  -7   1 -27   65.50   19.75
   1  -7  27  108.68   17.06
  -7   1 -28  201.70   27.66
  -1  -7 -28  267.34   34.14
   1  -7  28  191.45   22.27
  -1  -7 -29   25.29   14.87
  -7   1 -29   37.38   14.27
  -1  -7 -30   18.79   12.99
  -7   1 -30   41.70   15.46
  -1  -7 -31  -21.68   16.37
  -7   1 -31    5.04   10.39
  -7   1 -32  -11.47   11.27
  -7   1 -33  -26.22   14.73
  -7  -2 -32    8.93   11.33
  -7  -2 -31   15.83   11.96
  -7  -2 -30   77.08   20.32
  -7  -2 -29  148.20   25.24
  -7  -2 -28  118.83   23.34
   2  -7 -27   -0.65   11.20
  -7  -2 -27   13.63   11.59
   2  -7 -26  132.58   23.06
  -7  -2 -26  118.21   22.11
  -2  -7  26  116.96   16.34
   2  -7 -25   -7.89   12.58
  -2  -7  25    7.78    7.01
   2  -7 -24  261.11   31.24
  -2  -7  24  277.69   24.55
   2  -7 -23  171.13   25.28
  -2  -7  23  134.97   17.44
  -2   7 -22  148.38   15.88
   2  -7 -22  169.30   24.05
  -2  -7  22  136.52   17.10
  -2   7 -21   27.11    7.47
   2  -7 -21   49.97   14.96
  -2  -7  21   26.32    8.13
  -2   7 -20   49.42    9.03
   2  -7 -20   62.05   15.92
  -2  -7  20   26.74    8.09
   2  -7 -19  156.39   22.16
  -2   7 -19  144.49   14.05
  -2  -7  19  168.13   17.77
   2  -7 -18   71.44   16.89
  -2   7 -18   54.82    8.74
  -2  -7  18   45.66    9.42
   2  -7 -17  377.22   31.03
  -2   7 -17  354.90   20.20
  -2  -7  17  361.85   24.46
  -2   7 -16  394.80   20.79
   2  -7 -16  379.08   30.56
  -2  -7  16  385.85   24.85
   2  -7 -15  316.38   27.59
  -2   7 -15  228.19   17.03
  -2  -7  15  361.39   22.89
   2  -7 -14  293.94   25.87
  -2  -7  14  307.33   21.17
   2  -7 -13    3.05    8.53
  -2  -7  13   19.53    6.35
   2  -7 -12  294.06   24.37
   7  -2  12  316.37   22.37
  -2  -7  12  282.96   19.00
   2  -7 -11  205.54   19.94
   7  -2  11  225.57   19.11
  -2  -7  11  208.19   15.83
   7  -2  10  633.24   31.64
   2  -7 -10  662.81   35.11
  -2  -7  10  599.43   26.84
   2  -7  -9   66.98   11.98
   7  -2   9   71.35   11.07
  -2  -7   9   75.17    9.56
   7  -2   8  323.40   21.31
  -2  -7   8  249.03   16.32
   2  -7  -8  305.85   22.41
   2  -7  -7  161.52   16.33
   7  -2   7  154.39   14.64
  -2  -7   7  162.72   12.91
  -7   2   7  166.99    6.21
   7  -2   6   30.17    7.50
  -7   2   6   28.37    2.91
  -2  -7   6   23.52    6.06
   7  -2   5  805.44   31.87
  -2  -7   5  759.41   27.92
  -7   2   5  760.17   20.55
   7  -2   4  251.67   17.07
  -2  -7   4  246.80    8.16
   2  -7  -4  260.18   14.28
  -2  -7   4  291.51   16.32
  -7   2   4  267.17   11.56
   7  -2   3   23.07    5.86
   2  -7  -3   25.07    5.55
  -2  -7   3   13.58    4.36
  -7   2   3   25.93    4.05
   7  -2   2  404.95   19.72
   2  -7  -2  389.85   18.32
  -7   2   2  379.75   16.32
   7  -2   1  119.50   10.14
  -2   7  -1  118.67    9.31
   2  -7  -1  116.42    9.89
  -7   2   1  108.79    9.01
   7  -2   0  170.53   11.65
  -2   7   0  162.65   11.50
   2  -7   0  137.92   11.07
  -7   2   0  178.81   11.88
   7  -2  -1   97.87    8.61
  -2   7   1  103.77    9.46
   2  -7   1  120.77   10.40
  -7   2  -1   98.71    9.22
   7  -2  -2  378.84   16.30
  -2   7   2  405.15   20.06
   2  -7   2  398.18   19.59
  -7   2  -2  411.05   20.03
   7  -2  -3   31.98    4.70
   2  -7   3   23.54    5.60
  -2   7   3   29.09    5.93
   7  -2  -4  333.63   13.22
   2  -7   4  334.42   18.73
   2  -7   5  766.72   30.46
   2  -7   6   40.81    8.00
  -2  -7  -7  196.15   16.45
   2  -7   7  200.30   15.74
  -2  -7  -8  269.90   19.67
   2  -7   8  325.41   20.73
  -2  -7  -9   70.67   11.89
  -7  -2   9   82.53    5.19
   2  -7   9   83.75   11.05
  -2  -7 -10  660.97   33.82
  -7  -2  10  682.08   17.52
   2  -7  10  640.81   31.43
  -2  -7 -11  181.54   18.57
  -7  -2  11  182.09    7.82
   2  -7  11  162.93   15.98
  -2  -7 -12  343.49   25.11
  -7  -2  12  324.88   11.20
   2  -7  12  364.43   24.30
  -2  -7 -13   29.39    9.85
  -7  -2  13   18.86    2.75
   2  -7  13   12.25    6.89
  -2  -7 -14  377.47   28.21
  -7  -2  14  325.23   11.55
   2  -7  14  300.55   23.53
  -2  -7 -15  352.22   27.81
  -7  -2  15  329.56   11.39
   2  -7  15  295.06   23.70
  -2  -7 -16  380.85   29.93
   2  -7  16  361.14   26.71
  -2  -7 -17  328.81   28.76
   2  -7  17  377.11   27.70
  -2  -7 -18   19.05   10.05
   2  -7  18   44.96   10.66
  -2  -7 -19  120.30   18.93
   2  -7  19  112.02   16.74
  -2  -7 -20   41.81   12.42
   2  -7  20   50.21   12.28
  -2  -7 -21   40.00   14.16
   2  -7  21   54.16   12.33
  -2  -7 -22  176.93   24.51
   2  -7  22  145.03   19.50
  -2  -7 -23  128.39   22.36
   2  -7  23  101.75   16.52
  -2  -7 -24  309.16   32.74
   2  -7  24  254.91   25.89
  -2  -7 -25    1.81   10.64
   2  -7  25    8.56    7.44
  -2  -7 -26   77.44   19.16
   2  -7  26   82.47   15.52
  -7   2 -27   40.55   14.34
  -2  -7 -27   35.27   13.74
   2  -7  27   21.64   10.13
  -2  -7 -28   25.48   13.30
  -7   2 -28   60.96   15.39
   2  -7  28   89.14   16.71
  -7   2 -29  133.70   22.92
  -2  -7 -29  121.42   23.08
  -2  -7 -30   82.01   20.34
  -7   2 -30   62.31   16.44
  -7   2 -31   16.47   12.70
  -2  -7 -31   -4.11    9.18
  -7   2 -32   10.60    9.74
  -7  -3 -32   21.84   15.18
  -7  -3 -31   71.50   19.70
  -7  -3 -30   37.24   14.97
  -7  -3 -29   29.42   14.45
  -7  -3 -28   43.13   13.98
  -7  -3 -27  154.45   24.80
  -7  -3 -26   -7.31    8.33
  -3  -7  25   95.95   14.29
  -3  -7  24    7.83    6.94
  -3   7 -23   81.53   12.80
  -3  -7  23   60.94   11.24
  -3   7 -22   33.23    8.72
  -3  -7  22   34.77    8.86
  -3   7 -21  188.55   17.44
  -3  -7  21  180.22   18.85
  -3   7 -20    2.65    4.55
   3  -7 -20   14.53   10.10
  -3  -7  20    2.65    5.25
  -3   7 -19  307.80   21.18
   3  -7 -19  358.33   32.28
  -3  -7  19  324.10   23.58
  -3   7 -18  147.19   14.16
   3  -7 -18  191.07   23.65
  -3  -7  18  143.30   15.58
   3  -7 -17  329.01   29.72
  -3  -7  17  317.05   22.34
   3  -7 -16  241.82   25.23
   7  -3  16  255.97   23.10
  -3  -7  16  210.55   17.51
   7  -3  15  384.79   27.23
   3  -7 -15  403.62   30.84
  -3  -7  15  385.78   23.49
   3  -7 -14  227.54   23.02
   7  -3  14  251.01   21.81
  -3  -7  14  243.79   17.91
   7  -3  13  105.95   14.06
  -3  -7  13  112.66   12.18
   7  -3  12   70.17   11.05
  -3  -7  12   61.64    9.09
   7  -3  11  137.76   15.63
  -3  -7  11  141.47   12.73
   7  -3  10  247.44   20.30
  -3  -7  10  246.79   16.35
   7  -3   9  872.86   37.95
  -3  -7   9  809.06   30.56
   7  -3   8  387.55   24.22
  -3  -7   8  394.77   20.19
  -3  -7   8  423.56   11.64
   7  -3   7 1212.06   43.45
  -3  -7   7 1213.48   36.98
   3  -7  -7 1163.42   33.67
  -7   3   7 1129.13   25.33
   7  -3   6  158.44   15.24
   3  -7  -6  171.40   11.25
  -7   3   6  130.40    7.07
  -3  -7   6  158.33   12.07
   7  -3   5  963.92   37.18
   3  -7  -5  907.00   29.38
  -7   3   5  990.24   24.91
  -3  -7   5  980.03   32.29
   7  -3   4  472.19   24.52
  -3  -7   4  471.63   20.94
  -7   3   4  500.74   17.02
   3  -7  -4  477.10   20.15
   7  -3   3  329.42   19.63
   3  -7  -3  354.83   17.00
  -7   3   3  342.52   14.52
   7  -3   2   44.80    7.46
   3  -7  -2   38.48    6.01
  -7   3   2   41.90    5.28
   7  -3   1  479.94   22.09
   3  -7  -1  427.12   19.73
  -7   3   1  484.50   19.51
   7  -3   0  154.09   11.84
   3  -7   0  154.95   11.82
  -7   3   0  161.39   11.35
  -3   7   1  473.06   22.62
   7  -3  -1  514.14   21.05
   3  -7   1  500.13   22.17
  -7   3  -1  470.68   21.18
  -3   7   2   38.05    6.84
   7  -3  -2   29.54    4.79
   3  -7   2   31.29    6.84
   7  -3  -3  275.11   13.92
   3  -7   3  298.82   17.70
   7  -3  -4  460.64   17.75
   3  -7   4  478.12   23.27
   7  -3  -5  974.86   26.80
   3  -7   5 1016.19   36.70
   7  -3  -6  157.53    8.50
   3  -7   6  168.32   14.64
   7  -3  -7 1227.90   27.78
   3  -7   7 1122.99   41.59
   7  -3  -8  328.48   10.52
   3  -7   8  355.45   22.26
  -7  -3   9  897.75   23.87
   3  -7   9  897.18   37.60
  -7  -3  10  236.21   10.54
   3  -7  10  239.29   19.57
  -7  -3  11  118.66    7.56
   3  -7  11  104.72   13.57
   3  -7  12   49.41   10.90
  -7  -3  12   71.44    5.90
  -3  -7 -13   86.83   13.92
   3  -7  13  107.95   14.65
  -7  -3  13  101.52    7.33
  -3  -7 -14  244.86   23.32
   3  -7  14  245.40   21.47
  -7  -3  14  251.36   12.05
  -3  -7 -15  381.75   29.22
   3  -7  15  387.88   27.72
  -7  -3  15  401.88   16.06
  -3  -7 -16  228.93   23.06
  -7  -3  16  177.30   10.60
   3  -7  16  194.58   20.37
  -3  -7 -17  368.49   30.48
   3  -7  17  364.79   28.23
  -7  -3  17  344.51   15.36
  -3  -7 -18  136.37   19.25
  -7  -3  18  142.96    9.27
   3  -7  18  143.46   18.29
  -3  -7 -19  259.26   27.05
   3  -7  19  266.06   25.09
  -3  -7 -20   10.32    8.27
   3  -7  20    9.16    7.45
  -3  -7 -21  243.97   27.39
   3  -7  21  161.09   21.11
  -3  -7 -22    4.88    9.56
   3  -7  22    4.04    8.38
  -3  -7 -23   67.10   16.61
   3  -7  23   71.61   14.94
  -3  -7 -24  -26.85   14.81
   3  -7  24   -7.35    8.06
  -3  -7 -25  110.30   20.75
   3  -7  25  122.69   18.75
  -3  -7 -26    4.15   11.63
   3  -7  26   16.23    9.13
  -7   3 -27  105.12   19.36
  -3  -7 -27  141.80   24.33
   3  -7  27  105.87   18.25
  -3  -7 -28   47.71   16.81
  -7   3 -28   67.86   16.44
   3  -7  28   80.99   16.69
  -7   3 -29   13.29    9.57
  -3  -7 -29   25.76   13.68
  -7   3 -30   80.74   18.85
  -3  -7 -30   11.22   11.93
  -7   3 -31   90.16   20.05
  -3  -7 -31   74.35   21.23
  -7  -4 -31   72.01   19.47
  -7  -4 -30   32.85   16.58
  -7  -4 -29   15.14   10.50
  -7  -4 -28   55.45   16.72
  -7  -4 -27   98.10   20.22
  -7  -4 -26  134.74   23.14
  -7  -4 -25  131.55   22.91
  -4   7 -23   20.60    7.64
  -4  -7  23   18.25    7.35
  -4   7 -22   97.21   13.80
  -4  -7  22  110.01   14.72
  -4   7 -21  302.05   22.96
  -4  -7  21  252.20   21.49
  -4  -7  20  168.04   17.00
  -4  -7  19  109.34   13.37
   7  -4  19   66.10   13.74
   7  -4  18  353.27   28.09
  -4  -7  18  303.81   21.95
   7  -4  17  186.91   20.73
  -4  -7  17  176.28   16.29
   7  -4  16  219.17   22.44
  -4  -7  16  194.83   16.90
   7  -4  15  493.38   32.25
  -4  -7  15  514.91   26.50
   7  -4  14  142.34   17.71
  -4  -7  14  204.04   16.00
   7  -4  13   -2.77    8.90
  -4  -7  13   -4.88    5.52
   7  -4  12  773.13   38.77
  -4  -7  12  765.65   24.17
  -4  -7  12  755.28   30.80
  -4  -7  11   16.60    3.44
   7  -4  11   15.91    7.53
  -4  -7  11   17.86    5.32
   7  -4  10  909.09   41.50
  -4  -7  10  876.48   32.62
  -4  -7  10  988.14   26.43
   7  -4   9 1174.18   46.94
  -4  -7   9 1146.96   37.40
   4  -7  -9 1175.41   33.90
  -4  -7   9 1250.87   30.31
   7  -4   8   91.85   12.74
   4  -7  -8   79.59    7.87
  -4  -7   8   98.99    9.99
   7  -4   7  567.66   29.80
   4  -7  -7  614.76   22.57
  -4  -7   7  575.51   24.35
   7  -4   6   42.24    8.91
   4  -7  -6   47.36    6.46
  -4  -7   6   41.57    6.90
  -7   4   6   51.76    5.09
   7  -4   5  164.11   15.46
  -4  -7   5  163.84   12.20
  -7   4   5  191.16    9.90
   4  -7  -5  189.12   12.25
   7  -4   4  230.43   17.03
  -7   4   4  205.54   10.87
   4  -7  -4  187.56   12.43
   7  -4   3  899.79   33.99
  -7   4   3  833.46   25.83
   4  -7  -3  876.79   28.96
   7  -4   2 1149.63   38.67
   4  -7  -2 1146.67   35.07
  -7   4   2 1140.55   32.58
   4  -7  -1  166.74   12.48
   7  -4   1  170.15   13.22
  -7   4   1  134.06   10.11
   4  -7   0  925.78   31.82
   7  -4   0  896.49   31.66
  -7   4   0  863.13   29.33
   4  -7   1  132.83   11.79
   7  -4  -1  170.66   12.45
   4  -7   2 1227.28   39.33
   7  -4  -2 1153.03   35.10
   7  -4  -3  889.80   28.45
   4  -7   3  906.48   33.52
   7  -4  -4  223.34   12.55
   4  -7   4  197.07   15.40
   7  -4  -5  183.22   10.71
   4  -7   5  178.62   14.71
   7  -4  -6   45.69    5.22
   4  -7   6   35.89    8.09
   7  -4  -7  603.47   19.00
   4  -7   7  582.40   29.12
  -7  -4   8   78.78    6.77
   4  -7   8   71.29   12.16
   7  -4  -8   76.98    5.91
  -7  -4   9 1289.32   33.22
   4  -7   9 1272.72   47.28
   7  -4  -9 1244.42   28.55
  -7  -4  10  883.62   25.92
   7  -4 -10  900.18   21.20
   4  -7  10  840.73   38.65
   4  -7  11   21.85    8.09
  -7  -4  11   24.92    3.91
   7  -4 -11   31.48    2.91
  -7  -4  12  738.70   23.99
   4  -7  12  745.71   37.62
   4  -7  13    4.91    5.81
  -7  -4  13    5.15    2.58
  -7  -4  14  195.84   11.85
   4  -7  14  207.85   20.58
  -7  -4  15  556.99   21.36
   4  -7  15  504.46   32.72
  -4  -7 -16  176.41   21.24
   4  -7  16  174.40   19.62
  -7  -4  16  172.58   11.90
  -4  -7 -17  221.70   23.26
   4  -7  17  203.75   21.81
  -7  -4  17  179.42   12.18
  -4  -7 -18  342.80   29.98
   4  -7  18  346.18   28.71
  -7  -4  18  341.61   17.35
  -4  -7 -19  128.00   19.32
   4  -7  19  137.84   19.30
  -7  -4  19  144.98   11.26
  -4  -7 -20  157.64   21.94
   4  -7  20  141.33   19.26
  -4  -7 -21  278.88   29.01
   4  -7  21  214.64   24.02
  -4  -7 -22   80.88   17.09
   4  -7  22   86.01   15.71
  -4  -7 -23   16.27   11.71
   4  -7  23    0.53    8.17
  -4  -7 -24  218.49   28.06
   4  -7  24  190.27   23.20
  -4  -7 -25  106.27   21.02
   4  -7  25  117.87   18.44
  -4  -7 -26  127.23   22.62
   4  -7  26  162.29   22.71
  -4  -7 -27   72.05   17.99
  -7   4 -27   90.63   18.99
   4  -7  27  118.08   19.51
  -4  -7 -28   74.28   18.28
  -7   4 -28  114.35   20.35
   4  -7  28   85.04   17.05
  -4  -7 -29   17.15    9.88
  -7   4 -29   37.61   13.42
  -4  -7 -30   46.29   15.02
  -7  -5 -30  190.25   29.74
  -7  -5 -29   58.73   18.19
  -7  -5 -28   -1.74   12.52
  -7  -5 -27  301.62   34.59
  -7  -5 -26   -8.51   11.99
  -7  -5 -25  284.57   32.59
  -5   7 -23  244.08   24.63
   7  -5  22  413.77   33.49
  -5  -7  22  317.62   23.34
  -5  -7  21   38.83    9.05
   7  -5  21   40.51   11.46
  -5  -7  20   41.94    8.93
   7  -5  20   35.77   11.12
   7  -5  19   33.71   11.61
  -5  -7  19   43.40    8.94
   7  -5  18  220.89   22.88
  -5  -7  18  204.55   17.51
   7  -5  17  153.54   19.52
  -5  -7  17  128.04   13.65
   7  -5  16   -4.22    7.69
  -5  -7  16    7.17    5.02
  -5  -7  15  350.42   18.49
   7  -5  15  348.98   28.82
  -5  -7  15  362.76   21.46
  -5  -7  14  319.16   16.97
   7  -5  14  315.98   26.37
  -5  -7  14  311.63   19.45
   7  -5  13  939.62   44.91
  -5  -7  13  869.54   29.51
   5  -7 -13  889.07   27.98
  -5  -7  13  901.50   34.01
   7  -5  12   11.05    6.97
  -5  -7  12   27.49    4.89
   5  -7 -12   25.78    4.61
  -5  -7  12   23.32    5.51
   7  -5  11 1222.44   50.79
   5  -7 -11 1198.21   34.31
  -5  -7  11 1277.30   40.15
  -5  -7  11 1276.23   36.04
   7  -5  10 1107.46   46.18
  -5  -7  10  994.33   31.83
   5  -7 -10 1116.88   32.00
  -5  -7  10 1111.24   35.89
   7  -5   9  373.76   25.38
  -5  -7   9  384.59   19.61
   5  -7  -9  414.93   17.76
   7  -5   8   41.46    9.58
   5  -7  -8   60.99    7.02
  -5  -7   8   56.92    7.92
   7  -5   7   79.73   11.74
   5  -7  -7   66.57    7.26
  -5  -7   7   74.79    8.47
   7  -5   6  322.71   21.73
   5  -7  -6  330.64   15.97
  -5  -7   6  281.28   16.29
  -7   5   6  306.76   13.60
   7  -5   5    2.61    5.48
  -7   5   5    8.33    3.32
   5  -7  -5   -0.50    3.70
   7  -5   4    6.31    5.44
   5  -7  -4   14.91    4.70
  -7   5   4   11.46    3.38
  -7   5   3  435.87   17.92
   5  -7  -3  389.98   19.07
   7  -5   3  413.61   23.29
   5  -7  -2 1387.05   40.63
  -7   5   2 1375.09   37.95
   7  -5   2 1390.93   44.59
  -7   5   1 1656.98   43.69
   5  -7  -1 1597.69   45.43
   7  -5   1 1639.88   48.43
   7  -5   0   11.31    5.24
   5  -7   0   12.59    5.58
   5  -7   1 1521.49   45.79
   7  -5  -1 1586.31   44.75
   7  -5  -2 1414.90   40.35
   5  -7   2 1366.44   43.78
   7  -5  -3  454.10   19.94
   5  -7   3  436.46   23.55
   5  -7   4   20.39    6.77
   7  -5  -4    6.96    3.83
   7  -5  -5    4.03    3.10
   5  -7   5    4.22    4.99
   7  -5  -6  305.64   14.59
   5  -7   6  289.96   20.57
   7  -5  -7   60.64    6.21
   5  -7   7   46.08   10.04
  -7  -5   8   48.48    6.07
   5  -7   8   51.64   10.01
   7  -5  -8   46.50    5.36
  -7  -5   9  449.10   18.52
   5  -7   9  406.30   26.37
   7  -5  -9  400.97   15.21
  -7  -5  10 1055.37   31.30
   5  -7  10 1059.40   44.73
   7  -5 -10 1085.90   27.01
   7  -5 -11 1320.24   30.25
  -7  -5  11 1277.65   35.76
   5  -7  11 1262.79   50.74
   5  -7  12   34.92    9.92
   7  -5 -12   30.11    3.55
  -7  -5  12   27.61    4.94
   7  -5 -13  898.75   21.93
  -7  -5  13  895.27   29.34
   5  -7  13  856.17   42.73
   5  -7  14  302.39   25.64
   7  -5 -14  316.56   10.89
  -7  -5  14  329.06   16.95
   5  -7  15  429.32   30.99
   7  -5 -15  407.19   12.27
  -7  -5  15  399.81   19.24
   5  -7  16    4.47    6.58
   7  -5 -16    1.89    1.45
  -7  -5  16    4.28    2.92
   5  -7  17  110.47   16.76
   7  -5 -17  123.71    5.90
  -7  -5  17  118.59   10.80
   5  -7  18  202.50   23.55
  -7  -5  18  224.86   15.35
  -5  -7 -19   28.25   11.44
   5  -7  19   30.71   11.37
  -7  -5  19   30.35    6.09
  -5  -7 -20   23.00    9.82
   5  -7  20   22.57   10.10
  -5  -7 -21   25.14   11.76
   5  -7  21   30.79   11.87
  -5  -7 -22  383.03   35.00
   5  -7  22  326.13   30.05
  -5  -7 -23  353.86   33.94
   5  -7  23  281.13   28.20
  -5  -7 -24   34.36   12.51
   5  -7  24   41.62   13.77
  -5  -7 -25  329.61   34.79
   5  -7  25  297.58   29.60
  -5  -7 -26   14.46   10.92
   5  -7  26    9.45   10.52
  -7   5 -27  221.53   28.92
  -5  -7 -27  318.23   36.08
   5  -7  27  292.26   29.74
  -5  -7 -28   20.38   14.73
  -5  -7 -29   56.49   17.55
  -5  -7 -30  133.83   25.78
  -7  -6 -30   -1.62   10.05
  -7  -6 -29  149.24   26.82
  -7  -6 -28   92.32   20.94
  -7  -6 -27   86.88   19.22
  -7  -6 -26  156.82   25.64
  -7  -6 -25   92.55   19.03
  -7  -6 -24   69.34   16.80
   7  -6  24   83.98   18.12
   7  -6  23  439.77   35.38
   7  -6  22   43.48   14.05
  -6  -7  21   15.84    5.62
   7  -6  21   28.52   11.02
   7  -6  20    5.34    7.60
  -6  -7  20    0.55    4.24
   7  -6  19    3.53    7.74
  -6  -7  19   11.59    5.69
   7  -6  18    2.19    7.94
   6  -7 -18   -1.21    2.44
  -6  -7  18   -2.51    4.32
   7  -6  17  118.91   17.60
   6  -7 -17  129.53    9.50
  -6  -7  17  124.38   12.99
   7  -6  16   86.76   14.91
   6  -7 -16   97.20    8.27
  -6  -7  16  103.87   11.70
   7  -6  15   45.61   11.50
  -6  -7  15   41.11    6.94
   6  -7 -15   48.87    5.84
  -6  -7  15   53.45    8.83
   7  -6  14  288.24   26.08
  -6  -7  14  291.62   18.53
   6  -7 -14  296.82   14.49
  -6  -7  14  316.02   18.24
   7  -6  13  858.71   43.98
   6  -7 -13  862.29   26.82
  -6  -7  13  833.29   32.15
  -6  -7  13  841.95   31.15
   7  -6  12  233.56   22.38
   6  -7 -12  236.45   12.86
  -6  -7  12  241.05   15.94
  -6  -7  12  233.63   14.96
   7  -6  11 1928.13   65.92
   6  -7 -11 1807.08   44.26
  -6  -7  11 1787.36   49.82
   7  -6  10  451.31   29.30
  -6  -7  10  432.24   21.16
   6  -7 -10  445.43   18.45
   7  -6   9  144.01   16.45
  -6  -7   9  153.07   12.18
   6  -7  -9  134.00    9.99
   7  -6   8   26.28    6.75
  -6  -7   8   30.45    5.78
   6  -7  -8   30.64    5.47
   7  -6   7    8.14    6.44
  -6  -7   7    9.34    3.93
   6  -7  -7   22.49    4.76
   7  -6   6  152.95   15.54
   6  -7  -6  154.88   11.09
   7  -6   5   12.48    5.71
  -7   6   5   27.83    4.66
   6  -7  -5   24.13    5.01
  -7   6   4  410.19   17.96
   6  -7  -4  383.54   18.98
   7  -6   4  336.38   22.13
   7  -6   3   12.37    5.73
   6  -7  -3   10.00    4.74
   7  -6   2  992.52   37.17
   6  -7  -2  924.32   32.75
   7  -6   1 1756.54   52.11
   6  -7  -1 1776.80   49.62
   6  -7   0  353.67   19.70
   7  -6   0  294.68   18.21
   7  -6  -1 1773.68   49.88
   6  -7   1 1719.64   51.09
   6  -7   2  922.15   35.96
   7  -6  -2  981.07   33.15
   6  -7   3   19.54    6.86
   7  -6  -3   22.48    5.85
   7  -6  -4  408.18   18.94
   6  -7   4  357.27   23.07
   7  -6  -5   18.88    4.40
   6  -7   5    5.24    5.78
   7  -6  -6  169.15   11.28
   6  -7   6  150.99   15.24
   7  -6  -7   10.47    3.39
   6  -7   7   10.49    5.50
   6  -7   8   18.29    7.40
  -7  -6   8   32.16    5.51
   7  -6  -8   28.32    4.72
   6  -7   9  162.12   17.10
   7  -6  -9  146.51    9.78
  -7  -6   9  151.01   11.34
  -7  -6  10  466.08   20.44
   7  -6 -10  441.05   17.01
   6  -7  10  437.45   28.85
   7  -6 -11 1831.81   42.02
  -7  -6  11 1857.18   48.04
   6  -7  11 1748.13   63.70
   7  -6 -12  240.36   11.53
  -7  -6  12  221.81   14.26
   6  -7  12  246.36   22.57
   6  -7  13  865.21   43.79
  -7  -6  13  821.54   30.03
   7  -6 -13  875.22   24.24
   6  -7  14  318.21   26.72
  -7  -6  14  292.61   17.04
   7  -6 -14  308.62   12.67
   6  -7  15   49.70   11.92
   7  -6 -15   51.26    5.01
  -7  -6  15   53.24    7.69
   6  -7  16   83.89   14.48
   7  -6 -16   98.13    6.70
  -7  -6  16  103.00   10.67
   6  -7  17  151.41   19.98
   7  -6 -17  144.35    8.02
  -7  -6  17  134.71   12.35
   6  -7  18   17.97   10.22
  -7  -6  18   -1.56    4.07
   6  -7  19    7.49    7.43
  -7  -6  19   12.31    4.96
   6  -7  20  -17.73   11.60
  -6  -7 -21    5.36    9.13
   6  -7  21   20.49    8.91
  -6  -7 -22   48.84   14.29
   6  -7  22   68.91   15.74
  -6  -7 -23  423.74   37.92
   6  -7  23  453.27   36.54
  -6  -7 -24   84.58   19.09
   6  -7  24  104.27   18.81
  -6  -7 -25  142.62   24.70
   6  -7  25  145.42   21.79
  -6  -7 -26  143.76   24.93
   6  -7  26  187.58   24.16
  -6  -7 -27   66.39   17.48
  -6  -7 -28   70.22   17.62
  -6  -7 -29  161.41   27.62
  -6  -7 -30   11.65   11.45
   7  -7   0   12.81    5.41
   7  -7  -1 1219.49   40.21
   7  -7   1 1170.58   41.56
   7  -7   2  964.78   37.73
   7  -7  -2  927.90   33.82
   7  -7   3  264.69   19.24
   7  -7  -3  254.99   16.04
   7  -7   4   92.01   12.31
   7  -7  -4   97.00    9.68
   7  -7   5  105.98   13.68
   7  -7  -5  130.82   11.08
   7  -7   6    6.29    6.74
   7  -7  -6   17.82    4.72
   7  -7   7   25.08    7.23
   7  -7  -7   21.61    5.09
   7  -7  -8  254.84   14.36
  -7  -7   8  242.76   15.64
   7  -7   8  257.12   21.41
   7  -7   9  189.24   19.44
   7  -7  -9  221.55   13.14
  -7  -7   9  217.55   14.60
  -7  -7  10 1506.63   43.45
   7  -7 -10 1467.42   39.09
   7  -7  10 1413.99   56.30
   7  -7  11  678.29   38.26
   7  -7 -11  652.71   23.22
  -7  -7  11  660.52   26.70
   7  -7  12   53.98   12.46
  -7  -7  12   44.33    6.85
   7  -7 -12   48.18    6.06
  -7  -7  13  638.81   28.68
   7  -7  13  703.91   39.77
   7  -7 -13  615.67   21.63
  -7  -7  13  639.57   27.19
   7  -7  14  274.54   25.80
  -7  -7  14  218.49   15.83
   7  -7 -14  245.97   12.55
   7  -7  15  363.88   30.01
   7  -7 -15  394.45   16.11
  -7  -7  15  364.64   20.91
   7  -7  16   12.64   10.10
   7  -7 -16    0.78    2.35
  -7  -7  16    4.87    4.53
   7  -7  17    4.88    7.08
   7  -7 -17   12.02    3.37
  -7  -7  17   15.31    5.17
   7  -7  18  206.03   23.58
  -7  -7  18  206.49   16.46
   7  -7  19   14.49    9.18
  -7  -7  19   19.35    6.00
   7  -7  20   -6.52    7.95
   7  -7  21   41.27   12.76
   7  -7  22  316.44   31.13
   7  -7  23   95.68   17.95
  -7  -7 -23   72.50   18.80
   7  -7  24   14.25    9.66
  -7  -7 -24   43.21   14.62
   7  -7  25  210.75   25.61
  -7  -7 -25  177.02   26.62
   7  -7  26   13.33   11.11
  -7  -7 -26    7.96   11.95
  -7  -7 -27  130.89   23.65
  -7  -7 -28   13.19   12.57
  -7  -7 -29   88.26   22.80
  -8   0   0 1605.12   42.54
   0  -8   0 1672.27   44.16
  -8   0   1  226.77   13.63
  -8   0  -1  227.57   14.63
   0  -8  -1  217.12   14.90
   0  -8   1  252.42   15.78
   0  -8  -1  236.29   14.46
  -8   0   2  119.39    9.39
   0  -8   2  118.54   11.25
   0  -8  -2  142.06   11.85
  -8   0   3 1130.95   31.72
   0  -8   3 1102.34   36.19
   0  -8  -3 1106.86   37.58
  -8   0   4    7.72    3.14
   0  -8   4    2.08    4.35
   0  -8  -4    4.41    5.07
  -8   0   5   98.95    7.30
   0  -8   5   99.28   10.31
   0  -8  -5  115.45   12.75
  -8   0   6 1995.98   42.50
   0  -8  -6 2036.49   59.25
   0  -8   6 1976.72   54.97
   0  -8  -7    8.13    6.23
  -8   0   7    0.58    1.24
   0  -8   7    0.12    5.69
   0  -8  -8   96.70   13.21
   0  -8   8  101.94   11.92
  -8   0   8   93.08    4.78
   0  -8  -9    7.38    6.08
   0  -8   9    1.43    5.07
   0  -8 -10   37.32    9.16
   0  -8  10   55.83    9.62
   0  -8 -11  497.09   31.12
   0  -8  11  476.08   26.84
   0  -8 -12  310.77   25.36
   0  -8  12  328.74   22.68
   0  -8 -13   -0.57    6.81
   0  -8  13    2.61    6.47
   0  -8 -14  495.46   33.52
   0  -8  14  477.44   28.67
   0  -8 -15   94.31   16.18
   0  -8  15  133.66   15.69
   0  -8 -16  242.21   24.56
   0  -8  16  222.97   20.55
   0  -8 -17   36.91   11.92
   0  -8  17   52.46   10.86
   0  -8 -18  229.96   26.05
   0  -8  18  258.37   22.62
   0  -8 -19    4.24    7.29
   0  -8  19   -3.92    7.89
   0  -8 -20    7.75   10.48
   0  -8  20    9.70    6.95
   0  -8 -21   13.57    9.60
   0  -8  21   10.39    8.98
   0  -8 -22    4.71    8.45
   0  -8  22   17.68    8.81
   0  -8 -23  221.54   28.81
   0  -8  23  243.83   24.61
   0  -8 -24  145.80   24.07
   0  -8  24  175.26   21.64
   0  -8 -25   -3.89    9.80
   0  -8  25   -3.03    7.74
   0  -8 -26   75.53   19.08
   0  -8  26  107.77   17.54
   0  -8 -27    9.24   12.43
   0  -8  27    2.92    7.39
  -8   0 -28   91.36   19.66
   0  -8 -28   99.11   21.77
   0  -8  28   95.31   16.26
   0  -8 -29   99.85   23.11
  -8   0 -29   95.42   21.04
  -8   0 -30  -15.87   13.26
   0  -8 -30  -12.12   16.66
  -8   0 -31   11.00   10.54
  -8   0 -32   59.66   19.19
  -8  -1 -32   -0.16    9.15
  -8  -1 -31  -11.47   12.59
  -8  -1 -30   71.39   18.78
   1  -8 -30  101.80   23.35
   1  -8 -29   77.15   20.62
  -8  -1 -29   60.38   16.33
   1  -8 -28   44.77   17.62
  -8  -1 -28   60.95   19.99
   1  -8 -27   -3.05   10.37
  -1  -8  27   12.60    7.16
   1  -8 -26   47.82   17.06
  -1  -8  26   83.96   14.92
   1  -8 -25    6.73    9.41
  -1  -8  25    3.20    6.72
   1  -8 -24  101.36   20.97
  -1  -8  24  100.51   16.38
   1  -8 -23  189.51   26.13
  -1  -8  23  166.44   20.03
   1  -8 -22  139.09   22.71
  -1  -8  22  197.31   21.29
   1  -8 -21   -4.67   10.97
  -1  -8  21  -10.41    7.80
  -1   8 -20    6.75    4.15
  -1  -8  20   -2.06    6.28
   1  -8 -19   85.59   16.68
  -1   8 -19  102.59   10.67
  -1  -8  19   77.43   12.66
   1  -8 -18   12.54   10.63
  -1   8 -18    6.84    4.26
  -1  -8  18    6.29    6.07
   1  -8 -17  372.85   32.01
  -1   8 -17  393.82   19.58
  -1  -8  17  408.32   27.65
   1  -8 -16  183.06   22.25
  -1   8 -16  181.72   12.52
  -1  -8  16  174.84   17.66
   1  -8 -15   27.75   11.70
  -1   8 -15   24.17    4.68
  -1  -8  15   31.15    8.07
  -1   8 -14  276.45   13.79
   1  -8 -14  281.83   25.87
  -1  -8  14  264.77   20.76
  -1   8 -13   28.20    4.28
   1  -8 -13   35.65   11.06
  -1  -8  13   25.67    7.44
   1  -8 -12  298.10   25.15
  -1   8 -12  329.17   12.71
  -1  -8  12  341.52   22.68
   1  -8 -11  374.28   27.44
  -1   8 -11  355.78   12.24
  -1  -8  11  354.24   22.15
  -1   8 -10 1500.11   30.42
   1  -8 -10 1458.88   54.85
  -1  -8  10 1376.67   46.96
   1  -8  -9  254.94   21.51
  -1  -8   9  249.01   17.78
   1  -8  -8  430.37   26.33
  -1  -8   8  355.63   20.87
   1  -8  -7   49.98    9.60
  -1  -8   7   46.27    8.22
  -8   1   7   45.01    3.61
   1  -8  -6   66.69   10.37
  -1   8  -6   46.82    3.55
  -1  -8   6   39.99    7.51
  -8   1   6   49.43    4.35
   1  -8  -5  402.70   23.27
  -1   8  -5  373.90   12.15
  -1  -8   5  383.21   20.31
  -8   1   5  364.11   14.13
   1  -8  -4  672.07   29.24
  -1   8  -4  616.77   18.11
  -1  -8   4  604.72   25.98
  -8   1   4  646.33   21.14
   1  -8  -3  944.57   34.20
  -1   8  -3  897.58   24.49
   1  -8  -3  796.36   30.98
  -1  -8   3  921.55   32.32
  -8   1   3  913.74   27.60
  -8   1   2  176.88   11.49
  -1  -8   2  193.90   14.11
   1  -8  -2  175.15   13.07
  -1   8  -2  163.69    9.74
  -1  -8   2  186.09    9.90
  -8   1   1  616.47   23.50
   1  -8  -1  614.18   24.74
  -1  -8   1  577.35   24.54
  -1  -8   1  578.73   20.60
  -1   8  -1  579.43   21.24
  -8   1   0  506.98   21.97
   1  -8   0  522.75   22.95
  -1  -8   0  458.54   19.20
  -1   8   0  506.66   20.35
  -8   1  -1  538.66   23.67
  -1  -8  -1  571.32   22.50
  -1   8   1  549.64   22.46
   1  -8   1  538.65   23.79
  -1  -8  -2  225.12   14.45
  -1   8   2  210.52   14.07
   1  -8   2  179.79   13.54
  -1   8   3  920.94   32.93
  -1  -8  -3  891.65   32.38
   1  -8   3  905.66   32.87
  -1  -8  -4  554.86   25.58
   1  -8   4  588.50   25.91
  -1  -8  -5  317.17   19.80
   1  -8   5  291.97   18.61
  -1  -8  -6   46.98    8.78
   1  -8   6   41.17    7.90
  -1  -8  -7   48.60    9.38
   1  -8   7   32.59    6.78
  -1  -8  -8  382.45   24.36
   1  -8   8  413.37   23.51
  -1  -8  -9  278.84   21.59
  -8  -1   9  283.03    8.51
   1  -8   9  265.94   19.37
  -1  -8 -10 1319.84   50.44
   1  -8  10 1276.06   46.01
  -1  -8 -11  283.55   23.25
   1  -8  11  293.51   21.52
  -1  -8 -12  361.35   26.85
   1  -8  12  357.27   24.23
  -1  -8 -13   37.57    9.96
   1  -8  13   13.56    6.37
  -1  -8 -14  283.93   24.84
   1  -8  14  270.79   21.80
  -1  -8 -15   34.36   11.08
   1  -8  15   21.79    8.28
  -1  -8 -16  172.38   21.36
   1  -8  16  163.77   18.32
  -1  -8 -17  384.80   31.78
   1  -8  17  364.92   27.70
  -1  -8 -18    9.16    8.02
   1  -8  18    9.35    6.34
  -1  -8 -19  109.57   19.02
   1  -8  19  114.10   15.76
  -1  -8 -20   26.63   11.56
   1  -8  20    8.35    6.70
  -1  -8 -21   19.48   10.79
   1  -8  21   10.28    7.75
  -1  -8 -22  201.97   26.23
   1  -8  22  164.89   20.48
  -1  -8 -23  186.35   25.90
   1  -8  23  161.21   21.33
  -1  -8 -24   80.34   17.53
   1  -8  24   82.32   15.57
  -1  -8 -25   16.97   11.89
   1  -8  25   12.78    7.91
  -1  -8 -26   63.02   17.43
   1  -8  26   51.36   12.64
  -1  -8 -27   23.90   12.55
   1  -8  27   16.27    8.83
  -1  -8 -28   90.81   22.03
   1  -8  28   72.34   14.71
  -1  -8 -29   72.52   18.86
  -8   1 -29  112.21   22.64
   1  -8  29  110.40   18.24
  -1  -8 -30   40.58   16.44
  -8   1 -30   55.59   16.99
  -8   1 -31   -5.96    9.57
  -8   1 -32   -6.26   10.96
  -8   1 -33   16.43   10.53
  -8  -2 -31   -5.74   12.13
  -8  -2 -30  144.21   25.33
  -8  -2 -29  107.41   23.56
  -8  -2 -28   10.63   10.64
   2  -8 -26  -11.94   12.87
  -2  -8  26   -0.10    6.28
   2  -8 -25   19.25   11.71
  -2  -8  25   24.50    8.88
   2  -8 -24   39.47   16.99
  -2  -8  24   23.60    8.99
   2  -8 -23  177.70   25.55
  -2  -8  23  138.65   18.14
  -2  -8  22  335.34   27.17
   2  -8 -22  350.16   35.62
   2  -8 -21   50.08   15.66
  -2  -8  21   47.84   11.46
   2  -8 -20    3.77    8.31
  -2   8 -20   14.00    5.51
  -2  -8  20    3.72    5.74
  -2   8 -19    4.64    4.66
   2  -8 -19   -7.12    9.10
  -2  -8  19    1.56    5.43
   2  -8 -18  482.54   37.31
  -2   8 -18  402.53   21.63
  -2  -8  18  458.22   29.12
  -2   8 -17  212.72   14.73
   2  -8 -17  215.48   24.76
  -2  -8  17  199.77   19.13
   2  -8 -16   17.53    8.15
  -2   8 -16   19.39    5.13
  -2  -8  16   13.37    7.07
  -2   8 -15  340.00   17.23
   2  -8 -15  332.11   29.14
  -2  -8  15  356.41   23.90
   2  -8 -14   38.02   11.04
  -2  -8  14   56.06    9.49
   2  -8 -13   18.27    8.90
  -2  -8  13   15.17    6.67
   2  -8 -12   53.07   12.46
  -2  -8  12   40.39    7.74
  -2  -8  11  228.26   17.34
   2  -8 -11  227.60   21.46
  -2  -8  10  739.16   31.94
   2  -8 -10  807.51   39.90
   8  -2   9  771.58   34.99
  -2  -8   9  684.89   29.76
   2  -8  -9  768.41   37.76
   8  -2   8   27.25    7.35
  -2  -8   8   18.53    4.64
  -8   2   8   18.16    1.97
   2  -8  -8   -0.25    6.64
   2  -8  -7  504.03   28.45
   8  -2   7  553.70   27.75
  -8   2   7  481.98   13.62
  -2  -8   7  458.14   22.69
   8  -2   6 1268.78   43.96
  -2  -8   6 1245.30   39.83
  -8   2   6 1238.54   28.54
   8  -2   5  211.33   16.58
   2  -8  -5  234.32   14.71
  -2  -8   5  189.20   14.34
  -8   2   5  223.24   10.61
   8  -2   4   56.01    9.01
  -2  -8   4   58.57    4.11
  -2  -8   4   60.45    8.38
   2  -8  -4   58.89    7.72
  -8   2   4   60.97    6.03
   8  -2   3 1735.11   49.11
  -2   8  -3 1579.66   40.62
  -2  -8   3 1705.90   35.81
   2  -8  -3 1522.87   44.65
  -2  -8   3 1621.23   46.18
  -8   2   3 1621.62   40.60
   8  -2   2  141.84   12.26
  -2   8  -2  135.39    9.99
  -2  -8   2  145.56    8.76
  -2  -8   2  142.60   11.95
   2  -8  -2  142.65   11.68
  -8   2   2  156.83   10.80
   8  -2   1  115.66   10.44
  -2   8  -1  103.12    9.03
  -2  -8   1   93.33    7.63
   2  -8  -1  104.53   10.28
  -8   2   1  106.76    9.40
   8  -2   0   56.01    7.49
  -8   2   0   59.92    7.36
   2  -8   0   43.49    7.35
  -2  -8   0   52.33    6.31
  -2   8   0   57.00    7.02
   8  -2  -1   95.31    9.01
   2  -8   1  120.76   11.48
  -2  -8  -1  116.15    9.99
  -2   8   1  121.01   10.51
   8  -2  -2  117.59    9.37
  -2  -8  -2  131.57   10.94
  -2   8   2  118.54   11.36
   2  -8   2  120.30   11.72
  -2  -8  -3 1602.29   45.94
   2  -8   3 1519.56   46.05
  -2  -8  -4   70.70    9.12
   2  -8   4   47.07    8.06
  -2  -8  -5  226.18   17.04
   2  -8   5  236.92   17.32
  -2  -8  -6 1306.33   44.67
   2  -8   6 1285.97   43.53
  -2  -8  -7  532.36   27.70
   2  -8   7  475.23   25.22
  -2  -8  -8   20.03    7.44
   2  -8   8   25.28    7.37
  -2  -8  -9  767.89   36.23
  -8  -2   9  791.41   19.98
   2  -8   9  821.67   35.37
  -2  -8 -10  697.20   35.41
  -8  -2  10  729.57   18.45
   2  -8  10  740.49   34.53
  -2  -8 -11  169.51   18.14
  -8  -2  11  190.06    7.73
   2  -8  11  194.49   18.29
  -2  -8 -12   58.91   11.86
   2  -8  12   44.63    9.29
  -8  -2  12   43.43    3.44
  -2  -8 -13   19.75    9.70
  -8  -2  13   11.79    1.98
   2  -8  13   12.38    6.87
  -2  -8 -14   48.23   12.07
   2  -8  14   51.47   10.25
  -2  -8 -15  340.23   28.61
   2  -8  15  333.76   25.54
  -2  -8 -16    5.69    8.78
   2  -8  16   -9.52    9.67
  -2  -8 -17  227.24   24.14
   2  -8  17  224.95   22.03
  -2  -8 -18  403.34   32.74
   2  -8  18  379.70   29.50
  -2  -8 -19    8.55    8.46
   2  -8  19   -1.99    7.69
  -2  -8 -20   -1.42    9.32
   2  -8  20   16.02    8.39
  -2  -8 -21   58.59   15.80
   2  -8  21   52.20   12.46
  -2  -8 -22  369.85   35.19
   2  -8  22  354.39   30.76
  -2  -8 -23  121.97   21.48
   2  -8  23  148.72   20.49
  -2  -8 -24   27.59   10.86
   2  -8  24   20.81   10.50
  -2  -8 -25   44.49   15.40
   2  -8  25   -3.31    9.21
  -2  -8 -26   13.36   10.18
   2  -8  26   -3.46    7.76
  -2  -8 -27   20.07   12.34
   2  -8  27   13.92    7.54
  -2  -8 -28    7.21   11.35
   2  -8  28   15.98    8.13
  -2  -8 -29  106.52   22.73
   2  -8  29   70.59   15.52
  -2  -8 -30  102.55   23.20
  -8   2 -30  144.58   24.36
   2  -8  30  132.43   20.29
  -8   2 -31    5.86    9.25
  -8   2 -32   34.64   14.79
  -8  -3 -31   10.66    9.42
  -8  -3 -30   55.00   17.00
  -8  -3 -29   -6.26   11.39
  -8  -3 -28   96.43   21.03
  -8  -3 -27    8.32    9.32
  -3  -8  25    5.57    5.91
  -3  -8  24    7.16    6.15
  -3  -8  23   76.93   13.42
  -3  -8  22  153.87   18.32
  -3   8 -21   59.06   10.06
  -3  -8  21   47.86   10.11
  -3   8 -20  198.12   16.80
  -3  -8  20  200.73   20.00
  -3   8 -19  134.72   13.49
  -3  -8  19  101.66   14.07
  -3   8 -18  314.21   19.59
  -3  -8  18  243.97   20.92
  -3  -8  17   62.31   10.76
  -3  -8  16  180.81   16.95
   8  -3  15   12.52    8.62
  -3  -8  15    9.14    6.68
   8  -3  14   19.26    8.49
  -3  -8  14   17.75    6.46
   8  -3  13   20.18    8.11
  -3  -8  13   16.93    6.10
   8  -3  12   11.58    6.09
  -3  -8  12   13.46    5.11
   8  -3  11   50.79   10.69
  -3  -8  11   72.88    9.86
   8  -3  10  428.78   27.03
  -3  -8  10  395.51   21.78
   8  -3   9   24.55    8.92
  -3  -8   9   21.05    6.07
   8  -3   8  672.33   33.17
  -3  -8   8  623.58   27.18
   8  -3   7 1014.67   40.32
  -3  -8   7 1053.75   35.95
  -8   3   7 1006.69   24.15
   3  -8  -7 1013.08   32.99
   8  -3   6 1646.12   53.73
  -3  -8   6 1676.62   47.85
   3  -8  -6 1665.51   45.43
  -8   3   6 1724.87   37.07
   8  -3   5   61.68   10.34
  -3  -8   5   47.76    7.80
   3  -8  -5   69.69    8.40
  -8   3   5   51.81    5.23
   8  -3   4  766.66   32.09
  -3  -8   4  700.88   28.31
   3  -8  -4  736.55   27.50
  -8   3   4  751.72   23.42
   8  -3   3   91.47   11.08
  -3  -8   3   90.64    9.84
   3  -8  -3   99.44    9.78
  -8   3   3   88.81    7.77
   8  -3   2  686.14   28.79
   3  -8  -2  637.59   25.86
  -8   3   2  677.02   24.01
   8  -3   1  429.37   21.87
   3  -8  -1  465.38   21.67
  -8   3   1  468.93   20.28
   8  -3   0   80.57    9.68
  -3   8   0   70.64    8.83
   3  -8   0   79.84    9.19
  -8   3   0   63.70    8.02
   8  -3  -1  435.82   20.54
   3  -8   1  400.09   21.05
  -3   8   1  452.11   22.53
   8  -3  -2  611.86   23.80
   3  -8   2  565.97   25.98
   8  -3  -3   97.76    8.81
   3  -8   3  104.49   11.61
   8  -3  -4  763.03   24.89
   3  -8   4  744.20   31.46
   8  -3  -5   33.01    4.79
   3  -8   5   27.36    7.36
   8  -3  -6 1751.28   39.58
   3  -8   6 1701.97   53.31
   8  -3  -7  972.16   24.48
   3  -8   7 1010.66   39.28
   3  -8   8  726.24   33.71
  -8  -3   9   26.77    3.86
   3  -8   9   16.60    6.81
  -3  -8 -10  343.84   24.91
  -8  -3  10  344.96   13.12
   3  -8  10  333.28   23.52
  -3  -8 -11   54.35   10.79
  -8  -3  11   78.67    6.09
   3  -8  11   81.82   12.41
  -3  -8 -12   26.60    8.42
  -8  -3  12   25.26    3.41
   3  -8  12   47.54   10.55
  -3  -8 -13   43.00   10.48
   3  -8  13   24.47    8.96
  -8  -3  13   26.10    3.76
  -3  -8 -14   -0.41    6.05
   3  -8  14    9.68    6.72
  -8  -3  14   17.88    3.30
   3  -8  15   -1.80    6.58
  -8  -3  15    5.64    2.25
  -3  -8 -16  145.12   19.23
  -8  -3  16  179.38    9.46
   3  -8  16  138.98   17.44
  -3  -8 -17   50.04   13.28
   3  -8  17   57.89   12.66
  -8  -3  17   46.80    4.69
  -3  -8 -18  231.71   25.11
   3  -8  18  222.39   23.01
  -3  -8 -19  127.31   20.09
   3  -8  19   95.37   15.89
  -3  -8 -20  236.56   27.18
   3  -8  20  202.55   23.15
  -3  -8 -21   31.07   12.30
   3  -8  21   66.30   14.17
  -3  -8 -22  144.15   22.34
   3  -8  22  148.23   20.49
  -3  -8 -23   86.55   18.67
   3  -8  23   82.31   16.49
  -3  -8 -24   13.49   12.92
   3  -8  24   -3.79    8.14
  -3  -8 -25   12.04   11.27
   3  -8  25   -4.55    7.10
  -3  -8 -26   -1.06   10.20
   3  -8  26    5.97    6.33
  -3  -8 -27    2.99   12.14
   3  -8  27   11.59    7.99
  -3  -8 -28   74.17   20.38
   3  -8  28   59.37   14.86
  -8   3 -29   15.09   12.00
   3  -8  29   21.98   11.77
  -8   3 -30   79.97   18.52
  -3  -8 -30   73.40   19.01
  -8   3 -31   24.18   10.25
  -8  -4 -30   -5.24   12.56
  -8  -4 -29   96.61   21.16
  -8  -4 -28   40.70   15.33
  -8  -4 -27   30.37   14.83
  -4  -8  23  223.08   21.41
  -4  -8  22   53.27   11.43
  -4   8 -21   99.60   12.93
  -4  -8  21  110.38   14.63
  -4  -8  20  559.72   32.57
  -4  -8  19    9.64    6.21
   8  -4  18  324.44   27.60
  -4  -8  18  278.07   21.68
   8  -4  17  121.82   17.08
  -4  -8  17  116.09   13.98
   8  -4  16  596.79   36.77
  -4  -8  16  613.92   31.21
   8  -4  15  102.28   15.57
  -4  -8  15   90.37   11.62
   8  -4  14   36.67   10.91
  -4  -8  14   44.41    8.39
   8  -4  13   20.76    9.51
  -4  -8  13   20.48    6.71
   8  -4  12   87.99   13.01
  -4  -8  12   63.24    9.38
   8  -4  11  192.34   19.31
  -4  -8  11  194.04   15.40
   8  -4  10   61.34   11.83
   4  -8 -10   53.61    7.40
  -4  -8  10   39.63    7.27
  -4  -8  10   55.17    4.58
   8  -4   9  677.93   35.51
  -4  -8   9  600.36   27.13
   4  -8  -9  705.78   26.07
  -4  -8   9  676.21   18.16
   8  -4   8 1454.25   52.75
  -4  -8   8 1445.83   43.99
   4  -8  -8 1387.83   40.12
   8  -4   7   64.61   11.13
  -8   4   7   75.62    5.90
  -4  -8   7   61.63    8.15
   4  -8  -7   79.36    8.52
   8  -4   6  186.55   17.42
  -4  -8   6  197.06   14.49
  -8   4   6  191.00   10.06
   4  -8  -6  218.12   13.81
   8  -4   5  247.45   19.33
  -4  -8   5  243.37   16.07
  -8   4   5  262.23   12.43
   4  -8  -5  263.13   15.50
   8  -4   4  581.36   29.14
   4  -8  -4  587.91   24.26
  -8   4   4  598.92   21.05
   8  -4   3  153.85   14.24
   4  -8  -3  173.92   12.88
  -8   4   3  173.34   11.17
   8  -4   2  136.83   13.32
   4  -8  -2  132.56   11.40
  -8   4   2  157.70   11.06
   8  -4   1  417.34   21.99
   4  -8  -1  418.59   21.08
  -8   4   1  435.85   19.74
   8  -4   0   61.67    9.10
   4  -8   0   46.35    7.74
   8  -4  -1  402.74   20.28
   4  -8   1  372.46   20.53
   8  -4  -2  161.93   12.31
   4  -8   2  160.61   14.00
   8  -4  -3  186.63   12.45
   4  -8   3  181.79   15.24
   8  -4  -4  629.32   23.34
   4  -8   4  593.72   28.16
   8  -4  -5  254.75   13.63
   4  -8   5  272.13   19.30
   8  -4  -6  187.87   10.95
   4  -8   6  189.68   17.08
   8  -4  -7   53.66    5.82
   4  -8   7   59.22    9.99
   8  -4  -8 1485.59   34.92
   4  -8   8 1515.49   52.33
   8  -4  -9  708.32   19.63
  -8  -4   9  719.52   22.74
   4  -8   9  710.99   34.94
   8  -4 -10   62.80    4.30
  -8  -4  10   68.79    6.59
   4  -8  10   43.34    9.10
  -8  -4  11  200.22   10.93
   4  -8  11  209.58   19.99
  -8  -4  12   87.49    7.41
   4  -8  12   77.64   13.06
   4  -8  13   20.47    7.45
  -8  -4  13   19.23    3.86
   4  -8  14   45.08   10.71
  -8  -4  14   38.49    5.35
  -4  -8 -15   95.19   16.09
   4  -8  15   91.01   15.06
  -8  -4  15   77.23    7.17
  -4  -8 -16  598.84   38.93
  -8  -4  16  635.54   22.39
   4  -8  16  590.11   37.19
  -4  -8 -17  141.71   20.70
   4  -8  17  142.03   19.00
  -8  -4  17  156.20   10.66
  -4  -8 -18  286.61   28.30
   4  -8  18  307.05   27.32
  -4  -8 -19    9.06    8.83
   4  -8  19    8.88    9.27
  -4  -8 -20  564.92   41.18
   4  -8  20  564.65   38.92
  -4  -8 -21   86.33   17.23
   4  -8  21   85.00   15.32
  -4  -8 -22   88.52   18.66
   4  -8  22   67.80   15.90
  -4  -8 -23  275.51   31.20
   4  -8  23  225.79   25.22
  -4  -8 -24  149.43   24.19
   4  -8  24  190.18   24.47
  -4  -8 -25   56.71   17.03
   4  -8  25   12.67    8.23
  -4  -8 -26   15.40   12.12
   4  -8  26    7.80    8.27
  -4  -8 -27   24.51   12.69
   4  -8  27   45.00   13.11
  -4  -8 -28   26.61   11.86
   4  -8  28   35.67   13.42
  -4  -8 -29   76.73   19.86
  -8   4 -29   64.23   16.29
   4  -8  29  122.91   20.35
  -4  -8 -30   -0.53   10.65
  -8  -5 -30   55.23   18.04
  -8  -5 -29    0.31   12.51
  -8  -5 -28  167.10   26.83
  -8  -5 -27   59.72   18.53
  -8  -5 -26  210.11   29.15
  -5  -8  22  150.48   17.02
   8  -5  21  364.67   31.32
  -5  -8  21  344.00   25.20
  -5  -8  20   88.27   12.98
   8  -5  20   88.34   16.71
   8  -5  19  213.47   23.89
  -5  -8  19  201.94   18.45
   8  -5  18  111.63   17.47
  -5  -8  18  120.28   14.34
   8  -5  17   47.33   13.72
  -5  -8  17   37.67    8.00
   8  -5  16  219.83   23.31
  -5  -8  16  222.28   17.94
   8  -5  15  389.37   30.00
  -5  -8  15  416.15   24.33
   8  -5  14  686.36   39.56
  -5  -8  14  693.31   24.43
   5  -8 -14  674.29   25.30
  -5  -8  14  657.25   30.49
   8  -5  13    2.44    6.98
  -5  -8  13    3.14    2.46
   5  -8 -13   -1.00    2.75
  -5  -8  13    0.95    4.69
   8  -5  12  258.99   23.21
   5  -8 -12  272.62   15.37
  -5  -8  12  262.29   18.17
  -5  -8  12  296.59   14.02
   8  -5  11   78.52   13.58
   5  -8 -11   61.89    7.73
  -5  -8  11   63.90    8.91
  -5  -8  11   66.32    6.47
  -5  -8  10  241.60   12.28
   8  -5  10  193.01   20.39
  -5  -8  10  241.07   16.43
   5  -8 -10  225.45   14.09
   8  -5   9 1461.77   54.31
   5  -8  -9 1338.96   38.75
  -5  -8   9 1320.92   42.17
   8  -5   8  196.50   18.79
  -5  -8   8  207.39   14.84
   5  -8  -8  200.27   13.05
   8  -5   7  342.20   24.18
   5  -8  -7  365.99   18.22
  -5  -8   7  384.40   20.26
   8  -5   6  191.77   17.50
  -8   5   6  184.16   10.67
   5  -8  -6  190.07   13.14
  -5  -8   6  167.78   13.45
   8  -5   5   53.13    9.93
   5  -8  -5   42.59    6.82
  -8   5   5   51.46    5.99
   8  -5   4   69.64   10.81
  -8   5   4   69.92    7.02
   5  -8  -4   78.80    8.74
   8  -5   3  573.99   28.53
  -8   5   3  531.87   21.23
   5  -8  -3  582.26   24.61
   5  -8  -2 1186.38   38.64
   8  -5   2 1188.24   41.79
   8  -5   1  134.08   13.33
   5  -8  -1  101.14   10.90
   5  -8   0 1113.48   38.51
   8  -5   0 1183.83   39.77
   8  -5  -1   83.06   10.07
   5  -8   1   81.29   10.67
   5  -8   2 1165.95   40.95
   8  -5  -2 1214.50   38.57
   8  -5  -3  558.32   23.68
   5  -8   3  541.15   27.07
   8  -5  -4   53.99    7.36
   5  -8   4   60.40    9.88
   8  -5  -5   48.08    7.52
   5  -8   5   54.25   10.00
   5  -8   6  201.54   17.77
   8  -5  -6  191.77   12.05
   8  -5  -7  328.51   15.48
   5  -8   7  357.03   23.98
   8  -5  -8  208.69   11.41
   5  -8   8  202.61   18.32
  -8  -5   9 1340.31   36.72
   8  -5  -9 1335.08   33.31
   5  -8   9 1306.80   50.41
  -8  -5  10  272.60   14.21
   5  -8  10  242.93   21.54
   8  -5 -10  270.70   11.75
   5  -8  11   63.29   12.43
  -8  -5  11   70.17    7.30
   8  -5 -11   75.96    5.66
  -8  -5  12  247.81   13.69
   8  -5 -12  256.75    9.88
   5  -8  12  256.09   23.15
   5  -8  13    0.36    6.53
  -8  -5  13    1.31    2.64
   8  -5 -13    0.94    1.26
  -8  -5  14  701.61   25.25
   5  -8  14  683.20   39.27
  -8  -5  15  337.45   17.18
   5  -8  15  343.42   28.19
   5  -8  16  226.59   23.60
  -8  -5  16  235.28   14.49
   5  -8  17   24.23   10.32
  -8  -5  17   39.58    6.40
  -5  -8 -18   98.02   17.83
   5  -8  18  125.96   18.94
  -8  -5  18   98.01    9.53
  -5  -8 -19  269.56   28.25
   5  -8  19  241.35   26.09
  -5  -8 -20   64.45   15.87
   5  -8  20  105.33   18.00
  -5  -8 -21  311.73   31.98
   5  -8  21  354.22   31.92
  -5  -8 -22  157.90   23.06
   5  -8  22  147.80   21.73
  -5  -8 -23   26.92   13.14
   5  -8  23    1.78    8.05
  -5  -8 -24  170.86   25.00
   5  -8  24  185.75   24.20
  -5  -8 -25   98.66   19.78
   5  -8  25  100.58   18.79
  -5  -8 -26  160.51   25.51
   5  -8  26  135.81   21.01
  -5  -8 -27   31.16   15.43
   5  -8  27   30.63   11.18
  -5  -8 -28  208.70   31.13
   5  -8  28  125.67   21.05
  -5  -8 -29   26.42   16.23
   5  -8  29   18.69   11.12
  -8  -6 -29   24.99   13.67
  -8  -6 -28    8.72    8.63
  -8  -6 -27   84.72   18.86
  -8  -6 -26  268.50   33.61
   8  -6  23   38.52   13.10
   8  -6  22  103.51   17.80
  -6  -8  21   11.74    5.79
   8  -6  21   13.15   10.95
   8  -6  20  192.37   23.85
  -6  -8  20  188.51   17.72
   8  -6  19    0.83    8.37
  -6  -8  19   12.37    5.81
   8  -6  18  125.99   18.81
   6  -8 -18  103.73    9.26
  -6  -8  18  113.59   13.34
   8  -6  17  171.13   21.44
   6  -8 -17  195.41   12.49
  -6  -8  17  165.95   15.50
   8  -6  16   12.41   10.07
   6  -8 -16   13.82    4.47
  -6  -8  16    2.35    4.63
   8  -6  15  246.79   24.60
   6  -8 -15  265.92   14.96
  -6  -8  15  281.33   19.62
   8  -6  14  718.16   41.84
  -6  -8  14  742.28   27.83
  -6  -8  14  732.64   31.88
   6  -8 -14  771.95   26.58
   8  -6  13   55.16   13.77
  -6  -8  13   57.76    7.32
   6  -8 -13   66.04    7.64
  -6  -8  13   62.10    9.10
   8  -6  12  294.81   25.43
  -6  -8  12  325.93   19.65
   6  -8 -12  290.54   15.65
  -6  -8  12  312.09   16.28
   8  -6  11   59.61   11.94
   6  -8 -11   50.35    6.66
  -6  -8  11   47.00    7.65
   8  -6  10  487.40   31.55
   6  -8 -10  459.48   20.16
  -6  -8  10  456.45   23.24
   8  -6   9  311.31   24.64
  -6  -8   9  285.50   18.17
   6  -8  -9  315.92   16.59
   8  -6   8  865.47   40.95
   6  -8  -8  839.17   29.23
  -6  -8   8  839.45   32.06
   8  -6   7   13.74    7.05
  -6  -8   7   15.62    5.37
   6  -8  -7   21.83    4.96
   8  -6   6  130.85   15.23
   6  -8  -6  116.73   10.82
  -8   6   6  116.27    9.07
   8  -6   5   86.31   12.48
  -8   6   5   88.54    8.15
   6  -8  -5   97.58    9.92
   8  -6   4   35.63    8.57
   6  -8  -4   37.79    6.85
   8  -6   3  143.56   14.42
   6  -8  -3  146.54   12.73
   6  -8  -2 3089.10   73.64
   8  -6   2 3054.50   78.67
   8  -6   1   10.80    6.04
   6  -8  -1   18.19    6.09
   8  -6   0  624.67   28.21
   6  -8   0  600.67   27.65
   8  -6  -1    8.44    4.88
   6  -8   1   17.00    6.41
   8  -6  -2 3049.82   73.10
   6  -8   2 3071.83   78.03
   6  -8   3  137.69   14.32
   8  -6  -3  139.09   12.31
   6  -8   4   61.61   10.93
   8  -6  -4   44.01    6.69
   8  -6  -5   68.74    8.03
   6  -8   5   63.79   11.16
   8  -6  -6  148.66   11.08
   6  -8   6  134.23   14.91
   6  -8   7   17.04    8.61
   8  -6  -7   16.65    4.34
   8  -6  -8  814.09   26.63
   6  -8   8  818.49   39.43
  -8  -6   9  319.97   16.58
   8  -6  -9  292.46   14.65
   6  -8   9  342.94   25.40
  -8  -6  10  431.90   19.97
   8  -6 -10  439.72   17.52
   6  -8  10  484.93   31.07
   6  -8  11   76.45   14.00
  -8  -6  11   54.78    7.29
   8  -6 -11   56.82    5.89
  -8  -6  12  335.26   17.39
   8  -6 -12  324.27   13.56
   6  -8  12  310.82   25.92
   6  -8  13   71.84   14.00
  -8  -6  13   52.85    7.35
   8  -6 -13   70.34    5.86
  -8  -6  14  713.53   27.53
   8  -6 -14  743.86   20.58
   6  -8  14  803.93   43.42
   6  -8  15  272.04   25.83
  -8  -6  15  260.39   16.25
   8  -6 -15  263.53   10.34
   6  -8  16    7.75    9.22
  -8  -6  16   12.92    4.96
   6  -8  17  144.11   19.51
  -8  -6  17  150.88   12.75
   6  -8  18  124.88   19.14
  -8  -6  18  100.98   10.72
   6  -8  19    3.38    8.13
  -6  -8 -20  182.06   24.11
   6  -8  20  141.49   20.59
  -6  -8 -21   -0.46    9.99
   6  -8  21   10.09    9.03
  -6  -8 -22   79.56   17.19
   6  -8  22  129.07   20.16
  -6  -8 -23   39.90   14.16
   6  -8  23   26.73   11.72
  -6  -8 -24   83.96   19.56
   6  -8  24   78.38   16.40
  -6  -8 -25  114.79   22.23
   6  -8  25   53.56   15.51
  -6  -8 -26  246.58   30.81
   6  -8  26  248.89   28.39
  -6  -8 -27   88.45   19.77
   6  -8  27   85.17   17.70
  -6  -8 -28   26.99   14.93
   6  -8  28   10.19    9.65
  -6  -8 -29   30.01   13.14
  -8  -7 -28   89.18   20.59
  -8  -7 -27   12.48   11.57
  -8  -7 -26   62.61   16.90
  -8  -7 -25   43.12   14.81
   8  -7  25   79.57   18.18
   8  -7  24  130.24   21.66
   8  -7  23   64.56   15.60
   8  -7  22   -2.34    9.79
   8  -7  21  159.32   22.64
   8  -7  20   12.15    9.12
  -7  -8  20   -1.56    4.31
   8  -7  19   71.74   15.62
  -7  -8  19   76.21   11.01
   8  -7  18  101.39   17.47
  -7  -8  18  111.31   13.06
   8  -7  17    2.85    8.34
   7  -8 -17    1.88    2.83
  -7  -8  17    1.63    3.98
   8  -7  16  157.31   21.06
   7  -8 -16  161.31   10.83
  -7  -8  16  141.67   13.98
   8  -7  15  176.40   22.56
   7  -8 -15  221.17   12.93
  -7  -8  15  212.61   16.86
   8  -7  14  321.99   28.50
   7  -8 -14  334.42   16.45
  -7  -8  14  379.43   21.90
   8  -7  13   61.54   14.23
  -7  -8  13   47.07    8.32
   7  -8 -13   37.29    5.72
  -7  -8  13   25.50    5.57
   8  -7  12  305.95   26.43
  -7  -8  12  296.05   18.64
   7  -8 -12  313.45   16.08
   8  -7  11  122.03   16.52
   7  -8 -11  115.01    9.82
  -7  -8  11  124.20   11.90
   8  -7  10  282.43   24.63
   7  -8 -10  258.45   14.93
  -7  -8  10  238.18   16.57
   8  -7   9  916.73   44.09
   7  -8  -9  921.67   30.90
  -7  -8   9  877.15   33.07
   8  -7   8  131.83   16.35
  -7  -8   8  125.06   12.27
   7  -8  -8  138.71   11.39
   7  -8  -7  354.54   18.38
  -7  -8   7  341.09   19.57
   8  -7   7  345.32   25.27
   8  -7   6   51.35   10.37
   7  -8  -6   54.95    7.67
   8  -7   5  178.17   17.66
   7  -8  -5  161.45   12.80
   8  -7   4  444.23   26.96
   7  -8  -4  475.26   22.98
   7  -8  -3  437.79   22.55
   8  -7   3  407.87   25.11
   8  -7   2 1096.08   42.17
   7  -8  -2 1138.14   39.10
   7  -8  -1   99.00   11.61
   8  -7   1  107.87   12.98
   8  -7   0 1365.94   45.80
   7  -8   0 1341.28   45.34
   7  -8   1  107.72   12.36
   8  -7  -1  133.08   12.92
   7  -8   2 1179.51   43.58
   8  -7  -2 1159.76   40.06
   8  -7  -3  449.76   22.53
   7  -8   3  430.55   25.79
   8  -7  -4  398.14   20.71
   7  -8   4  366.65   24.52
   8  -7  -5  187.07   13.63
   7  -8   5  164.60   17.24
   8  -7  -6   52.57    7.62
   7  -8   6   40.74    9.25
   8  -7  -7  366.70   18.58
   7  -8   7  347.56   25.09
   7  -8   8  134.73   16.98
  -8  -7   8  139.61   11.69
   8  -7  -8  125.63   10.28
  -8  -7   9  827.81   30.70
   8  -7  -9  904.95   29.02
   7  -8   9  843.17   42.15
  -8  -7  10  277.07   16.86
   7  -8  10  248.25   23.35
   8  -7 -10  296.60   15.08
   7  -8  11  112.63   15.77
  -8  -7  11  121.46   11.04
   8  -7 -11  134.44    9.76
   8  -7 -12  375.27   16.17
  -8  -7  12  337.92   18.82
   7  -8  12  349.18   28.34
   7  -8  13   31.55   10.88
  -8  -7  13   43.21    7.13
   8  -7 -13   38.04    4.95
   7  -8  14  299.17   26.91
   8  -7 -14  342.10   14.64
  -8  -7  14  315.95   18.71
   7  -8  15  217.87   23.75
  -8  -7  15  187.96   14.62
   8  -7 -15  197.15   10.62
   7  -8  16  118.03   18.24
  -8  -7  16  134.47   12.52
   7  -8  17    5.57    7.41
  -8  -7  17    6.24    4.47
   7  -8  18   90.41   16.17
  -8  -7  18  104.10   11.58
   7  -8  19   96.36   17.62
   7  -8  20   19.77   11.25
   7  -8  21  190.46   24.33
  -7  -8 -22   14.39   13.17
   7  -8  22   16.42   11.21
  -7  -8 -23   60.37   15.84
   7  -8  23   75.27   16.27
  -7  -8 -24  148.82   23.78
   7  -8  24  197.98   25.79
  -7  -8 -25   24.81   12.82
   7  -8  25   30.41   12.42
  -7  -8 -26   74.76   20.07
   7  -8  26   51.34   14.94
  -7  -8 -27   12.34   10.38
   7  -8  27   33.75   13.55
  -7  -8 -28   92.16   20.87
   8  -8   0  477.04   26.20
   8  -8   1  427.88   25.12
   8  -8  -1  332.15   21.14
   8  -8   2   -2.77    5.24
   8  -8  -2   -3.14    5.14
   8  -8   3  738.77   35.56
   8  -8  -3  737.31   31.01
   8  -8  -4 1251.14   41.15
   8  -8   4 1206.12   48.12
   8  -8   5   72.79   11.79
   8  -8  -5  115.75   11.56
   8  -8   6   58.77   11.86
   8  -8  -6   68.44    8.54
   8  -8   7   -7.34    7.59
   8  -8  -7    6.58    4.56
  -8  -8   8  845.49   32.64
   8  -8   8  854.97   42.89
   8  -8  -8  867.52   30.99
   8  -8   9  200.13   21.10
  -8  -8   9  234.12   16.57
   8  -8  -9  250.99   15.10
   8  -8  10   -1.37    8.43
  -8  -8  10   14.69    5.25
   8  -8 -10   14.49    4.24
   8  -8  11  143.03   18.82
  -8  -8  11  108.68   11.38
   8  -8 -11  128.22   10.41
   8  -8  12   10.18    7.64
  -8  -8  12    3.09    4.29
   8  -8 -12    0.51    2.85
   8  -8  13   28.62   11.37
  -8  -8  13   26.90    6.84
   8  -8 -13   16.05    4.12
   8  -8  14   59.55   13.62
   8  -8 -14   69.84    7.42
  -8  -8  14   57.20    8.72
   8  -8  15   85.78   16.31
   8  -8 -15  109.99    9.06
  -8  -8  15   99.49   11.57
   8  -8  16  354.04   31.73
  -8  -8  16  326.88   20.83
   8  -8  17  275.55   28.02
  -8  -8  17  269.49   19.29
   8  -8  18    3.98    8.76
  -8  -8  18    4.91    4.12
   8  -8  19  -17.14   10.78
   8  -8  20  331.29   32.52
   8  -8  21    7.04    9.17
   8  -8  22   34.55   12.33
   8  -8  23  193.65   25.63
   8  -8  24   28.43   12.77
  -8  -8 -24   24.28   11.26
   8  -8  25   48.81   15.44
  -8  -8 -25   23.38   13.12
   8  -8  26   13.50   11.43
  -8  -8 -26    3.32   10.53
   8  -8  27   27.49   13.52
  -8  -8 -27   36.36   14.70
  -8  -8 -28   13.00   10.45
   0  -9   0    7.34    5.45
  -9   0   1 1266.07   38.73
   0  -9  -1 1257.68   38.92
   0  -9  -1 1207.67   39.54
   0  -9   1 1228.09   40.63
  -9   0   2  506.03   21.82
   0  -9   2  533.47   24.79
   0  -9  -2  532.42   24.27
  -9   0   3  173.13   11.76
   0  -9   3  145.78   12.74
   0  -9  -3  161.62   13.78
  -9   0   4    1.92    2.18
   0  -9   4   10.27    6.23
   0  -9  -4    1.62    4.34
  -9   0   5    0.58    2.30
   0  -9   5   -3.09    5.52
   0  -9  -5    5.12    5.60
  -9   0   6 1555.04   37.74
   0  -9  -6 1659.09   53.37
   0  -9   6 1578.17   49.45
   0  -9  -7  614.30   31.32
   0  -9   7  542.16   27.56
  -9   0   7  547.67   17.51
   0  -9  -8 1175.95   46.64
   0  -9   8 1142.70   42.22
  -9   0   8 1177.20   26.57
   0  -9  -9  347.82   25.25
   0  -9   9  358.86   23.08
   0  -9 -10  760.90   38.98
   0  -9  10  790.42   35.33
   0  -9 -11  117.40   15.80
   0  -9  11  133.29   15.27
   0  -9 -12   83.74   14.49
   0  -9  12   77.93   12.25
   0  -9 -13  353.18   28.09
   0  -9  13  328.72   23.67
   0  -9 -14   -2.55    7.72
   0  -9  14    4.72    5.90
   0  -9 -15  377.10   30.99
   0  -9  15  446.57   29.34
   0  -9 -16   64.28   14.65
   0  -9  16   63.86   12.15
   0  -9 -17   26.89   10.58
   0  -9  17    9.10    6.26
   0  -9 -18   62.09   14.43
   0  -9  18   50.99   12.10
   0  -9 -19   27.75   12.04
   0  -9  19   15.48    7.21
   0  -9 -20   65.08   16.66
   0  -9  20   79.73   14.41
   0  -9 -21   71.16   17.21
   0  -9  21   65.40   13.87
   0  -9 -22   79.53   19.16
   0  -9  22   49.92   12.02
   0  -9 -23   45.88   14.17
   0  -9  23   63.42   13.47
   0  -9 -24   -2.88    8.22
   0  -9  24  -10.84    8.86
   0  -9 -25  194.19   28.38
   0  -9  25  235.40   26.06
   0  -9 -26   -3.49   11.28
   0  -9  26    0.80    7.24
   0  -9 -27  228.45   31.22
   0  -9  27  153.01   21.27
   0  -9 -28   35.99   15.39
   0  -9  28   21.70    9.41
   0  -9 -29  -12.74   13.83
  -9   0 -30   89.66   21.78
   0  -9 -30   67.97   20.48
  -9   0 -31    1.22    8.66
  -9   0 -32  109.40   24.25
  -9  -1 -31   34.52   15.08
  -9  -1 -30   42.68   16.62
   1  -9 -30   84.82   21.95
  -9  -1 -29   34.09   13.21
   1  -9 -29   18.77   10.41
   1  -9 -28   55.78   19.45
   1  -9 -27  105.54   23.10
  -1  -9  27  130.82   19.32
   1  -9 -26   10.86   13.19
  -1  -9  26   11.92    7.30
   1  -9 -25   84.83   21.11
  -1  -9  25   66.45   14.89
   1  -9 -24   72.96   18.39
  -1  -9  24   52.42   12.61
   1  -9 -23   30.32   14.51
  -1  -9  23   50.97   12.85
   1  -9 -22   86.89   18.39
  -1  -9  22   95.68   16.36
   1  -9 -21  127.06   21.30
  -1  -9  21  107.08   16.77
   1  -9 -20   39.89   13.79
  -1  -9  20   34.46    9.70
   1  -9 -19   97.28   17.64
  -1  -9  19  131.79   17.46
   1  -9 -18   46.32   13.18
  -1  -9  18   42.49   10.48
  -1   9 -17   70.77    7.41
   1  -9 -17   77.98   16.19
  -1  -9  17   62.68   11.79
  -1   9 -16  254.45   13.20
   1  -9 -16  308.01   28.51
  -1  -9  16  251.35   21.98
   1  -9 -15  171.07   21.39
  -1   9 -15  146.26    9.18
  -1  -9  15  149.78   16.64
  -1   9 -14   33.42    4.01
   1  -9 -14   82.87   16.00
  -1  -9  14   46.70   10.09
   1  -9 -13  150.45   19.54
  -1   9 -13  133.70    6.97
  -1  -9  13  133.74   14.48
   1  -9 -12   62.28   12.99
  -1   9 -12   81.36    4.64
  -1  -9  12   82.23   11.73
   1  -9 -11  373.36   27.62
  -1  -9  11  391.47   24.37
   1  -9 -10  896.29   43.21
  -1  -9  10  880.57   37.18
   1  -9  -9  129.27   15.78
  -1  -9   9  105.96   12.33
   1  -9  -8   78.47   12.32
  -9   1   8   92.01    4.92
  -1  -9   8   84.09   11.02
   1  -9  -7  845.35   37.94
  -1  -9   7  809.16   33.10
  -9   1   7  804.98   21.19
  -1   9  -6    3.16    1.46
   1  -9  -6   -3.52    5.85
  -1  -9   6    5.15    5.32
  -9   1   6    1.58    1.91
  -1   9  -5  177.30    8.26
   1  -9  -5  205.47   17.27
  -1  -9   5  177.60   14.61
  -9   1   5  188.27   10.67
   1  -9  -4  696.89   35.80
  -1   9  -4  799.59   22.50
  -1  -9   4  804.49   32.17
  -9   1   4  893.40   27.45
  -1   9  -3 1124.22   29.87
  -1  -9   3 1130.26   38.92
   1  -9  -3 1182.52   38.11
  -9   1   3 1168.37   34.07
  -1  -9   2   43.13    7.27
  -9   1   2   80.24    8.26
  -1  -9   2   81.86   10.10
   1  -9  -2   80.19    9.92
  -1   9  -2   78.29    7.18
  -9   1   1  713.39   27.02
  -1  -9   1  664.84   28.37
   1  -9  -1  689.58   28.52
  -1  -9   1  721.96   24.28
  -1   9  -1  649.03   23.96
  -1  -9   0   20.31    6.01
   1  -9   0   14.44    5.47
  -1  -9   0   14.75    3.93
  -1   9   0   15.59    4.17
  -9  -1   1  694.43   25.77
   1  -9   1  601.32   26.82
  -1   9   1  645.03   25.53
  -1  -9  -1  598.58   24.66
  -9  -1   2   84.11    8.40
   1  -9   2   89.76   10.51
  -1  -9  -2   96.32   10.11
  -1   9   2   88.72    9.59
  -9  -1   3 1093.41   32.35
   1  -9   3 1081.31   38.45
  -1  -9  -3 1098.15   37.85
  -9  -1   4 1018.83   29.87
   1  -9   4  915.22   35.96
  -1  -9  -4 1033.94   37.48
  -9  -1   5  129.09    9.12
  -1  -9  -5  110.35   12.46
   1  -9   5  146.81   14.42
  -1  -9  -6   -3.26    4.67
  -9  -1   6    1.18    1.82
   1  -9   6    3.60    5.56
  -9  -1   7  800.49   22.73
  -1  -9  -7  831.90   36.69
   1  -9   7  798.29   34.37
  -1  -9  -8   98.19   13.40
  -9  -1   8   81.49    5.82
   1  -9   8   79.59   10.65
  -1  -9  -9  107.85   14.19
  -9  -1   9   86.89    5.47
   1  -9   9   87.78   11.85
  -9  -1  10  923.99   20.24
  -1  -9 -10  970.89   43.60
  -9  -1  10  942.70   19.19
   1  -9  10  986.45   40.53
  -1  -9 -11  372.62   27.51
   1  -9  11  382.71   25.12
  -1  -9 -12   74.39   13.82
   1  -9  12   62.34   11.18
  -1  -9 -13   87.79   14.99
   1  -9  13   88.29   13.06
  -1  -9 -14   50.39   11.77
   1  -9  14   56.21   11.12
  -1  -9 -15  182.80   21.01
   1  -9  15  169.82   18.61
  -1  -9 -16  249.86   25.21
   1  -9  16  241.77   22.84
  -1  -9 -17   82.61   16.42
   1  -9  17   67.19   13.31
  -1  -9 -18   38.58   12.07
   1  -9  18   45.85   11.63
  -1  -9 -19  143.70   21.24
   1  -9  19  114.06   16.95
  -1  -9 -20   35.22   11.81
   1  -9  20   49.96   11.75
  -1  -9 -21   90.10   17.52
   1  -9  21   84.10   15.09
  -1  -9 -22   94.62   19.39
   1  -9  22  107.32   17.20
  -1  -9 -23   43.56   16.05
   1  -9  23   27.36   11.16
  -1  -9 -24   79.97   17.99
   1  -9  24   61.71   15.54
  -1  -9 -25  110.03   22.18
   1  -9  25   54.63   13.82
  -1  -9 -26    6.03   11.68
   1  -9  26  -14.58   10.68
  -1  -9 -27  130.13   24.75
   1  -9  27  112.00   18.76
  -1  -9 -28   35.09   14.02
   1  -9  28   44.67   12.67
  -1  -9 -29   30.49   15.13
   1  -9  29   -1.90    6.94
  -1  -9 -30   36.55   17.14
  -9   1 -30   47.92   15.47
  -9   1 -31   54.70   18.20
  -9   1 -32    2.22   10.50
  -9  -2 -31   11.69   12.15
  -9  -2 -30   55.78   18.68
  -9  -2 -29   -6.41   11.46
  -2  -9  26    0.73    7.30
   2  -9 -25    6.35   12.16
  -2  -9  25   12.55    8.94
   2  -9 -24   89.65   19.03
  -2  -9  24   54.09   12.40
   2  -9 -23   -0.26   11.64
  -2  -9  23   -1.73    6.26
   2  -9 -22  193.03   26.80
  -2  -9  22  175.56   20.46
   2  -9 -21   56.66   16.13
  -2  -9  21   68.79   13.02
   2  -9 -20  451.56   39.53
  -2  -9  20  397.15   29.43
   2  -9 -19  151.35   21.73
  -2  -9  19  154.96   18.12
  -2   9 -18  332.12   18.33
   2  -9 -18  355.34   32.39
  -2  -9  18  310.33   24.84
  -2   9 -17  184.82   12.73
   2  -9 -17  162.49   21.97
  -2  -9  17  190.04   19.25
  -2   9 -16  382.51   17.63
   2  -9 -16  313.92   29.92
  -2  -9  16  343.17   25.15
  -2   9 -15   20.50    4.14
   2  -9 -15   40.92   11.80
  -2  -9  15   28.41    8.49
  -2   9 -14  120.33    8.82
   2  -9 -14   83.14   14.41
  -2  -9  14  110.48   14.04
   2  -9 -13    2.90    6.94
  -2  -9  13    3.94    5.12
   2  -9 -12   96.94   14.75
  -2  -9  12   96.47   12.39
  -2  -9  11  159.04   15.20
   2  -9 -11  165.67   19.98
   2  -9 -10  792.10   41.17
  -2  -9  10  825.84   34.90
   2  -9  -9  230.69   21.50
  -2  -9   9  235.39   17.36
   2  -9  -8  552.38   31.76
  -9   2   8  520.40   13.81
  -2  -9   8  522.50   26.19
  -2  -9   7   12.67    5.36
  -9   2   7   14.51    2.52
  -2  -9   6  976.34   36.36
  -9   2   6 1021.02   26.66
   2  -9  -5 1112.85   35.78
  -2  -9   5 1075.37   37.07
  -9   2   5 1133.46   28.93
  -2  -9   4  798.28   20.47
  -2   9  -4  793.54   25.20
  -2  -9   4  807.27   32.01
   2  -9  -4  788.68   30.31
  -9   2   4  814.06   26.06
  -2   9  -3   87.27    8.19
  -2  -9   3   91.56    6.73
   2  -9  -3  108.00   10.93
  -2  -9   3  115.03   11.19
  -9   2   3  108.31    8.99
  -2  -9   2   86.92    7.26
  -2   9  -2   82.67    7.94
  -2  -9   2  108.83   11.03
   2  -9  -2   81.29    9.67
  -9   2   2   94.92    9.32
  -2  -9   1  185.36   11.90
  -2   9  -1  211.85   13.55
   2  -9  -1  202.49   14.69
  -9   2   1  215.70   14.35
  -2   9   0   79.81    8.45
  -2  -9   0   83.18    8.16
   2  -9   0   88.65   10.42
  -2   9   1  207.96   14.54
  -2  -9  -1  217.52   14.07
   2  -9   1  200.80   15.15
  -2  -9  -2  150.84   12.07
   2  -9   2  141.65   13.25
  -2  -9  -3  104.18   10.76
   2  -9   3  114.53   11.68
  -2  -9  -4  849.98   33.76
   2  -9   4  913.39   35.24
  -2  -9  -5 1133.40   40.99
   2  -9   5 1115.38   41.19
  -2  -9  -6  997.18   39.29
   2  -9   6 1001.47   38.98
  -2  -9  -7   12.28    6.08
   2  -9   7   12.70    5.45
  -2  -9  -8  607.09   31.44
   2  -9   8  564.05   29.68
  -2  -9  -9  256.46   20.93
   2  -9   9  276.81   21.12
  -2  -9 -10  801.37   39.33
  -9  -2  10  811.82   20.18
   2  -9  10  733.23   35.89
  -2  -9 -11  149.10   17.19
  -9  -2  11  156.72    6.94
   2  -9  11  181.09   17.88
  -2  -9 -12   94.70   14.53
   2  -9  12   82.24   13.04
  -9  -2  12   82.02    4.50
  -2  -9 -13   18.90    8.64
   2  -9  13    5.07    6.59
  -2  -9 -14  104.88   16.04
   2  -9  14  117.44   16.04
  -2  -9 -15    3.40    8.48
   2  -9  15   23.82    8.07
  -2  -9 -16  288.87   26.92
   2  -9  16  310.33   25.97
  -2  -9 -17  170.93   22.26
   2  -9  17  181.27   20.79
  -2  -9 -18  289.63   28.50
   2  -9  18  345.33   28.66
  -2  -9 -19  132.29   19.91
   2  -9  19  118.75   18.09
  -2  -9 -20  409.93   35.73
   2  -9  20  388.07   31.55
  -2  -9 -21   57.22   16.06
   2  -9  21   80.01   15.23
  -2  -9 -22  155.39   24.54
   2  -9  22  226.72   25.14
  -2  -9 -23    1.83    9.58
   2  -9  23    0.90    8.01
  -2  -9 -24   55.76   16.55
   2  -9  24   40.04   13.01
  -2  -9 -25   10.12    9.82
   2  -9  25    5.14    7.45
  -2  -9 -26   17.80   12.78
   2  -9  26   10.78    8.85
  -2  -9 -27  -26.20   16.89
   2  -9  27   -5.49    7.94
  -2  -9 -28   42.29   17.36
   2  -9  28   38.10   13.01
  -2  -9 -29   15.42   14.00
   2  -9  29   34.19   11.85
  -9   2 -30   61.70   17.39
   2  -9  30   44.69   13.44
  -9   2 -31    0.24   11.18
  -9   2 -32   97.68   21.52
  -9  -3 -30  -22.45   14.87
  -9  -3 -29   10.72   12.15
  -3  -9  25   19.06    8.47
  -3  -9  24    5.38    6.88
  -3  -9  23   -1.11    5.76
  -3  -9  22   18.06    7.41
  -3  -9  21  559.49   35.28
  -3  -9  20   36.97    9.89
  -3  -9  19  588.83   34.59
  -3   9 -18    4.96    4.67
  -3  -9  18    2.07    5.65
  -3   9 -17  414.71   21.54
  -3  -9  17  590.62   32.69
  -3  -9  16   18.42    6.80
  -3  -9  15  116.20   14.39
  -3  -9  14   80.50   12.05
   9  -3  13   44.10   11.65
  -3  -9  13   21.86    6.61
   9  -3  12    8.34    7.91
  -3  -9  12   17.27    6.60
   9  -3  11   57.96   12.24
  -3  -9  11   67.18   10.50
   9  -3  10   79.22   12.59
  -3  -9  10   85.69   11.01
   9  -3   9  553.06   31.05
  -3  -9   9  528.49   26.42
   9  -3   8   51.94   10.52
  -3  -9   8   63.61    9.37
   3  -9  -8   61.16    8.28
  -9   3   8   52.12    4.37
   9  -3   7  653.79   32.76
  -3  -9   7  643.94   28.83
   3  -9  -7  692.83   27.63
  -9   3   7  670.93   19.10
   9  -3   6   66.26   11.16
   3  -9  -6   63.05    8.33
  -9   3   6   46.73    4.95
  -3  -9   6   49.62    8.53
   9  -3   5  966.91   38.47
  -3  -9   5  887.23   20.92
  -3  -9   5  904.69   34.49
  -9   3   5  889.58   26.14
   3  -9  -5  878.32   32.32
   9  -3   4  108.40   12.65
  -3  -9   4   96.98    6.55
   3  -9  -4   89.12    9.87
  -3  -9   4   90.49   10.45
  -9   3   4   98.26    8.25
   9  -3   3  240.43   17.39
   3  -9  -3  235.45   15.80
  -3  -9   3  241.90   16.68
  -9   3   3  249.14   13.93
   9  -3   2   85.30   10.64
   3  -9  -2   66.70    8.93
  -9   3   2   81.33    8.36
   9  -3   1   33.42    6.97
   3  -9  -1   24.13    6.29
  -3   9  -1   40.30    6.54
   9  -3   0   44.00    7.46
   3  -9   0   31.36    7.14
  -3   9   0   42.01    6.88
   9  -3  -1   54.05    8.03
   3  -9   1   57.42    8.41
   9  -3  -2   88.49    9.50
   3  -9   2   78.07   10.60
   9  -3  -3  246.87   14.50
   3  -9   3  266.09   18.52
   9  -3  -4   99.08    8.74
   3  -9   4   93.20   11.56
   9  -3  -5  819.71   25.85
   3  -9   5  910.89   36.48
   3  -9   6   42.69    9.18
  -3  -9  -7  609.63   33.01
   3  -9   7  663.22   32.30
  -3  -9  -8   39.24    9.54
   3  -9   8   53.67   10.52
  -3  -9  -9  536.81   31.00
   3  -9   9  526.18   30.24
  -3  -9 -10   81.06   11.93
  -9  -3  10   92.60    6.79
   3  -9  10   94.97   13.36
  -3  -9 -11   62.89   12.25
  -9  -3  11   61.27    5.32
   3  -9  11   65.22   11.63
  -3  -9 -12    6.94    6.94
  -9  -3  12   10.16    2.64
   3  -9  12    7.52    6.87
  -3  -9 -13    3.11    6.45
  -9  -3  13   23.14    3.59
   3  -9  13    7.32    5.90
  -3  -9 -14   69.57   13.74
   3  -9  14   64.39   11.96
  -9  -3  14   65.49    5.06
  -3  -9 -15   86.04   15.20
   3  -9  15  101.82   15.20
  -9  -3  15   91.61    5.98
  -3  -9 -16   23.43    9.20
   3  -9  16   -0.98    8.99
  -3  -9 -17  617.35   40.78
   3  -9  17  555.00   36.79
  -3  -9 -18   10.10    9.00
   3  -9  18    7.27    7.35
  -3  -9 -19  506.83   38.57
   3  -9  19  502.83   35.80
  -3  -9 -20   14.51    9.33
   3  -9  20   17.83    8.92
  -3  -9 -21  589.27   43.73
   3  -9  21  623.12   41.37
  -3  -9 -22    6.58    9.71
   3  -9  22    9.85    8.92
  -3  -9 -23   -7.84   10.89
   3  -9  23   -3.05    8.72
  -3  -9 -24   17.71   11.58
   3  -9  24   14.43    8.68
  -3  -9 -25   29.17   14.81
   3  -9  25   28.74   11.09
  -3  -9 -26   12.38   11.96
   3  -9  26    0.29    8.43
  -3  -9 -27    4.68    8.47
   3  -9  27   28.98   12.52
  -3  -9 -28  -23.39   14.97
   3  -9  28    2.43    8.12
  -3  -9 -29   -2.07    9.41
   3  -9  29    4.90    6.86
  -9   3 -30   13.68   10.02
   3  -9  30    0.35    7.24
  -9   3 -31   94.68   21.78
   3  -9  31   70.39   16.34
  -9  -4 -30   76.70   21.24
  -9  -4 -29   18.74   13.34
  -9  -4 -28   45.76   16.29
  -4  -9  23   50.84   10.93
  -4  -9  22  400.88   29.58
  -4  -9  21  108.17   15.63
  -4  -9  20  235.72   21.91
  -4  -9  19  142.37   16.94
  -4  -9  18  648.81   35.30
   9  -4  17   49.91   13.83
  -4  -9  17   35.74    9.58
   9  -4  16  268.93   24.99
  -4  -9  16  271.59   21.20
   9  -4  15  348.01   28.39
  -4  -9  15  333.67   23.24
   9  -4  14    6.48    8.11
  -4  -9  14    3.61    4.57
   9  -4  13    4.96    8.89
  -4  -9  13    3.51    5.11
   9  -4  12   49.65   11.93
  -4  -9  12   47.34    9.05
   9  -4  11   71.60   12.17
  -4  -9  11   60.79    9.50
   4  -9 -11   34.67    8.44
   9  -4  10  400.67   28.34
  -4  -9  10  478.18   25.25
   4  -9 -10  475.98   22.18
   9  -4   9  164.62   17.46
  -4  -9   9  198.76   15.78
   4  -9  -9  179.99   13.32
   9  -4   8  675.40   34.85
  -9   4   8  599.90   18.63
   4  -9  -8  660.96   26.82
  -4  -9   8  659.66   29.05
   9  -4   7  159.95   17.05
  -4  -9   7  141.07   13.46
  -9   4   7  130.15    8.11
   4  -9  -7  127.95   11.50
   9  -4   6  462.58   27.63
  -9   4   6  508.40   18.02
   4  -9  -6  466.30   22.19
  -4  -9   6  466.93   24.22
   9  -4   5   34.22    9.08
  -4  -9   5   30.83    7.34
  -9   4   5   30.69    4.54
   4  -9  -5   29.67    6.32
   9  -4   4  776.64   35.17
   4  -9  -4  721.09   28.96
  -4  -9   4  838.36   32.17
  -9   4   4  811.66   26.25
   9  -4   3   30.72    8.20
   4  -9  -3   42.89    7.20
  -9   4   3   36.65    5.56
   9  -4   2  195.88   16.03
   4  -9  -2  181.87   14.45
   9  -4   1    5.00    5.10
   4  -9  -1    0.06    4.24
   9  -4   0   65.56    8.90
   4  -9   0   69.70    9.44
   9  -4  -1    0.13    4.19
   4  -9   1   -1.83    4.41
   9  -4  -2  186.20   14.02
   4  -9   2  180.04   15.20
   9  -4  -3   20.68    4.97
   4  -9   3   13.83    6.55
   9  -4  -4  809.44   28.41
   4  -9   4  783.01   34.20
   9  -4  -5   31.61    5.73
   4  -9   5   33.05    8.65
   9  -4  -6  463.48   19.21
   4  -9   6  473.09   27.41
   9  -4  -7  146.50    9.39
   4  -9   7  111.39   13.39
   9  -4  -8  605.54   19.34
   4  -9   8  625.02   32.67
   9  -4  -9  177.91    8.58
   4  -9   9  205.11   19.49
  -9  -4  10  474.71   17.93
   4  -9  10  455.91   29.25
  -9  -4  11   66.14    6.24
   4  -9  11   74.54   13.12
  -9  -4  12   53.36    5.81
   4  -9  12   49.29   11.64
  -4  -9 -13   14.02    7.76
   4  -9  13    2.68    6.93
  -9  -4  13    8.05    2.91
  -4  -9 -14   15.65    8.65
   4  -9  14   -3.34   10.06
  -9  -4  14    5.59    2.77
  -4  -9 -15  295.89   27.13
  -9  -4  15  352.29   15.07
   4  -9  15  365.22   29.38
  -4  -9 -16  258.95   26.08
   4  -9  16  278.83   26.13
  -9  -4  16  271.60   13.13
  -4  -9 -17   36.63   12.45
   4  -9  17   34.24   12.29
  -4  -9 -18  568.60   40.23
   4  -9  18  544.99   37.60
  -4  -9 -19  139.76   21.28
   4  -9  19  126.77   18.60
  -4  -9 -20  272.18   29.44
   4  -9  20  244.93   26.32
  -4  -9 -21  123.74   20.99
   4  -9  21  133.14   19.60
  -4  -9 -22  356.09   34.59
   4  -9  22  365.61   33.41
  -4  -9 -23   60.89   16.67
   4  -9  23   61.30   15.38
  -4  -9 -24    3.65    9.67
   4  -9  24    5.98    7.59
  -4  -9 -25   42.19   15.62
   4  -9  25   -4.63   11.66
  -4  -9 -26   72.44   19.22
   4  -9  26   47.09   14.55
  -4  -9 -27    6.63   11.36
   4  -9  27  -22.28   12.02
  -4  -9 -28   38.00   16.13
   4  -9  28   21.69    9.62
  -4  -9 -29   27.13   14.04
   4  -9  29   18.00   10.69
   4  -9  30   78.60   17.73
  -9  -5 -29   10.93   12.04
  -9  -5 -28   31.32   15.68
  -5  -9  22   59.03   11.62
  -5  -9  21  138.72   17.23
   9  -5  20   51.20   13.73
  -5  -9  20   39.74    9.29
   9  -5  19  523.94   36.85
  -5  -9  19  446.07   28.71
   9  -5  18   72.73   15.46
  -5  -9  18   54.47   10.45
   9  -5  17  106.58   17.84
  -5  -9  17  108.03   13.53
   9  -5  16  291.52   27.00
   5  -9 -16  238.53   15.94
  -5  -9  16  277.56   20.84
   9  -5  15  559.77   36.25
   5  -9 -15  491.28   22.80
  -5  -9  15  504.91   28.29
   9  -5  14   14.28    8.42
   5  -9 -14   14.95    4.94
  -5  -9  14   14.69    6.00
   9  -5  13  135.67   18.13
   5  -9 -13  131.12   11.42
  -5  -9  13  141.37   14.10
   9  -5  12   98.16   15.83
  -5  -9  12   69.16    9.64
   5  -9 -12   70.21    9.03
  -5  -9  12   88.42    6.32
   9  -5  11  414.45   30.19
  -5  -9  11  457.35   24.79
   5  -9 -11  463.88   21.67
  -5  -9  11  457.71   15.46
   9  -5  10  613.25   35.97
   5  -9 -10  597.61   25.12
  -5  -9  10  589.65   28.09
  -5  -9  10  608.43   18.58
   9  -5   9  186.83   19.50
  -5  -9   9  188.56   15.67
   5  -9  -9  167.91   12.96
   9  -5   8   81.82   13.41
  -5  -9   8   71.62    9.95
   5  -9  -8   90.68    9.65
   9  -5   7  624.93   34.04
  -9   5   7  675.57   21.76
   5  -9  -7  628.93   26.26
  -5  -9   7  657.25   29.11
   9  -5   6  164.81   16.89
  -9   5   6  179.19   11.06
  -5  -9   6  194.94   15.11
   5  -9  -6  171.65   13.42
   9  -5   5  463.28   27.46
  -5  -9   5  435.14   23.20
  -9   5   5  444.67   18.39
   5  -9  -5  466.16   22.22
   9  -5   4  211.70   18.56
   5  -9  -4  211.46   15.02
  -9   5   4  212.90   12.85
   9  -5   3   -4.42    6.58
   5  -9  -3    2.07    4.14
   9  -5   2  214.20   17.49
   5  -9  -2  235.86   16.63
   9  -5   1  152.80   14.40
   5  -9  -1  171.23   14.47
   9  -5   0   13.90    5.89
   5  -9   0   11.06    5.53
   9  -5  -1  129.13   12.38
   5  -9   1  133.41   13.62
   9  -5  -2  224.17   15.97
   5  -9   2  257.79   18.74
   9  -5  -3    3.46    3.76
   5  -9   3   -2.13    5.06
   9  -5  -4  223.19   14.58
   5  -9   4  254.05   19.78
   5  -9   5  390.52   24.84
   9  -5  -5  436.41   20.11
   5  -9   6  154.73   16.30
   9  -5  -6  194.90   12.60
   9  -5  -7  704.17   24.30
   5  -9   7  626.52   33.83
   9  -5  -8   58.34    6.59
   5  -9   8   60.30   10.97
   5  -9   9  165.99   18.11
   9  -5  -9  157.14    9.72
   9  -5 -10  573.68   18.66
  -9  -5  10  582.30   22.01
   5  -9  10  618.94   34.97
   9  -5 -11  422.82   14.27
  -9  -5  11  421.36   18.19
   5  -9  11  417.79   29.35
   5  -9  12  102.27   15.46
   9  -5 -12   83.96    5.14
  -9  -5  12   89.25    8.06
   5  -9  13   93.74   15.63
  -9  -5  13  114.67    9.10
   5  -9  14    3.60    7.57
  -9  -5  14   10.69    3.26
  -9  -5  15  552.70   21.73
   5  -9  15  535.26   36.11
  -5  -9 -16  266.52   26.61
   5  -9  16  204.95   22.58
  -9  -5  16  251.41   14.30
  -5  -9 -17  110.14   18.15
   5  -9  17  131.72   19.53
  -5  -9 -18   59.44   16.12
   5  -9  18   59.79   14.49
  -5  -9 -19  493.41   37.97
   5  -9  19  439.35   35.15
  -5  -9 -20   47.10   13.82
   5  -9  20   45.59   12.43
  -5  -9 -21  127.61   20.41
   5  -9  21  155.35   22.93
  -5  -9 -22   59.41   15.07
   5  -9  22   52.93   14.28
  -5  -9 -23  119.80   21.53
   5  -9  23  122.93   20.62
  -5  -9 -24   63.44   17.79
   5  -9  24   21.43   10.09
  -5  -9 -25   83.90   18.85
   5  -9  25   85.03   17.64
  -5  -9 -26   10.28   10.03
   5  -9  26    0.93    8.88
  -5  -9 -27  202.10   29.02
   5  -9  27  168.34   24.18
  -5  -9 -28   40.55   16.24
   5  -9  28   19.41   10.59
  -5  -9 -29    7.92   12.90
   5  -9  29   25.10   12.71
   5  -9  30   35.93   14.49
  -9  -6 -28   33.85   14.84
  -9  -6 -27  170.11   28.79
   9  -6  22   25.01   11.27
   9  -6  21   29.74   11.24
  -6  -9  21   22.30    7.85
   9  -6  20  198.79   24.25
  -6  -9  20  182.11   18.11
   9  -6  19    5.11    7.44
  -6  -9  19   11.99    6.57
   9  -6  18  349.13   30.72
   6  -9 -18  342.24   18.16
  -6  -9  18  331.59   23.56
   9  -6  17   65.01   14.34
   6  -9 -17   83.01    9.01
  -6  -9  17   67.47   10.66
   9  -6  16   81.22   15.08
   6  -9 -16  110.40   10.18
  -6  -9  16  115.52   13.68
   9  -6  15  439.35   33.38
   6  -9 -15  402.44   19.98
  -6  -9  15  380.78   24.01
   9  -6  14   37.86   11.38
   6  -9 -14   40.01    6.58
  -6  -9  14   39.72    8.59
   9  -6  13  443.85   32.94
  -6  -9  13  434.15   24.72
   6  -9 -13  487.67   21.88
   9  -6  12   14.95    7.52
   6  -9 -12   12.11    4.79
  -6  -9  12    9.85    5.28
  -6  -9  12    5.12    2.57
   9  -6  11  671.49   39.20
  -6  -9  11  708.09   23.93
  -6  -9  11  662.22   30.11
   6  -9 -11  657.11   26.31
   9  -6  10    8.90    7.86
   6  -9 -10   17.64    4.98
  -6  -9  10   15.98    5.23
   9  -6   9   20.57    8.00
   6  -9  -9   38.46    6.65
  -6  -9   9   42.16    7.89
   9  -6   8  357.26   26.17
   6  -9  -8  286.73   16.96
  -6  -9   8  311.64   19.82
   9  -6   7  302.67   24.00
   6  -9  -7  292.30   17.31
  -6  -9   7  286.47   18.71
  -9   6   7  265.82   13.85
   9  -6   6  576.55   32.50
  -6  -9   6  551.74   26.47
   6  -9  -6  574.25   25.37
  -9   6   6  567.42   21.96
   9  -6   5   87.85   13.03
   6  -9  -5   96.57   10.65
   9  -6   4  473.30   28.04
   6  -9  -4  477.06   23.82
   9  -6   3    8.07    6.00
   6  -9  -3   13.27    5.68
   9  -6   2   52.46   10.25
   6  -9  -2   71.08    9.68
   6  -9  -1  614.77   28.54
   9  -6   1  610.20   30.27
   9  -6   0   10.14    5.54
   6  -9   0   22.99    6.86
   6  -9   1  639.73   30.28
   9  -6  -1  659.84   29.55
   9  -6  -2   66.39    9.17
   6  -9   2   68.49   10.93
   9  -6  -3    5.15    3.60
   6  -9   3    5.73    5.38
   9  -6  -4  537.50   24.70
   6  -9   4  510.40   29.09
   6  -9   5  109.59   13.69
   9  -6  -5  103.85   10.65
   9  -6  -6  569.00   23.95
   6  -9   6  560.20   31.54
   9  -6  -7  258.49   15.07
   6  -9   7  228.66   20.87
   6  -9   8  287.70   23.49
   9  -6  -8  330.77   16.48
  -9  -6   9   28.82    5.77
   9  -6  -9   29.51    4.99
   6  -9   9   35.48   10.20
  -9  -6  10    9.99    3.86
   9  -6 -10   12.00    3.31
   6  -9  10    6.44    7.04
  -9  -6  11  633.27   24.71
   9  -6 -11  640.87   21.34
   6  -9  11  651.07   37.71
   6  -9  12   13.31    9.35
  -9  -6  12   11.41    4.04
   9  -6 -12   15.41    3.09
  -9  -6  13  435.98   20.42
   6  -9  13  452.67   32.68
   9  -6 -13  476.00   15.57
   6  -9  14   32.90   10.99
   9  -6 -14   52.61    4.19
  -9  -6  14   45.93    6.74
  -9  -6  15  411.81   19.99
   6  -9  15  404.58   32.11
   6  -9  16  128.26   18.43
  -9  -6  16  129.57   11.20
   6  -9  17   71.95   15.31
  -9  -6  17   82.24    9.26
   6  -9  18  323.77   29.95
  -6  -9 -19    4.88    6.83
   6  -9  19   26.47   10.64
  -6  -9 -20  149.70   21.84
   6  -9  20  136.25   21.53
  -6  -9 -21   40.50   12.73
   6  -9  21   44.59   13.69
  -6  -9 -22   51.62   16.22
   6  -9  22   24.88   12.45
  -6  -9 -23   62.24   16.75
   6  -9  23   50.92   15.89
  -6  -9 -24   14.50   11.53
   6  -9  24   -6.79   10.27
  -6  -9 -25  141.46   24.46
   6  -9  25  179.47   25.32
  -6  -9 -26   17.10   11.51
   6  -9  26   34.25   13.12
  -6  -9 -27  153.10   25.86
   6  -9  27  193.72   26.63
  -6  -9 -28   25.33   14.30
   6  -9  28   25.84   11.76
   6  -9  29   38.14   13.94
  -9  -7 -28   99.73   22.72
  -9  -7 -27   52.37   17.31
  -9  -7 -26   -4.88   10.83
   9  -7  24   63.66   17.54
   9  -7  23   34.13   13.02
   9  -7  22  123.74   19.87
   9  -7  21   84.20   17.42
   9  -7  20   -8.10   10.50
  -7  -9  20   14.38    6.87
   9  -7  19  189.09   24.00
  -7  -9  19  194.97   17.95
   9  -7  18   10.19    7.59
  -7  -9  18    4.84    5.04
   9  -7  17  130.37   19.66
  -7  -9  17  132.90   14.52
   9  -7  16   25.70   12.25
   7  -9 -16   44.07    6.58
  -7  -9  16   32.84    7.91
   9  -7  15  124.67   18.43
  -7  -9  15  135.76   14.27
   7  -9 -15  138.86   11.20
   9  -7  14   32.80   10.77
   7  -9 -14   59.05    7.52
  -7  -9  14   41.18    8.12
   9  -7  13  234.14   24.44
  -7  -9  13  276.77   19.33
   7  -9 -13  277.28   15.89
   9  -7  12   16.88    8.64
   7  -9 -12   19.56    4.93
  -7  -9  12   11.77    5.37
   9  -7  11  134.81   18.42
  -7  -9  11  165.71   14.98
   7  -9 -11  182.96   13.30
   9  -7  10  387.14   29.32
   7  -9 -10  398.57   20.11
  -7  -9  10  397.85   22.64
   9  -7   9  235.77   22.44
   7  -9  -9  221.10   14.95
  -7  -9   9  230.71   16.82
   9  -7   8   98.01   14.52
  -7  -9   8   72.52   10.11
   7  -9  -8   87.24    9.27
   9  -7   7  669.57   36.63
   7  -9  -7  649.25   27.40
  -7  -9   7  665.69   29.75
   9  -7   6    0.98    6.61
   7  -9  -6   17.62    6.15
   7  -9  -5  321.00   19.29
   9  -7   5  389.57   26.26
   9  -7   4   94.67   13.33
   7  -9  -4   76.83    9.96
   9  -7   3   97.49   12.60
   7  -9  -3   95.17   11.03
   9  -7   2   91.36   12.56
   7  -9  -2   68.41    9.52
   9  -7   1  550.74   29.18
   7  -9  -1  555.29   27.70
   7  -9   0  319.40   21.36
   9  -7   0  324.53   21.46
   7  -9   1  575.88   29.66
   9  -7  -1  574.52   28.34
   9  -7  -2   56.73    9.04
   7  -9   2   49.11   10.06
   9  -7  -3  100.67   11.19
   7  -9   3   91.47   12.98
   7  -9   4  108.42   14.38
   9  -7  -4   86.44   10.36
   7  -9   5  379.65   26.18
   9  -7  -5  355.67   19.94
   9  -7  -6   14.09    5.38
   7  -9   6    6.77    6.59
   7  -9   7  670.31   36.53
   9  -7  -7  664.65   26.57
   7  -9   8   58.32   12.35
   9  -7  -8   79.97    8.71
   7  -9   9  204.18   21.07
  -9  -7   9  225.60   15.12
   9  -7  -9  218.57   13.76
  -9  -7  10  381.85   20.01
   7  -9  10  342.13   27.30
   9  -7 -10  369.39   17.74
   7  -9  11  152.41   19.12
  -9  -7  11  136.41   12.04
   9  -7 -11  168.72   11.14
   7  -9  12    9.53    8.61
  -9  -7  12   14.57    4.69
   9  -7 -12   15.86    3.83
  -9  -7  13  233.28   15.61
   7  -9  13  258.24   25.39
   9  -7 -13  249.25   12.73
   7  -9  14   42.90   11.45
  -9  -7  14   45.31    7.24
   9  -7 -14   50.35    5.47
   7  -9  15  126.01   19.00
  -9  -7  15  137.45   12.39
   7  -9  16   32.02   10.74
  -9  -7  16   12.10    4.16
   7  -9  17  147.69   20.67
  -9  -7  17  124.13   12.14
   7  -9  18   21.77   11.49
   7  -9  19  160.02   22.63
   7  -9  20   -0.65    8.91
  -7  -9 -21   55.87   14.39
   7  -9  21   55.46   14.95
  -7  -9 -22  138.70   22.11
   7  -9  22  132.81   21.12
  -7  -9 -23   19.33    9.78
   7  -9  23   20.76    9.07
  -7  -9 -24   20.81   12.12
   7  -9  24    9.57    8.33
  -7  -9 -25   62.83   18.37
   7  -9  25   67.83   16.49
  -7  -9 -26    7.70   11.36
   7  -9  26    0.89    9.67
  -7  -9 -27   59.80   17.07
   7  -9  27   27.63   12.88
  -7  -9 -28   51.86   17.18
   7  -9  28   73.98   17.52
   7  -9  29   37.63   13.93
  -9  -8 -27   27.19   15.39
  -9  -8 -26    6.85   11.96
   9  -8  26    0.55   10.76
  -9  -8 -25    3.29    9.94
   9  -8  25    8.55   10.79
   9  -8  24   73.28   17.37
   9  -8  23   -0.72    8.31
   9  -8  22  134.07   22.33
   9  -8  21   94.66   18.35
   9  -8  20  258.27   28.74
   9  -8  19   64.38   15.69
   9  -8  18  148.90   22.95
  -8  -9  18  156.99   15.86
   9  -8  17   73.89   16.18
  -8  -9  17   68.28   10.52
   9  -8  16  129.53   20.02
  -8  -9  16  156.04   15.17
   9  -8  15   11.13    8.96
   8  -9 -15   14.78    4.22
  -8  -9  15   17.64    6.07
   9  -8  14   15.43   10.84
  -8  -9  14   32.88    7.57
   8  -9 -14   26.04    5.31
   9  -8  13    0.88    8.13
  -8  -9  13    5.80    5.04
   8  -9 -13    2.13    3.00
   9  -8  12    4.50    7.56
  -8  -9  12   19.76    6.57
   8  -9 -12   29.57    6.07
   9  -8  11   24.49   10.74
  -8  -9  11   26.44    7.12
   8  -9 -11   25.01    4.83
   9  -8  10  234.95   23.54
  -8  -9  10  273.59   18.93
   8  -9 -10  280.17   16.97
   9  -8   9  482.61   33.30
  -8  -9   9  467.20   24.71
   8  -9  -9  477.17   22.84
   8  -9  -8  190.22   14.50
  -8  -9   8  226.44   17.06
   9  -8   8  211.34   21.67
   9  -8   7  436.77   30.21
   8  -9  -7  419.41   22.02
   9  -8   6  612.77   35.09
   8  -9  -6  635.35   28.01
   9  -8   5  193.83   19.48
   8  -9  -5  163.53   14.64
   9  -8   4  260.77   21.80
   8  -9  -4  253.58   18.11
   9  -8   3    1.74    6.56
   8  -9  -3    2.73    4.73
   9  -8   2  186.31   18.07
   8  -9  -2  194.85   16.56
   8  -9  -1  134.58   14.47
   9  -8   1  108.77   13.56
   8  -9   0   72.37   11.21
   9  -8   0   63.59   10.60
   9  -8  -1  117.91   13.14
   8  -9   1  125.26   14.53
   8  -9   2  197.27   17.95
   9  -8  -2  186.32   15.94
   9  -8  -3   12.61    5.10
   8  -9   3   11.80    5.34
   9  -8  -4  267.19   18.73
   8  -9   4  300.93   23.05
   9  -8  -5  187.43   14.93
   8  -9   5  214.93   20.12
   9  -8  -6  642.52   28.07
   8  -9   6  685.48   37.18
   9  -8  -7  386.68   20.69
   8  -9   7  399.44   28.61
   9  -8  -8  250.74   16.09
   8  -9   8  216.85   22.26
  -9  -8   9  489.79   24.40
   9  -8  -9  501.37   22.89
   8  -9   9  541.84   34.89
  -9  -8  10  259.08   17.24
   8  -9  10  235.28   23.51
   9  -8 -10  243.78   15.07
   8  -9  11   14.53    8.74
  -9  -8  11   24.24    5.81
   9  -8 -11   34.48    6.10
   8  -9  12   17.16   10.55
  -9  -8  12   12.36    5.29
   9  -8 -12   17.82    4.65
   8  -9  13    0.40    8.36
  -9  -8  13    4.59    4.23
   9  -8 -13    8.84    3.69
   8  -9  14   22.25   10.64
  -9  -8  14   18.93    5.50
   9  -8 -14   15.32    4.11
   8  -9  15   14.60    8.33
  -9  -8  15   10.21    4.15
   8  -9  16  176.14   23.74
  -9  -8  16  156.53   14.28
   8  -9  17   43.89   12.04
  -9  -8  17   74.42    9.93
   8  -9  18  190.82   24.41
   8  -9  19   55.15   14.21
   8  -9  20  262.09   29.91
   8  -9  21   99.21   19.52
   8  -9  22  163.66   24.37
  -8  -9 -23    9.74    8.26
   8  -9  23   28.57   12.73
  -8  -9 -24   81.11   19.81
   8  -9  24   52.06   15.27
  -8  -9 -25    3.04   10.72
   8  -9  25    0.50    6.92
  -8  -9 -26   -3.32   10.59
   8  -9  26   -3.01   10.39
  -8  -9 -27    1.22    7.63
   8  -9  27   -9.62    9.39
   8  -9  28   80.23   19.41
   9  -9   0   34.61    8.49
   9  -9   1   31.45    7.96
   9  -9  -1   35.86    8.63
   9  -9   2   70.25   11.32
   9  -9  -2   84.11   11.54
   9  -9  -3   59.25    9.92
   9  -9   3   46.97    9.16
   9  -9   4   92.19   13.98
   9  -9  -4   88.87   11.15
   9  -9  -5 1009.48   38.55
   9  -9   5 1010.75   46.33
   9  -9   6    6.80    7.72
   9  -9  -6    1.26    4.81
   9  -9  -7 1255.63   42.35
   9  -9   7 1286.07   55.04
   9  -9   8   38.04   12.82
  -9  -9   8   25.57    7.00
   9  -9  -8   19.71    6.04
  -9  -9   9  616.24   28.73
   9  -9   9  561.95   37.01
   9  -9  -9  620.70   26.93
   9  -9  10  122.71   17.85
  -9  -9  10  132.83   13.51
   9  -9 -10  128.27   11.93
   9  -9  11    4.91    7.37
  -9  -9  11    5.66    5.02
   9  -9 -11    5.33    3.48
   9  -9  12    9.75   10.51
  -9  -9  12    6.53    5.31
   9  -9 -12   12.89    4.55
   9  -9  13   96.48   17.15
  -9  -9  13  109.91   12.25
   9  -9 -13  115.78   10.54
   9  -9  14    5.40    7.98
  -9  -9  14   -1.12    4.29
   9  -9 -14    6.15    3.48
   9  -9  15    1.15    9.84
  -9  -9  15   14.90    5.67
   9  -9  16   11.35   10.97
  -9  -9  16   13.94    5.62
   9  -9  17  101.23   18.69
  -9  -9  17  106.06   12.55
   9  -9  18   13.37    9.69
   9  -9  19  240.41   28.81
   9  -9  20    1.28   10.41
   9  -9  21  484.75   40.51
   9  -9  22   -7.05    9.86
   9  -9  23   -7.72   10.18
   9  -9  24    4.72    9.11
  -9  -9 -24   13.04   13.54
   9  -9  25    3.24   10.21
  -9  -9 -25   -6.67   12.51
   9  -9  26   20.00   12.67
  -9  -9 -26    4.81    9.83
   9  -9  27   11.21    8.69
   0 -10   0  473.60   24.14
   0 -10   1  322.64   20.42
   0 -10  -1  337.44   20.27
 -10   0   2  746.30   28.56
   0 -10   2  723.66   31.28
   0 -10  -2  744.70   31.06
   0 -10  -2  770.14   31.47
 -10   0   3   44.49    6.49
   0 -10   3   77.91   10.48
   0 -10  -3   67.32    9.46
 -10   0   4   59.84    6.97
   0 -10   4   33.28    8.25
   0 -10  -4   50.61    8.93
 -10   0   5   21.06    4.27
   0 -10   5   22.57    6.28
   0 -10  -5   18.60    6.82
 -10   0   6  485.20   18.63
   0 -10  -6  485.65   28.00
   0 -10   6  470.47   25.94
   0 -10  -7   64.59   11.78
   0 -10   7   78.13   11.39
 -10   0   7   60.67    6.04
   0 -10  -8  950.88   42.52
   0 -10   8  990.02   40.00
 -10   0   8  912.14   24.44
   0 -10  -9  697.42   36.69
   0 -10   9  643.24   32.36
 -10   0   9  645.02   16.71
   0 -10 -10 1043.01   47.12
   0 -10  10  992.16   42.14
   0 -10 -11  820.90   42.32
   0 -10  11  788.25   37.61
   0 -10 -12  452.24   32.00
   0 -10  12  434.15   28.12
   0 -10 -13   33.74   12.01
   0 -10  13   19.54    8.97
   0 -10 -14  956.23   49.83
   0 -10  14  977.78   44.72
   0 -10 -15  198.31   23.09
   0 -10  15  243.82   22.52
   0 -10 -16   47.66   12.74
   0 -10  16   37.13   10.73
   0 -10 -17   63.11   15.06
   0 -10  17   77.13   13.88
   0 -10 -18   17.08    9.94
   0 -10  18   14.37    8.01
   0 -10 -19  202.44   26.00
   0 -10  19  178.14   20.97
   0 -10 -20   62.45   15.86
   0 -10  20   81.50   15.42
   0 -10 -21  134.28   23.05
   0 -10  21  119.62   17.88
   0 -10 -22  160.05   24.34
   0 -10  22  129.62   19.35
   0 -10 -23  118.78   22.41
   0 -10  23  107.66   18.20
   0 -10 -24   68.11   18.17
   0 -10  24   67.35   14.85
   0 -10 -25   33.14   15.69
   0 -10  25   10.84    9.17
   0 -10 -26  277.99   34.65
   0 -10  26  249.22   27.61
   0 -10 -27    0.47   11.45
   0 -10  27    3.99    7.61
   0 -10 -28   81.52   22.63
   0 -10  28   78.14   17.00
   0 -10 -29  145.15   27.34
 -10   0 -31   10.67   11.03
   1 -10 -29   56.68   19.05
   1 -10 -28  136.88   25.51
   1 -10 -27   13.97   12.38
  -1 -10  27   17.08    9.42
   1 -10 -26   87.26   22.54
  -1 -10  26   77.78   15.58
   1 -10 -25   58.70   19.37
  -1 -10  25   41.33   11.85
   1 -10 -24  133.86   24.44
  -1 -10  24  118.30   18.86
   1 -10 -23   21.47   12.26
  -1 -10  23   10.14    7.41
   1 -10 -22  129.79   23.25
  -1 -10  22  100.05   17.24
   1 -10 -21  173.52   25.15
  -1 -10  21  118.97   17.22
   1 -10 -20   56.48   14.78
  -1 -10  20   41.32   11.34
   1 -10 -19  211.16   26.44
  -1 -10  19  208.80   21.82
   1 -10 -18   78.16   17.38
  -1 -10  18   57.14   11.83
   1 -10 -17   79.71   15.78
  -1 -10  17  131.56   16.93
   1 -10 -16  164.06   22.19
  -1 -10  16  179.06   19.05
   1 -10 -15  192.35   23.16
  -1 -10  15  208.30   20.16
   1 -10 -14  471.34   34.84
  -1 -10  14  504.93   30.77
   1 -10 -13  135.27   18.79
  -1 -10  13  112.60   14.65
   1 -10 -12  563.28   36.22
  -1 -10  12  570.08   31.20
   1 -10 -11   79.15   14.35
  -1 -10  11   80.88   11.83
   1 -10 -10  381.51   28.07
  -1 -10  10  347.70   23.40
   1 -10  -9  815.67   40.73
  -1 -10   9  808.32   36.00
 -10   1   9  784.87   17.38
   1 -10  -8  126.75   15.82
  -1 -10   8  143.39   14.47
 -10   1   8  134.41    7.07
   1 -10  -7  459.22   28.46
  -1 -10   7  456.49   25.37
 -10   1   7  462.99   16.13
   1 -10  -6   83.96   12.06
  -1 -10   6   93.19   11.70
 -10   1   6   68.47    6.65
 -10   1   5   13.16    3.35
   1 -10  -5    0.97    4.98
  -1 -10   5    4.90    5.39
  -1  10  -4  332.38   13.96
   1 -10  -4  364.30   21.47
  -1 -10   4  325.82   21.11
 -10   1   4  361.75   17.29
  -1  10  -3  864.10   26.02
   1 -10  -3  822.98   32.93
  -1 -10   3  936.90   35.69
 -10   1   3  869.09   30.21
 -10   1   2  800.93   29.93
   1 -10  -2  878.79   34.07
  -1 -10   2  870.66   34.60
  -1  10  -2  871.85   27.49
   1 -10  -1   56.77    9.75
  -1 -10   1   67.89    9.86
  -1  10  -1   91.89    8.71
  -1 -10   1   79.58    8.32
  -1 -10   0  477.53   24.66
   1 -10   0  464.08   24.31
  -1  10   0  485.87   22.18
  -1 -10   0  540.56   22.81
   1 -10   1  115.99   12.51
  -1 -10  -1   87.76    9.67
   1 -10   2  819.55   33.67
  -1 -10  -2  866.00   32.75
 -10  -1   3  864.22   29.76
   1 -10   3  874.13   35.29
  -1 -10  -3  895.12   34.71
 -10  -1   4  380.66   17.95
   1 -10   4  401.95   23.35
  -1 -10  -4  380.34   22.51
 -10  -1   5    8.05    2.84
  -1 -10  -5    6.49    4.60
   1 -10   5    7.50    5.28
  -1 -10  -6  110.99   13.35
 -10  -1   6   85.40    7.52
   1 -10   6   72.74   10.75
 -10  -1   7  448.71   17.24
  -1 -10  -7  440.89   26.96
   1 -10   7  418.37   25.09
  -1 -10  -8  139.86   16.03
 -10  -1   8  133.80    8.49
   1 -10   8  123.34   14.43
 -10  -1   9  785.82   21.86
  -1 -10  -9  834.38   40.35
   1 -10   9  835.35   37.75
  -1 -10 -10  373.92   27.84
   1 -10  10  386.17   25.54
 -10  -1  10  366.83   11.71
  -1 -10 -11   77.91   13.79
   1 -10  11   84.23   13.22
  -1 -10 -12  595.97   36.41
   1 -10  12  554.47   32.54
  -1 -10 -13  134.44   17.96
   1 -10  13  107.74   15.09
  -1 -10 -14  487.50   34.86
   1 -10  14  473.65   31.38
  -1 -10 -15  171.68   21.56
   1 -10  15  204.57   20.90
  -1 -10 -16  213.79   24.40
   1 -10  16  207.87   21.58
  -1 -10 -17  104.28   18.51
   1 -10  17   98.00   15.67
  -1 -10 -18   92.63   17.42
   1 -10  18   70.58   14.72
  -1 -10 -19  161.86   22.65
   1 -10  19  183.98   21.58
  -1 -10 -20   68.00   17.09
   1 -10  20   77.29   14.91
  -1 -10 -21  211.11   26.75
   1 -10  21  164.17   21.40
  -1 -10 -22  148.73   23.04
   1 -10  22  138.91   20.59
  -1 -10 -23   14.56   12.97
   1 -10  23   21.62    9.92
  -1 -10 -24  180.02   26.29
   1 -10  24  145.38   21.34
  -1 -10 -25  101.77   22.08
   1 -10  25   67.58   14.70
  -1 -10 -26  116.21   23.48
   1 -10  26  112.45   19.59
  -1 -10 -27   41.40   15.96
   1 -10  27    8.65    8.22
  -1 -10 -28   93.47   22.23
   1 -10  28   81.12   17.12
  -1 -10 -29   37.17   17.62
   1 -10  29   52.37   14.24
 -10   1 -31   41.23   15.39
 -10  -2 -30   15.94   13.15
  -2 -10  26    5.04    7.37
  -2 -10  25   26.14    8.47
   2 -10 -24   31.24   13.86
  -2 -10  24   31.59    9.51
   2 -10 -23  107.93   23.03
  -2 -10  23   96.56   16.54
   2 -10 -22   57.12   15.34
  -2 -10  22   41.80   11.57
   2 -10 -21   51.02   16.60
  -2 -10  21   59.75   12.68
   2 -10 -20  574.64   45.00
  -2 -10  20  566.26   36.40
   2 -10 -19    3.53    8.50
  -2 -10  19   10.91    8.70
   2 -10 -18   16.02   10.87
  -2 -10  18   26.23    9.31
   2 -10 -17  498.48   38.22
  -2 -10  17  460.86   30.73
   2 -10 -16  196.91   24.21
  -2 -10  16  170.50   18.48
  -2  10 -15  444.33   16.44
   2 -10 -15  523.27   37.86
  -2 -10  15  481.66   29.76
  -2  10 -14   47.73    4.65
   2 -10 -14   57.67   13.96
  -2 -10  14   46.29   10.50
  -2  10 -13   53.68    4.60
   2 -10 -13   42.30   12.92
  -2 -10  13   30.91    8.46
  -2  10 -12    1.65    1.88
   2 -10 -12   16.57    7.13
  -2 -10  12   31.06    8.18
   2 -10 -11  401.38   31.29
  -2 -10  11  429.59   25.95
   2 -10 -10   45.23   10.52
  -2 -10  10   58.59    9.99
 -10   2   9  180.94    6.68
  -2 -10   9  171.33   15.74
   2 -10  -9  164.00   17.91
  -2 -10   8  742.36   31.94
 -10   2   8  797.27   17.84
  -2  10  -7    8.66    2.43
  -2 -10   7   11.19    5.74
 -10   2   7    7.69    2.13
  -2  10  -6   49.01    5.16
  -2 -10   6   47.46    8.18
   2 -10  -6   61.96    9.33
 -10   2   6   51.31    5.36
  -2  10  -5  445.07   17.28
  -2 -10   5  451.84   24.18
   2 -10  -5  434.56   22.83
 -10   2   5  407.27   17.35
  -2  10  -4 1210.23   33.45
   2 -10  -4 1212.21   41.08
  -2 -10   4 1256.71   43.00
 -10   2   4 1207.14   35.05
  -2  10  -3  769.41   26.36
  -2 -10   3  763.68   23.30
  -2 -10   3  811.16   33.04
   2 -10  -3  757.23   31.56
 -10   2   3  781.30   27.98
  -2 -10   2   57.30    6.61
  -2  10  -2   48.90    6.49
  -2 -10   2   53.71    8.66
   2 -10  -2   68.87    9.49
  -2 -10   1  157.92   11.31
  -2  10  -1  139.37   11.31
   2 -10  -1  165.53   14.07
  -2 -10   1  149.45   13.95
  -2 -10   0  153.56   11.73
  -2  10   0  148.44   12.50
   2 -10   0  195.77   15.43
  -2 -10  -1  148.20   12.01
   2 -10   1  148.79   14.01
  -2 -10  -2   68.14    9.14
   2 -10   2   64.55    9.99
  -2 -10  -3  826.23   32.83
   2 -10   3  804.99   34.27
  -2 -10  -4 1246.82   43.41
   2 -10   4 1296.80   45.34
  -2 -10  -5  435.44   24.91
   2 -10   5  420.16   25.23
  -2 -10  -6   65.03   11.34
   2 -10   6   54.74   10.29
  -2 -10  -7   -0.90    5.51
   2 -10   7    0.65    5.45
  -2 -10  -8  841.43   38.90
   2 -10   8  810.44   37.53
  -2 -10  -9  204.36   19.40
   2 -10   9  185.78   18.28
  -2 -10 -10   36.07    9.22
   2 -10  10   59.04   11.17
  -2 -10 -11  394.42   28.64
 -10  -2  11  405.98   12.48
   2 -10  11  424.22   28.13
  -2 -10 -12   41.22   11.50
 -10  -2  12   33.23    2.88
   2 -10  12   42.50    9.94
 -10  -2  12   30.18    2.70
  -2 -10 -13   48.32   11.93
   2 -10  13   69.42   13.02
  -2 -10 -14   40.19   11.94
   2 -10  14   33.68   10.86
  -2 -10 -15  490.83   35.24
   2 -10  15  418.51   30.74
  -2 -10 -16  157.11   21.20
   2 -10  16  154.43   19.35
  -2 -10 -17  454.10   35.58
   2 -10  17  444.18   33.18
  -2 -10 -18   35.44   13.30
   2 -10  18   27.10    9.69
  -2 -10 -19    3.09    9.81
   2 -10  19   -0.86    7.58
  -2 -10 -20  521.05   41.08
   2 -10  20  606.94   40.56
  -2 -10 -21   51.49   15.13
   2 -10  21   64.38   15.28
  -2 -10 -22   37.23   13.71
   2 -10  22   44.85   12.98
  -2 -10 -23   77.16   18.66
   2 -10  23   57.25   14.62
  -2 -10 -24   28.72   12.30
   2 -10  24   39.89   13.62
  -2 -10 -25   32.15   12.91
   2 -10  25   24.69   11.98
  -2 -10 -26   -0.85   10.65
   2 -10  26   10.69    8.67
  -2 -10 -27   36.37   16.41
   2 -10  27   45.95   12.90
  -2 -10 -28   32.45   15.37
   2 -10  28    9.68    8.56
  -2 -10 -29   49.84   17.61
   2 -10  29   97.67   18.81
   2 -10  30    0.72    6.68
 -10   2 -31   40.16   16.74
 -10   2 -32  119.57   25.08
  -3 -10  25    6.11    6.61
  -3 -10  24    6.62    6.29
  -3 -10  23   18.35    8.23
  -3 -10  22  389.74   31.04
  -3 -10  21  118.66   17.37
  -3 -10  20  205.23   21.69
  -3 -10  19  171.93   19.07
  -3 -10  18   96.44   14.70
  -3 -10  17  193.44   19.29
  -3  10 -16   93.34    8.89
  -3 -10  16  228.35   20.40
  -3 -10  15  217.48   19.85
  -3 -10  14  178.39   17.61
  -3 -10  13  288.64   21.84
  -3 -10  12  109.18   13.53
  -3 -10  11    7.13    5.40
  10  -3  10  333.33   25.13
  -3 -10  10  310.38   21.61
  10  -3   9  111.37   14.95
 -10   3   9  100.85    5.60
  -3 -10   9  102.62   12.50
   3 -10  -9  118.86   11.77
  10  -3   8  368.62   25.38
 -10   3   8  321.55   12.11
  -3 -10   8  328.78   21.10
   3 -10  -8  335.80   19.75
  10  -3   7   31.52    9.03
  -3 -10   7   36.31    7.93
   3 -10  -7   25.82    6.81
 -10   3   7   35.12    4.28
  10  -3   6  681.50   33.21
 -10   3   6  655.47   21.72
   3 -10  -6  681.33   28.87
  -3 -10   6  658.46   30.14
  10  -3   5  107.03   13.02
  -3 -10   5   78.33    5.16
   3 -10  -5   95.71   11.20
  -3 -10   5   82.41   10.71
 -10   3   5   85.13    7.74
  10  -3   4  244.38   18.96
  -3  10  -4  245.82   14.75
  -3 -10   4  217.16   10.49
   3 -10  -4  220.88   16.06
  -3 -10   4  240.06   18.06
 -10   3   4  243.66   13.77
  10  -3   3  121.14   13.26
  -3 -10   3  109.34    8.17
  -3  10  -3  120.46   10.79
  -3 -10   3  127.52   12.44
   3 -10  -3  138.98   13.14
 -10   3   3  126.91   10.52
  10  -3   2  230.74   17.66
  -3 -10   2  202.86   16.86
   3 -10  -2  242.77   17.04
  -3  10  -2  272.61   16.46
  -3 -10   2  224.24   13.16
  10  -3   1  115.83   12.17
   3 -10  -1   90.32   11.22
  -3 -10   1  113.40    9.66
  -3  10  -1  110.72   10.95
  10  -3   0   79.94    9.65
   3 -10   0   70.44   10.17
  -3 -10   0   62.95    7.72
  10  -3  -1  126.84   11.42
   3 -10   1  125.08   13.22
  -3 -10  -1  101.27   10.14
  10  -3  -2  259.89   16.22
  -3 -10  -2  267.93   17.20
   3 -10   2  242.38   18.54
  -3 -10  -3  143.10   13.30
   3 -10   3  150.14   15.00
  -3 -10  -4  222.04   17.01
   3 -10   4  232.04   18.46
  -3 -10  -5   74.65   10.89
   3 -10   5   96.60   12.42
  -3 -10  -6  670.39   32.53
   3 -10   6  713.68   34.04
  -3 -10  -7   37.62    8.81
   3 -10   7   21.99    7.82
  -3 -10  -8  359.70   25.01
   3 -10   8  349.10   24.67
  -3 -10  -9  117.76   15.28
   3 -10   9   90.18   13.03
  -3 -10 -10  296.68   23.95
 -10  -3  10  296.60   12.93
   3 -10  10  281.37   23.27
  -3 -10 -11    3.98    7.00
 -10  -3  11    9.41    2.75
   3 -10  11    2.15    6.34
  -3 -10 -12  105.37   15.38
 -10  -3  12   93.57    6.44
   3 -10  12  119.52   16.21
  -3 -10 -13  312.30   26.80
 -10  -3  13  301.70   11.46
   3 -10  13  302.40   26.10
  -3 -10 -14  162.36   20.68
 -10  -3  14  166.44    7.71
   3 -10  14  126.84   17.37
  -3 -10 -15  185.46   21.72
   3 -10  15  195.37   21.50
  -3 -10 -16  174.95   21.88
   3 -10  16  166.10   20.49
  -3 -10 -17  210.51   24.72
   3 -10  17  141.19   19.17
  -3 -10 -18   96.72   18.10
   3 -10  18   71.37   15.55
  -3 -10 -19  129.04   20.40
   3 -10  19  130.60   20.01
  -3 -10 -20  287.05   30.02
   3 -10  20  242.12   26.53
  -3 -10 -21  126.42   21.07
   3 -10  21   73.08   15.07
  -3 -10 -22  357.99   35.56
   3 -10  22  372.13   32.80
  -3 -10 -23   19.31   12.70
   3 -10  23    7.47    7.59
  -3 -10 -24   31.81   14.97
   3 -10  24   10.68    8.38
  -3 -10 -25    2.91   10.05
   3 -10  25   21.58   11.74
  -3 -10 -26   -0.70   12.42
   3 -10  26   -4.23   10.35
  -3 -10 -27   42.50   15.39
   3 -10  27    0.34    7.67
  -3 -10 -28   47.91   16.37
   3 -10  28   52.73   14.38
   3 -10  29   11.31    7.75
   3 -10  30   32.26   12.87
 -10   3 -31   29.98   14.79
   3 -10  31   13.52   10.07
 -10  -4 -29   76.65   21.84
  -4 -10  24   31.60   10.30
  -4 -10  23  261.21   24.92
  -4 -10  22  139.58   18.17
  -4 -10  21   77.63   13.98
  -4 -10  20   -4.08    7.33
  -4 -10  19   25.86    8.74
  -4 -10  18  287.80   23.93
  -4 -10  17  323.47   24.74
  -4 -10  16   70.84   11.59
  10  -4  15   99.08   16.58
  -4 -10  15   74.30   11.83
  10  -4  14   37.48   12.12
  -4 -10  14   22.54    7.71
  10  -4  13   48.79   11.51
   4 -10 -13   32.58    6.73
  -4 -10  13   32.99    8.08
  10  -4  12   81.29   14.07
   4 -10 -12   74.04    9.18
  -4 -10  12   79.37   11.71
  10  -4  11  559.95   34.46
  -4 -10  11  575.93   29.60
   4 -10 -11  580.11   26.20
  10  -4  10   74.44   13.72
  -4 -10  10   74.18   11.00
   4 -10 -10   74.83    9.47
  10  -4   9  361.94   26.28
   4 -10  -9  356.02   20.52
  -4 -10   9  387.63   23.14
  10  -4   8   35.46    9.66
  -4 -10   8   43.43    9.08
   4 -10  -8   42.06    8.02
 -10   4   8   49.69    5.04
  10  -4   7  145.25   16.51
 -10   4   7  123.45    8.26
  -4 -10   7  130.18   13.19
   4 -10  -7  148.39   13.11
  10  -4   6  800.46   37.42
  -4 -10   6  725.35   32.04
 -10   4   6  740.00   23.96
   4 -10  -6  792.22   31.01
  10  -4   5  253.12   20.27
  -4 -10   5  229.24   17.67
   4 -10  -5  239.24   16.54
 -10   4   5  235.12   13.16
  10  -4   4   94.45   12.78
   4 -10  -4   88.03   10.42
  -4 -10   4   77.50   10.40
 -10   4   4   99.40    8.66
  10  -4   3  947.11   39.39
   4 -10  -3 1055.51   37.64
  10  -4   2  143.95   14.43
   4 -10  -2  150.70   13.75
  10  -4   1  172.20   15.19
   4 -10  -1  147.95   13.99
  10  -4   0   37.51    7.19
   4 -10   0   31.75    7.53
  10  -4  -1  152.23   13.33
   4 -10   1  131.30   13.56
  10  -4  -2  130.71   12.11
   4 -10   2  127.79   13.80
  10  -4  -3  927.17   32.81
   4 -10   3  907.31   37.92
  10  -4  -4   94.48    9.38
   4 -10   4   93.50   12.30
  10  -4  -5  244.79   14.51
   4 -10   5  255.05   20.31
  10  -4  -6  751.62   25.83
   4 -10   6  736.69   35.38
  10  -4  -7  131.08    9.47
   4 -10   7  152.21   16.73
   4 -10   8   37.94    9.96
   4 -10   9  428.80   28.63
  -4 -10 -10   52.53   11.44
 -10  -4  10   79.95    7.35
   4 -10  10   63.71   12.57
  -4 -10 -11  520.45   33.43
 -10  -4  11  549.86   19.72
   4 -10  11  528.11   33.08
  -4 -10 -12   47.86   11.82
 -10  -4  12   81.22    7.03
   4 -10  12   84.38   14.35
  -4 -10 -13   27.11    9.63
 -10  -4  13   32.45    4.66
   4 -10  13   13.38    7.75
  -4 -10 -14   18.74    8.96
   4 -10  14   27.55   10.50
 -10  -4  14   28.45    4.34
  -4 -10 -15  109.98   17.24
   4 -10  15  142.55   19.48
  -4 -10 -16   62.23   14.59
   4 -10  16   50.94   12.66
  -4 -10 -17  295.80   28.77
   4 -10  17  333.92   29.56
  -4 -10 -18  290.35   29.05
   4 -10  18  274.74   27.67
  -4 -10 -19   15.12   10.80
   4 -10  19   16.40   10.18
  -4 -10 -20    6.34    9.94
   4 -10  20    6.05    9.69
  -4 -10 -21   64.34   16.15
   4 -10  21   64.93   15.26
  -4 -10 -22  179.81   25.30
   4 -10  22  170.32   23.61
  -4 -10 -23  233.51   29.24
   4 -10  23  259.26   29.23
  -4 -10 -24   39.45   13.21
   4 -10  24   53.48   14.67
  -4 -10 -25   17.54   11.36
   4 -10  25   10.29   11.21
  -4 -10 -26   15.57   12.49
   4 -10  26   24.65   11.32
  -4 -10 -27    5.25    9.86
   4 -10  27   38.13   13.89
  -4 -10 -28   26.26   14.27
   4 -10  28   -9.23    8.67
   4 -10  29   51.93   14.47
   4 -10  30   93.74   20.55
   4 -10  31    3.65    7.55
  -5 -10  22   71.09   12.72
  -5 -10  21   23.11    8.49
  -5 -10  20    7.55    6.14
  -5 -10  19   63.36   11.39
  10  -5  18   39.09   12.38
   5 -10 -18   37.39    7.08
  -5 -10  18   39.27    9.66
  10  -5  17  314.54   29.04
   5 -10 -17  253.03   17.76
  -5 -10  17  320.79   24.12
  10  -5  16  184.80   22.47
   5 -10 -16  170.86   13.88
  -5 -10  16  177.35   18.21
  10  -5  15   38.64   12.52
   5 -10 -15   18.04    5.64
  -5 -10  15   10.87    6.32
  10  -5  14  243.83   24.53
   5 -10 -14  219.12   15.85
  -5 -10  14  234.29   19.60
  10  -5  13  215.64   22.63
  -5 -10  13  214.93   18.38
   5 -10 -13  181.40   14.38
  10  -5  12  196.72   21.72
  -5 -10  12  196.98   17.42
   5 -10 -12  245.16   16.77
  10  -5  11  159.84   19.36
  -5 -10  11  179.64   16.18
   5 -10 -11  162.33   13.71
  10  -5  10  263.59   23.62
  -5 -10  10  310.65   20.79
   5 -10 -10  265.55   17.29
  10  -5   9  188.76   19.97
  -5 -10   9  185.17   16.02
   5 -10  -9  169.08   13.86
  10  -5   8   79.41   13.47
   5 -10  -8   88.19   10.08
  -5 -10   8   83.29   11.07
 -10   5   8  105.01    7.64
  10  -5   7  130.72   16.25
   5 -10  -7  117.83   11.84
 -10   5   7  130.02    9.14
  -5 -10   7  140.15   13.97
  10  -5   6   53.92   11.04
  -5 -10   6   53.46    9.43
   5 -10  -6   56.30    8.60
 -10   5   6   53.16    6.15
  10  -5   5  528.26   30.38
  -5 -10   5  465.58   24.95
 -10   5   5  479.00   19.87
   5 -10  -5  444.51   23.61
  10  -5   4  380.39   25.28
   5 -10  -4  331.46   19.98
  10  -5   3    4.67    5.59
   5 -10  -3   10.65    5.32
  10  -5   2  250.26   19.84
   5 -10  -2  246.85   17.94
  10  -5   1  341.14   22.06
   5 -10  -1  296.18   20.03
  10  -5   0   -0.42    4.89
   5 -10   0    0.29    4.68
  10  -5  -1  334.30   20.62
   5 -10   1  276.34   20.28
  10  -5  -2  258.66   17.67
   5 -10   2  241.04   19.27
  10  -5  -3   19.86    5.72
   5 -10   3   11.61    5.71
  10  -5  -4  321.23   18.50
   5 -10   4  305.36   22.38
  10  -5  -5  488.50   22.49
   5 -10   5  503.11   29.41
  10  -5  -6   79.09    8.38
   5 -10   6   66.31   11.63
  10  -5  -7  141.22   10.71
   5 -10   7  135.69   16.10
  10  -5  -8  132.69    9.84
   5 -10   8  115.36   15.03
  10  -5  -9  184.04   10.76
   5 -10   9  154.42   17.63
  10  -5 -10  270.42   11.85
 -10  -5  10  249.11   13.94
   5 -10  10  237.51   22.62
  10  -5 -11  185.42    8.25
 -10  -5  11  174.23   11.59
   5 -10  11  150.46   18.79
 -10  -5  12  180.58   11.70
   5 -10  12  179.59   20.12
 -10  -5  13  192.52   11.94
   5 -10  13  175.49   20.84
   5 -10  14  209.42   22.89
  -5 -10 -14  243.75   25.42
 -10  -5  14  212.68   12.60
  -5 -10 -15   23.86   10.52
   5 -10  15   12.02    7.56
 -10  -5  15   15.91    3.90
  -5 -10 -16  181.23   22.40
   5 -10  16  158.72   20.76
  -5 -10 -17  292.84   29.13
   5 -10  17  239.91   26.64
  -5 -10 -18   45.01   14.12
   5 -10  18   41.41   12.22
  -5 -10 -19   83.66   17.54
   5 -10  19   59.79   15.34
  -5 -10 -20   25.79   12.48
   5 -10  20   14.36    9.66
  -5 -10 -21   27.73   12.68
   5 -10  21   33.47   12.80
  -5 -10 -22   53.04   15.77
   5 -10  22   47.61   12.91
  -5 -10 -23  100.00   20.16
   5 -10  23   98.83   19.39
  -5 -10 -24  269.59   32.55
   5 -10  24  243.22   29.34
  -5 -10 -25   16.18   12.19
   5 -10  25    1.99    8.24
  -5 -10 -26   39.17   15.26
   5 -10  26   37.81   14.38
  -5 -10 -27   -1.94   10.80
   5 -10  27   15.02   10.69
  -5 -10 -28  116.79   24.95
   5 -10  28  123.22   21.31
   5 -10  29   94.29   19.65
   5 -10  30   28.06   12.74
   5 -10  31    8.22    8.72
 -10  -6 -28  137.64   26.39
  10  -6  21   91.31   17.40
  -6 -10  21   97.84   14.74
  10  -6  20   50.62   14.34
  -6 -10  20   36.71    9.51
  10  -6  19   -0.26    8.65
  -6 -10  19   17.50    7.27
  10  -6  18  262.93   28.01
   6 -10 -18  249.02   16.64
  -6 -10  18  194.29   19.11
  10  -6  17   84.54   16.75
   6 -10 -17   94.90   10.19
  -6 -10  17  101.77   13.70
  10  -6  16  107.34   17.08
   6 -10 -16   95.05   10.48
  -6 -10  16   75.68   12.13
  10  -6  15  250.99   26.04
   6 -10 -15  251.93   16.51
  -6 -10  15  263.10   20.53
  10  -6  14  310.52   28.06
  -6 -10  14  409.51   25.39
   6 -10 -14  389.04   20.71
  10  -6  13  130.94   19.16
   6 -10 -13  128.86   11.70
  -6 -10  13  128.46   14.01
  10  -6  12  890.77   46.87
   6 -10 -12  814.73   31.27
  -6 -10  12  786.48   35.41
  10  -6  11  220.29   23.33
   6 -10 -11  266.23   17.12
  -6 -10  11  230.00   18.21
  -6 -10  11  244.71   11.71
  10  -6  10   48.79   10.99
  -6 -10  10   40.01    8.27
   6 -10 -10   43.97    7.35
  10  -6   9  275.07   24.30
  -6 -10   9  266.33   18.96
   6 -10  -9  305.48   18.40
  10  -6   8    8.47    7.68
  -6 -10   8   14.42    6.13
   6 -10  -8   13.70    4.60
  10  -6   7  -11.12    9.54
  -6 -10   7    2.22    4.86
 -10   6   7    2.93    2.70
   6 -10  -7    2.83    4.83
  10  -6   6  503.59   31.68
   6 -10  -6  492.70   24.54
  -6 -10   6  492.23   26.14
  10  -6   5  189.26   19.26
   6 -10  -5  170.79   14.76
  10  -6   4   76.80   12.34
   6 -10  -4   77.11   10.50
  10  -6   3  257.40   20.58
   6 -10  -3  240.77   17.93
  10  -6   2  163.00   16.06
   6 -10  -2  150.79   14.60
  10  -6   1   18.35    7.19
   6 -10  -1    7.70    4.97
  10  -6   0 1001.18   39.63
   6 -10   0  936.33   38.31
  10  -6  -1   16.85    6.09
   6 -10   1   12.99    6.35
  10  -6  -2  146.04   13.63
   6 -10   2  146.04   15.46
  10  -6  -3  252.16   17.68
   6 -10   3  319.51   23.15
  10  -6  -4   66.41    9.67
   6 -10   4   65.01   11.38
  10  -6  -5  175.03   13.78
   6 -10   5  157.61   16.61
   6 -10   6  496.48   30.36
  10  -6  -6  515.07   23.54
  10  -6  -7    1.68    3.19
   6 -10   7   -5.96    7.86
  10  -6  -8    4.33    3.14
   6 -10   8    0.47    6.93
  10  -6  -9  267.16   14.87
   6 -10   9  289.57   24.75
  10  -6 -10   36.94    5.52
 -10  -6  10   43.32    6.73
   6 -10  10   43.76   11.83
  10  -6 -11  233.92   12.16
 -10  -6  11  240.30   14.85
   6 -10  11  225.50   23.59
  10  -6 -12  859.62   23.74
 -10  -6  12  813.21   29.11
   6 -10  12  860.66   45.93
   6 -10  13  112.65   17.34
 -10  -6  13  121.04   10.45
 -10  -6  14  366.17   18.68
   6 -10  14  404.80   32.38
   6 -10  15  248.63   26.40
 -10  -6  15  301.37   16.66
   6 -10  16  136.65   19.04
  -6 -10 -17  102.43   18.28
   6 -10  17   82.74   17.71
  -6 -10 -18  213.78   25.15
   6 -10  18  223.05   25.37
  -6 -10 -19    3.34    8.60
   6 -10  19   12.57    9.14
  -6 -10 -20   42.65   12.66
   6 -10  20   12.53   10.20
  -6 -10 -21   84.79   18.42
   6 -10  21   77.22   16.31
  -6 -10 -22   52.83   14.93
   6 -10  22   41.74   14.67
  -6 -10 -23   92.86   19.21
   6 -10  23   89.83   19.11
  -6 -10 -24  155.55   24.71
   6 -10  24  151.89   23.83
  -6 -10 -25   -1.37    9.81
   6 -10  25    5.19    9.14
  -6 -10 -26  120.61   23.30
   6 -10  26  102.69   20.11
  -6 -10 -27    7.62   10.71
   6 -10  27   13.13   10.44
   6 -10  28  141.40   23.38
   6 -10  29   32.38   14.14
   6 -10  30   15.33   10.93
 -10  -7 -27   30.72   13.82
  10  -7  23  142.93   22.56
  10  -7  22   98.27   19.03
  10  -7  21   20.56   11.87
  10  -7  20  123.64   19.84
  -7 -10  20  141.31   16.59
  10  -7  19   79.47   16.94
  -7 -10  19   80.68   12.64
  10  -7  18   65.57   14.37
  -7 -10  18   82.59   12.51
  10  -7  17   37.99   12.67
  -7 -10  17   72.82   11.49
  10  -7  16  190.05   23.69
   7 -10 -16  223.17   15.20
  -7 -10  16  245.08   20.22
  10  -7  15   56.66   14.74
   7 -10 -15   50.81    7.60
  -7 -10  15   37.98    8.72
  10  -7  14  379.32   32.85
   7 -10 -14  446.87   21.85
  -7 -10  14  407.86   25.41
  10  -7  13   68.64   15.14
  -7 -10  13   58.88   10.10
   7 -10 -13   67.89    8.81
  10  -7  12  290.89   27.52
  -7 -10  12  301.75   21.07
   7 -10 -12  279.58   17.53
  10  -7  11  627.44   39.71
  -7 -10  11  578.12   29.58
   7 -10 -11  667.37   27.73
  10  -7  10  368.25   29.59
   7 -10 -10  338.21   19.43
  -7 -10  10  338.12   22.10
  10  -7   9   87.48   15.56
   7 -10  -9   84.96   10.20
  -7 -10   9   76.33   10.64
  10  -7   8  400.76   29.37
   7 -10  -8  349.71   20.61
  -7 -10   8  358.23   22.43
  10  -7   7  331.80   26.83
   7 -10  -7  396.82   22.17
  -7 -10   7  358.35   22.70
  10  -7   6    4.06    6.60
  -7 -10   6   11.14    5.65
   7 -10  -6   16.79    5.85
  10  -7   5  329.99   25.26
   7 -10  -5  378.90   21.97
  10  -7   4  371.73   26.41
   7 -10  -4  367.25   22.15
  10  -7   3  214.45   19.90
   7 -10  -3  222.18   17.46
  10  -7   2  216.32   19.70
   7 -10  -2  218.94   17.44
  10  -7   1   84.79   12.40
   7 -10  -1   67.79   10.61
  10  -7   0  509.51   28.53
   7 -10   0  546.39   29.26
  10  -7  -1   78.54   11.02
   7 -10   1   64.11   10.84
   7 -10   2  242.65   20.42
  10  -7  -2  241.13   18.65
   7 -10   3  236.33   20.35
  10  -7  -3  245.52   17.98
   7 -10   4  350.05   24.98
  10  -7  -4  363.94   21.32
   7 -10   5  359.50   25.82
  10  -7  -5  357.13   20.83
  10  -7  -6    3.82    3.86
   7 -10   6   10.68    8.14
  10  -7  -7  386.83   20.62
   7 -10   7  402.50   28.54
  10  -7  -8  394.09   20.04
   7 -10   8  364.99   28.01
   7 -10   9   80.58   14.72
  10  -7  -9   95.35    9.57
 -10  -7  10  339.61   19.13
   7 -10  10  391.62   29.86
  10  -7 -10  377.07   18.26
 -10  -7  11  686.21   27.93
  10  -7 -11  682.89   24.76
   7 -10  11  653.40   40.15
 -10  -7  12  282.02   17.19
   7 -10  12  274.34   26.45
  10  -7 -12  286.81   14.55
   7 -10  13   50.81   13.23
 -10  -7  13   59.77    8.10
  10  -7 -13   69.30    6.65
 -10  -7  14  338.27   19.00
   7 -10  14  330.63   29.26
   7 -10  15   64.20   15.36
 -10  -7  15   63.70    8.44
   7 -10  16  175.98   23.25
   7 -10  17   81.25   17.15
   7 -10  18   51.76   15.80
  -7 -10 -19   87.33   17.62
   7 -10  19  107.96   19.82
  -7 -10 -20  111.86   20.16
   7 -10  20  107.19   20.49
  -7 -10 -21   -0.45    9.63
   7 -10  21   12.97   12.06
  -7 -10 -22   45.92   14.39
   7 -10  22   65.15   16.67
  -7 -10 -23  170.80   25.82
   7 -10  23  154.73   23.94
  -7 -10 -24   55.11   16.76
   7 -10  24   44.81   13.81
  -7 -10 -25    0.45    9.74
   7 -10  25    6.91    9.64
  -7 -10 -26   81.86   19.64
   7 -10  26   56.62   16.72
  -7 -10 -27   -9.59   10.48
   7 -10  27  -21.23   12.30
   7 -10  28   20.27   10.86
   7 -10  29   69.03   18.45
  10  -8  25   32.40   13.89
  10  -8  24   13.57   11.60
  10  -8  23  166.76   24.76
  10  -8  22  140.25   21.91
  10  -8  21   30.28   11.45
  10  -8  20   27.57   11.33
  10  -8  19   -3.17   10.85
  -8 -10  19   11.28    5.34
  10  -8  18  262.60   29.33
  -8 -10  18  230.53   19.97
  10  -8  17  119.42   19.79
  -8 -10  17  111.98   13.91
  10  -8  16   12.68    9.94
  -8 -10  16   18.65    6.80
  10  -8  15  105.38   18.70
   8 -10 -15  106.35   10.46
  -8 -10  15  114.99   13.69
  10  -8  14   16.69   10.36
  -8 -10  14   19.31    6.55
   8 -10 -14   17.52    4.83
  10  -8  13   13.11    9.69
  -8 -10  13   16.28    5.32
   8 -10 -13   15.87    4.70
  10  -8  12   42.26   11.98
  -8 -10  12   55.08    9.70
   8 -10 -12   33.48    6.57
  10  -8  11  311.40   27.97
  -8 -10  11  317.20   21.17
   8 -10 -11  303.30   18.57
  10  -8  10  414.86   31.58
   8 -10 -10  343.68   20.13
  -8 -10  10  394.36   23.59
  10  -8   9  316.31   27.34
  -8 -10   9  302.68   20.87
   8 -10  -9  299.39   18.92
  10  -8   8   97.05   15.75
  -8 -10   8   70.55   10.31
   8 -10  -8   82.27   10.13
  10  -8   7  123.28   16.87
   8 -10  -7  162.33   14.45
  -8 -10   7  157.48   15.00
  10  -8   6  777.59   41.12
   8 -10  -6  775.72   32.78
  10  -8   5  194.42   20.17
   8 -10  -5  194.09   16.49
  10  -8   4    8.51    7.14
   8 -10  -4   10.11    5.33
  10  -8   3  377.12   26.49
   8 -10  -3  368.06   23.40
  10  -8   2   17.48    7.57
   8 -10  -2   17.66    6.53
   8 -10  -1  231.24   19.16
  10  -8   1  252.18   20.40
   8 -10   0  145.53   15.76
  10  -8   0  182.83   17.36
   8 -10   1  228.35   19.67
  10  -8  -1  212.18   18.18
  10  -8  -2   23.31    6.82
   8 -10   2   17.91    7.79
  10  -8  -3  358.04   22.66
   8 -10   3  356.59   25.50
   8 -10   4   -0.83    7.19
  10  -8  -4    3.59    4.49
  10  -8  -5  202.65   16.27
   8 -10   5  195.87   20.18
  10  -8  -6  820.57   33.21
   8 -10   6  824.00   42.11
  10  -8  -7  174.05   14.19
   8 -10   7  180.06   19.92
   8 -10   8   90.84   15.46
  10  -8  -8   88.06   10.35
 -10  -8   9  339.42   20.68
   8 -10   9  360.43   29.02
  10  -8  -9  367.38   19.94
 -10  -8  10  369.26   21.33
   8 -10  10  388.18   30.90
  10  -8 -10  390.70   19.79
 -10  -8  11  331.76   20.04
   8 -10  11  326.84   29.17
  10  -8 -11  331.49   17.55
   8 -10  12   52.04   13.77
 -10  -8  12   42.73    7.51
  10  -8 -12   48.53    6.80
   8 -10  13   48.31   13.53
 -10  -8  13   26.35    6.39
   8 -10  14   25.88   12.11
 -10  -8  14   10.90    4.52
   8 -10  15   76.16   16.77
 -10  -8  15  113.41   11.82
   8 -10  16   18.65   11.32
 -10  -8  16   14.59    5.00
   8 -10  17   72.35   16.21
   8 -10  18  196.79   25.62
   8 -10  19   -0.57   10.47
   8 -10  20   11.81    7.31
  -8 -10 -21   63.53   15.89
   8 -10  21   32.28   14.00
  -8 -10 -22  126.85   22.07
   8 -10  22   96.38   19.08
  -8 -10 -23  158.14   25.25
   8 -10  23  172.17   25.42
  -8 -10 -24   -1.62   12.35
   8 -10  24  -19.57   12.72
  -8 -10 -25    9.95   10.02
   8 -10  25   -2.33    8.09
  -8 -10 -26   -0.15    7.94
   8 -10  26    5.56   10.89
   8 -10  27   25.93   11.99
   8 -10  28   80.44   19.56
 -10  -9 -26   -6.53    8.88
  10  -9  26    8.08   10.00
  10  -9  25    2.21    9.53
  10  -9  24   13.82   11.60
  10  -9  23   42.04   14.87
  10  -9  22  126.11   21.43
  10  -9  21   45.45   13.97
  10  -9  20  144.94   23.14
  10  -9  19  173.09   25.37
  10  -9  18  192.47   25.58
  10  -9  17   10.77    9.85
  -9 -10  17   10.97    6.16
  10  -9  16  109.30   19.26
  -9 -10  16  154.70   15.69
  10  -9  15  -10.04   10.64
  -9 -10  15    5.43    5.11
  10  -9  14    0.78   11.26
  -9 -10  14   12.35    5.82
   9 -10 -14   25.39    5.85
  10  -9  13    5.63    9.57
  -9 -10  13   18.78    6.90
   9 -10 -13    9.33    4.53
  10  -9  12   46.03   12.94
  -9 -10  12   54.45    9.80
   9 -10 -12   56.67    8.30
  10  -9  11    2.80    8.56
  -9 -10  11   12.90    5.84
   9 -10 -11    1.96    4.32
  10  -9  10  173.69   21.36
  -9 -10  10  184.23   16.37
   9 -10 -10  158.13   13.93
  10  -9   9   19.29    9.98
  -9 -10   9   14.43    5.55
   9 -10  -9   18.18    6.05
  10  -9   8  243.39   24.34
  -9 -10   8  226.77   18.53
   9 -10  -8  235.80   17.35
  10  -9   7  249.95   24.53
   9 -10  -7  253.37   18.52
   9 -10  -6  694.44   31.70
  10  -9   6  659.91   39.11
   9 -10  -5  289.85   20.67
  10  -9   5  287.11   25.06
   9 -10  -4  364.02   23.40
  10  -9   4  337.51   26.64
  10  -9   3   64.11   11.95
   9 -10  -3   73.91   11.81
  10  -9   2  115.33   14.93
   9 -10  -2  111.29   13.50
  10  -9   1    2.92    6.88
   9 -10  -1   -4.45    6.17
  10  -9   0  163.38   16.76
   9 -10   0  205.70   18.93
   9 -10   1    7.25    6.90
  10  -9  -1    1.44    5.10
   9 -10   2  106.48   14.62
  10  -9  -2  111.56   13.65
   9 -10   3   87.94   13.64
  10  -9  -3   86.19   11.86
  10  -9  -4  380.14   24.02
   9 -10   4  391.04   28.13
  10  -9  -5  312.86   21.11
   9 -10   5  311.15   25.81
   9 -10   6  646.43   37.94
  10  -9  -6  664.42   30.60
   9 -10   7  228.60   22.79
  10  -9  -7  232.63   17.56
   9 -10   8  296.78   26.66
  10  -9  -8  275.23   18.50
   9 -10   9   16.27    9.08
 -10  -9   9   25.93    7.18
  10  -9  -9   24.34    6.06
   9 -10  10  162.38   21.25
 -10  -9  10  185.24   15.91
  10  -9 -10  175.60   13.97
   9 -10  11    8.32    7.48
 -10  -9  11    7.20    5.61
  10  -9 -11    3.61    4.28
   9 -10  12   33.42   12.27
 -10  -9  12   48.52    8.59
  10  -9 -12   44.89    6.89
   9 -10  13   -2.93   11.29
 -10  -9  13   17.91    6.00
   9 -10  14   48.17   14.26
 -10  -9  14   33.16    7.41
   9 -10  15    3.07    8.94
 -10  -9  15   -9.34    5.30
   9 -10  16  134.10   21.97
 -10  -9  16  109.18   12.21
   9 -10  17    4.33    8.27
   9 -10  18  188.71   24.83
   9 -10  19  172.39   25.92
   9 -10  20  134.04   22.65
   9 -10  21   55.49   15.78
   9 -10  22  190.40   27.46
  -9 -10 -23   61.95   18.14
   9 -10  23   55.53   17.44
  -9 -10 -24    4.48   10.47
   9 -10  24    9.01    9.17
  -9 -10 -25   14.62   11.41
   9 -10  25   10.95   12.16
  -9 -10 -26   -3.67   11.16
   9 -10  26   -1.38    7.73
   9 -10  27   16.60   10.60
  10 -10   0    0.41    5.62
  10 -10   1   58.46   10.93
  10 -10  -1   37.50    9.36
  10 -10  -2    5.51    5.06
  10 -10   2    9.49    7.98
  10 -10   3  466.93   31.08
  10 -10  -3  447.81   27.44
  10 -10  -4  302.41   22.19
  10 -10   4  339.34   27.12
  10 -10   5  170.33   20.12
  10 -10  -5  146.36   15.17
  10 -10   6  -10.53   10.01
  10 -10  -6    1.43    4.99
  10 -10   7  127.69   17.83
  10 -10  -7  115.72   12.89
  10 -10   8   -6.98    8.38
  10 -10  -8    1.38    5.13
  10 -10   9  242.07   25.29
 -10 -10   9  249.56   19.48
  10 -10  -9  254.97   18.29
  10 -10  10  113.57   18.80
 -10 -10  10  133.55   14.78
  10 -10 -10  107.32   11.85
  10 -10  11  182.38   22.35
 -10 -10  11  169.05   16.17
  10 -10 -11  151.61   13.47
  10 -10  12   84.26   16.68
 -10 -10  12   94.17   12.25
  10 -10 -12   72.04    9.29
  10 -10  13    3.86    7.46
 -10 -10  13   -0.62    4.29
  10 -10  14  -11.25   11.13
 -10 -10  14   -2.38    4.83
  10 -10  15   45.19   14.11
 -10 -10  15   54.20    9.53
  10 -10  16   90.79   18.54
 -10 -10  16   98.48   12.83
  10 -10  17  237.07   28.19
  10 -10  18    9.12    9.44
  10 -10  19   -9.76   11.06
  10 -10  20  343.56   35.30
  10 -10  21  151.06   23.77
  10 -10  22   12.35   10.79
  10 -10  23  100.88   21.80
  10 -10  24  -18.06   14.07
  10 -10  25   57.04   16.23
 -10 -10 -25   71.44   18.19
   0 -11   0  847.81   35.51
   0 -11   1 1133.09   41.35
   0 -11  -1 1034.50   39.61
   0 -11   2  117.33   13.15
   0 -11  -2  101.78   12.59
   0 -11  -2   84.72   10.62
   0 -11  -3   43.26    8.28
   0 -11   3   69.69   10.37
   0 -11  -3   48.53    9.01
 -11   0   4  157.19   12.15
   0 -11   4  191.23   16.75
   0 -11  -4  171.07   16.47
 -11   0   5   52.92    6.76
   0 -11   5   46.96    9.00
   0 -11  -5   51.28    9.52
 -11   0   6    1.65    2.03
   0 -11   6    0.48    5.75
   0 -11  -6    1.78    5.86
 -11   0   7   16.39    3.74
   0 -11  -7    6.20    6.01
   0 -11   7    8.94    5.65
   0 -11  -8   28.78    8.77
 -11   0   8   13.21    3.04
   0 -11   8   27.94    7.59
   0 -11  -9   58.32   11.87
 -11   0   9   60.18    4.97
   0 -11   9   48.87    9.20
   0 -11 -10  147.36   18.53
   0 -11  10  164.43   17.42
 -11   0  10  160.20    6.26
   0 -11 -11 2592.20   84.14
   0 -11  11 2503.21   76.15
   0 -11 -12  807.26   44.13
   0 -11  12  700.81   37.20
   0 -11 -13  776.25   44.91
   0 -11  13  716.91   38.14
   0 -11 -14   50.94   14.24
   0 -11  14   29.94   10.43
   0 -11 -15  103.38   18.59
   0 -11  15   81.83   14.55
   0 -11 -16  396.15   34.08
   0 -11  16  416.91   30.45
   0 -11 -17  224.82   25.61
   0 -11  17  248.67   24.01
   0 -11 -18   16.92    8.70
   0 -11  18   10.73    7.51
   0 -11 -19    2.92   11.93
   0 -11  19   34.76   10.59
   0 -11 -20   16.61   10.55
   0 -11  20   38.37   11.04
   0 -11 -21   83.64   19.83
   0 -11  21   72.48   15.30
   0 -11 -22   15.49   12.11
   0 -11  22   -1.72    7.77
   0 -11 -23  364.79   38.48
   0 -11  23  455.55   36.56
   0 -11 -24  208.67   29.47
   0 -11  24  139.62   21.00
   0 -11 -25   67.81   18.05
   0 -11  25  100.09   18.39
   0 -11 -26   90.67   21.73
   0 -11  26   78.47   15.96
   0 -11 -27  132.91   27.05
   0 -11  27  109.24   19.18
   0 -11 -28    1.71   12.04
   0 -11  28   18.07    9.61
   1 -11 -28    2.12   11.27
   1 -11 -27  147.28   27.35
  -1 -11  27  154.18   22.54
   1 -11 -26   24.03   13.30
  -1 -11  26   -2.01    6.73
   1 -11 -25  285.48   35.10
  -1 -11  25  261.70   28.03
   1 -11 -24    1.68   11.28
  -1 -11  24    8.25   10.38
   1 -11 -23   98.49   20.59
  -1 -11  23  107.29   18.02
   1 -11 -22  428.07   40.13
  -1 -11  22  386.32   33.21
   1 -11 -21   12.11   11.71
  -1 -11  21   26.71   10.80
   1 -11 -20   77.69   17.14
  -1 -11  20   34.60   11.10
   1 -11 -19   23.56   13.74
  -1 -11  19   27.06   10.25
   1 -11 -18   33.23   12.99
  -1 -11  18   26.85   10.94
   1 -11 -17  126.84   21.14
  -1 -11  17  119.33   16.66
   1 -11 -16   23.12    9.83
  -1 -11  16   25.59    9.51
   1 -11 -15  322.25   29.91
  -1 -11  15  326.34   26.22
   1 -11 -14   50.25   13.42
  -1 -11  14   44.87   10.77
   1 -11 -13 1170.51   56.08
  -1 -11  13 1157.55   48.88
   1 -11 -12   49.98   12.80
  -1 -11  12   28.05    8.71
   1 -11 -11  782.00   43.00
  -1 -11  11  726.15   36.46
   1 -11 -10 1293.36   55.08
  -1 -11  10 1201.96   47.88
   1 -11  -9   91.67   14.49
 -11   1   9   98.03    5.69
  -1 -11   9  106.81   13.92
   1 -11  -8   16.00    7.52
  -1 -11   8   15.63    6.40
 -11   1   8   22.53    3.56
   1 -11  -7    6.55    7.11
  -1 -11   7   -3.58    6.13
 -11   1   7    4.32    2.17
   1 -11  -6    8.71    7.10
  -1 -11   6    7.45    6.05
 -11   1   6    5.04    2.77
 -11   1   5   -0.17    2.54
  -1 -11   5    0.67    5.27
   1 -11  -5    1.62    4.51
 -11   1   4   23.49    4.86
  -1 -11   4   38.65    8.97
   1 -11  -4   17.12    5.65
  -1 -11   3  387.70   23.61
   1 -11  -3  378.58   22.54
   1 -11  -2 1043.77   39.72
  -1 -11   2 1053.87   40.27
  -1 -11   1 1474.23   43.00
  -1 -11   1 1479.42   49.61
   1 -11  -1 1604.91   50.36
  -1 -11   0   46.83    9.25
   1 -11   0   27.74    7.53
  -1 -11   0   38.55    7.05
   1 -11   1 1568.13   51.13
  -1 -11  -1 1703.44   52.26
  -1 -11  -1 1532.88   47.17
   1 -11   2 1002.20   39.79
  -1 -11  -2 1099.48   39.14
   1 -11   3  341.88   22.47
  -1 -11  -3  394.25   23.29
 -11  -1   4   23.24    4.85
   1 -11   4   15.27    5.95
  -1 -11  -4   22.23    7.14
 -11  -1   5    2.67    3.01
   1 -11   5    2.63    6.37
  -1 -11  -5   -2.50    4.46
 -11  -1   6    4.12    2.86
  -1 -11  -6    9.65    6.98
   1 -11   6   -2.68    6.11
  -1 -11  -7    1.54    5.13
 -11  -1   7    2.08    2.11
   1 -11   7    5.88    6.48
  -1 -11  -8   21.28    8.47
 -11  -1   8   17.84    3.58
   1 -11   8   24.28    8.25
  -1 -11  -9   86.68   14.26
 -11  -1   9   86.82    6.84
   1 -11   9  101.67   13.65
  -1 -11 -10 1239.83   52.81
   1 -11  10 1232.35   49.58
 -11  -1  10 1192.30   28.07
  -1 -11 -11  757.03   41.46
   1 -11  11  738.03   38.25
  -1 -11 -12   45.81   12.12
   1 -11  12   33.14   11.04
  -1 -11 -13 1230.43   56.07
   1 -11  13 1080.75   49.25
  -1 -11 -14   63.02   13.39
   1 -11  14   56.46   13.09
  -1 -11 -15  350.37   30.79
   1 -11  15  318.58   26.80
  -1 -11 -16   31.08   12.15
   1 -11  16   37.28   11.41
  -1 -11 -17  115.30   18.61
   1 -11  17   99.34   16.70
  -1 -11 -18   32.37   11.38
   1 -11  18   43.52   12.90
  -1 -11 -19   33.01   11.96
   1 -11  19   22.49   10.87
  -1 -11 -20   48.03   15.03
   1 -11  20   38.79   11.71
  -1 -11 -21   -2.78    8.06
   1 -11  21   12.08    8.58
  -1 -11 -22  344.51   35.30
   1 -11  22  356.67   32.49
  -1 -11 -23  123.42   23.65
   1 -11  23  141.79   21.47
  -1 -11 -24   -0.31    7.83
   1 -11  24   -8.75    9.47
  -1 -11 -25  250.79   33.69
   1 -11  25  232.12   27.74
  -1 -11 -26   14.55   12.12
   1 -11  26   -3.22   10.04
  -1 -11 -27  132.56   25.09
   1 -11  27  138.01   21.93
  -1 -11 -28    4.36   10.84
   1 -11  28   18.29    9.82
   1 -11  29   60.20   15.76
  -2 -11  26  123.22   19.84
  -2 -11  25    0.96    7.27
  -2 -11  24   60.37   14.04
   2 -11 -23   30.03   13.21
  -2 -11  23   19.08    9.35
   2 -11 -22  140.96   24.79
  -2 -11  22  156.05   21.23
   2 -11 -21  160.65   25.41
  -2 -11  21  177.45   21.79
   2 -11 -20   87.28   19.62
  -2 -11  20   62.98   14.19
   2 -11 -19  112.15   20.36
  -2 -11  19   96.44   15.57
   2 -11 -18   23.68   10.10
  -2 -11  18   34.18   10.51
   2 -11 -17    9.20    9.34
  -2 -11  17   30.23   10.03
   2 -11 -16  169.34   22.68
  -2 -11  16  150.56   17.97
   2 -11 -15  585.78   41.08
  -2 -11  15  554.93   33.47
   2 -11 -14  235.78   25.39
  -2 -11  14  219.80   21.10
   2 -11 -13   34.40   11.11
  -2 -11  13   30.68    7.96
   2 -11 -12  397.48   31.74
  -2 -11  12  365.69   25.46
   2 -11 -11    5.82    9.02
  -2 -11  11   10.06    6.52
  -2 -11  10  336.42   23.58
  -2 -11   9  498.03   28.55
 -11   2   9  567.51   15.30
  -2  11  -8  207.20    8.70
 -11   2   8  233.32   10.38
  -2 -11   8  211.51   18.08
  -2  11  -7  105.01    6.75
  -2 -11   7  108.75   13.07
   2 -11  -7  109.94   11.79
 -11   2   7  126.14    8.35
  -2  11  -6   12.31    2.90
   2 -11  -6   11.88    5.99
  -2 -11   6   19.78    6.17
 -11   2   6   11.58    3.15
  -2  11  -5   62.08    6.48
   2 -11  -5   79.61   10.90
  -2 -11   5   54.98    9.53
 -11   2   5   68.06    7.28
  -2  11  -4  226.22   12.97
   2 -11  -4  220.55   17.32
  -2 -11   4  239.38   18.84
 -11   2   4  258.29   14.92
  -2  11  -3 1010.18   31.01
  -2 -11   3 1000.55   39.11
   2 -11  -3 1053.16   38.54
  -2  11  -2  459.73   20.93
  -2 -11   2  518.96   20.79
   2 -11  -2  500.95   26.28
  -2 -11   2  477.25   26.02
  -2 -11   1   10.16    4.08
  -2  11  -1    5.23    3.09
  -2 -11   1    5.95    5.29
   2 -11  -1   15.44    8.12
  -2 -11   0  920.82   32.49
  -2 -11   0  835.63   36.97
   2 -11   0  989.62   38.56
  -2 -11  -1   13.13    4.97
   2 -11   1    8.56    5.67
  -2 -11  -2  507.63   25.01
   2 -11   2  471.01   26.50
  -2 -11  -3 1043.44   38.68
   2 -11   3  943.25   39.22
  -2 -11  -4  246.40   18.61
   2 -11   4  228.22   19.01
  -2 -11  -5   59.28   10.11
   2 -11   5   69.85   11.39
  -2 -11  -6   13.76    5.65
   2 -11   6   20.36    7.07
  -2 -11  -7  106.19   13.97
   2 -11   7  114.78   14.78
  -2 -11  -8  281.94   22.58
   2 -11   8  240.93   20.73
  -2 -11  -9  561.52   32.83
 -11  -2   9  448.20   17.75
   2 -11   9  558.88   31.99
  -2 -11 -10  316.49   25.64
 -11  -2  10  326.22   13.47
   2 -11  10  316.65   24.68
 -11  -2  11   16.74    2.91
  -2 -11 -11   12.22    9.24
 -11  -2  11   17.44    2.65
   2 -11  11   15.60    8.75
  -2 -11 -12  309.56   26.85
 -11  -2  12  308.07    9.68
   2 -11  12  296.86   25.04
  -2 -11 -13   51.38   12.39
   2 -11  13   47.52   11.77
  -2 -11 -14  270.33   26.49
   2 -11  14  221.24   22.82
  -2 -11 -15  551.14   37.98
   2 -11  15  537.10   35.69
  -2 -11 -16  104.15   17.63
   2 -11  16  105.85   17.20
  -2 -11 -17   12.29   10.55
   2 -11  17   13.85   10.07
  -2 -11 -18   44.60   14.49
   2 -11  18   45.76   12.01
  -2 -11 -19  147.83   22.44
   2 -11  19  129.56   19.13
  -2 -11 -20   91.81   19.13
   2 -11  20   93.43   18.11
  -2 -11 -21  218.97   28.60
   2 -11  21  194.98   24.84
  -2 -11 -22   97.61   19.92
   2 -11  22  176.32   23.60
  -2 -11 -23   27.31   14.26
   2 -11  23   19.03   10.29
  -2 -11 -24  102.90   20.45
   2 -11  24   93.49   18.34
  -2 -11 -25  -12.85   12.39
   2 -11  25    0.79    9.25
  -2 -11 -26  125.60   25.52
   2 -11  26  154.01   23.57
  -2 -11 -27   26.08   15.49
   2 -11  27   10.27   10.18
  -2 -11 -28   82.77   23.14
   2 -11  28   48.33   14.41
   2 -11  29    3.34    7.45
   2 -11  30    1.80    7.11
  -3 -11  25  136.97   19.60
  -3 -11  24   44.58   13.03
  -3 -11  23   52.27   13.08
  -3 -11  22   62.02   13.86
  -3 -11  21  123.10   17.88
  -3 -11  20   18.77    8.13
  -3 -11  19  130.80   17.49
  -3 -11  18  214.75   21.78
  -3 -11  17  155.53   18.53
  -3 -11  16  230.45   21.59
  -3 -11  15  593.49   34.49
  -3 -11  14  156.25   17.45
  -3 -11  13  514.56   30.51
  -3 -11  12   26.70    8.22
  -3 -11  11  195.11   18.18
   3 -11 -10  109.04   12.29
  -3 -11  10   77.31   11.24
 -11   3   9  335.22   11.84
  -3 -11   9  323.76   22.35
   3 -11  -9  344.39   21.22
   3 -11  -8   21.02    6.61
 -11   3   8   22.47    3.41
  -3 -11   8   31.82    8.02
  -3 -11   7  466.24   26.30
   3 -11  -7  462.56   24.56
 -11   3   7  469.39   17.08
  -3  11  -6    3.70    2.25
   3 -11  -6    3.31    5.19
  -3 -11   6    6.64    5.40
 -11   3   6    2.47    1.95
  -3 -11   5  788.62   20.50
  -3  11  -5  764.40   26.98
  -3 -11   5  776.50   34.58
   3 -11  -5  805.75   33.68
 -11   3   5  726.51   26.18
  -3  11  -4   97.01    9.39
  -3 -11   4   98.68    7.18
  -3 -11   4  108.45   12.73
   3 -11  -4   91.15   11.49
 -11   3   4   90.02    8.92
  -3  11  -3   54.92    7.50
  -3 -11   3   44.30    5.93
   3 -11  -3   47.31    9.44
  -3 -11   3   53.87    9.80
  -3 -11   2  283.03   15.11
  -3  11  -2  290.98   17.59
  -3 -11   2  258.61   19.26
   3 -11  -2  275.45   19.43
  -3 -11   1  579.89   23.82
   3 -11  -1  536.75   27.73
  -3 -11   0   43.73    6.94
   3 -11   0   54.16    9.74
  -3 -11  -1  670.97   28.18
   3 -11   1  657.29   31.39
  -3 -11  -2  330.69   19.72
   3 -11   2  291.79   21.15
  -3 -11  -3   63.74    9.55
   3 -11   3   72.00   10.94
  -3 -11  -4  121.15   13.39
   3 -11   4  103.45   13.11
  -3 -11  -5  848.47   36.59
   3 -11   5  781.31   36.98
  -3 -11  -6    5.37    6.22
   3 -11   6  -12.40    7.90
  -3 -11  -7  497.58   29.41
   3 -11   7  496.09   29.81
  -3 -11  -8   20.01    7.17
   3 -11   8   33.83    8.96
  -3 -11  -9  277.52   23.09
   3 -11   9  309.16   24.42
  -3 -11 -10   77.46   13.26
   3 -11  10   86.44   13.58
  -3 -11 -11  160.88   18.87
 -11  -3  11  178.50    9.58
   3 -11  11  196.19   20.27
  -3 -11 -12   34.98   10.42
 -11  -3  12   41.81    4.43
   3 -11  12   45.87   11.11
  -3 -11 -13  489.65   34.46
 -11  -3  13  490.38   15.14
   3 -11  13  477.10   32.86
  -3 -11 -14  137.91   18.70
   3 -11  14  133.51   18.16
  -3 -11 -15  539.18   38.23
   3 -11  15  625.72   39.11
  -3 -11 -16  124.89   18.73
   3 -11  16  179.80   21.82
  -3 -11 -17  169.03   23.10
   3 -11  17  141.03   20.14
  -3 -11 -18  210.33   25.82
   3 -11  18  175.96   22.73
  -3 -11 -19  122.58   19.97
   3 -11  19  153.46   21.59
  -3 -11 -20   18.21   11.80
   3 -11  20   10.60    8.86
  -3 -11 -21  130.17   21.58
   3 -11  21  117.29   19.72
  -3 -11 -22   73.26   17.19
   3 -11  22   63.85   15.32
  -3 -11 -23   92.12   21.02
   3 -11  23   77.64   17.38
  -3 -11 -24   30.83   13.53
   3 -11  24   18.97   12.26
  -3 -11 -25  143.82   26.34
   3 -11  25  156.45   24.80
  -3 -11 -26   -8.06   12.90
   3 -11  26   33.96   13.97
  -3 -11 -27   53.05   16.68
   3 -11  27   64.42   16.58
  -3 -11 -28   19.88   12.28
   3 -11  28   44.20   14.18
   3 -11  29   26.64   12.61
   3 -11  30   11.64    7.92
   3 -11  31   27.30   13.27
  -4 -11  24  148.68   20.30
  -4 -11  23  113.55   17.41
  -4 -11  22   52.97   12.19
  -4 -11  21    7.55    7.85
  -4 -11  20   49.50   12.15
  -4 -11  19   67.54   12.72
  -4 -11  18    8.03    5.67
  -4 -11  17  258.20   22.81
  -4 -11  16  395.29   27.96
  -4 -11  15   37.03    9.64
  -4 -11  14  215.45   19.59
   4 -11 -14  223.63   16.70
  11  -4  13  324.02   27.76
  -4 -11  13  265.08   21.48
   4 -11 -13  303.05   19.71
  11  -4  12  131.11   17.30
   4 -11 -12  127.06   13.08
  -4 -11  12  137.16   15.60
  11  -4  11  159.91   19.00
  -4 -11  11  160.51   16.36
   4 -11 -11  159.99   14.45
  11  -4  10  468.97   31.31
  -4 -11  10  509.94   28.51
   4 -11 -10  483.29   24.96
  11  -4   9   30.12   10.94
   4 -11  -9   15.45    5.16
  -4 -11   9   22.28    7.34
 -11   4   9   22.27    3.31
  11  -4   8  166.59   18.37
 -11   4   8  147.42    9.06
  -4 -11   8  177.37   16.37
   4 -11  -8  169.51   14.81
  11  -4   7  259.72   21.85
   4 -11  -7  246.52   17.52
  -4 -11   7  271.51   19.94
 -11   4   7  247.62   12.63
  11  -4   6   63.05   11.68
 -11   4   6   64.30    6.79
   4 -11  -6   76.26   10.43
  -4 -11   6   59.93    9.78
  -4 -11   6   57.47    4.46
  11  -4   5  270.45   21.30
 -11   4   5  226.56   13.63
   4 -11  -5  227.38   17.47
  -4 -11   5  250.05   19.51
  -4 -11   5  224.26   10.68
  11  -4   4  282.74   21.42
  -4  11  -4  242.57   16.72
  -4 -11   4  318.10   21.18
   4 -11  -4  302.59   19.94
  -4 -11   4  298.31   13.85
  11  -4   3  229.49   18.92
  -4 -11   3  245.58   18.93
   4 -11  -3  291.17   19.47
  -4 -11   3  236.84   13.28
  11  -4   2  482.32   26.66
   4 -11  -2  442.34   24.88
  11  -4   1  174.73   15.66
   4 -11  -1  159.73   14.94
  11  -4   0  498.55   25.85
   4 -11   0  478.39   26.32
  11  -4  -1  152.72   13.91
   4 -11   1  153.21   15.55
  11  -4  -2  525.97   25.08
   4 -11   2  449.82   26.49
  11  -4  -3  243.33   16.00
   4 -11   3  259.11   20.81
  11  -4  -4  334.79   18.15
   4 -11   4  306.25   22.68
  -4 -11  -5  143.48   18.98
  11  -4  -5  236.03   14.42
   4 -11   5  204.69   18.79
  -4 -11  -6   56.14    9.83
   4 -11   6   37.41    9.76
  -4 -11  -7  283.94   22.46
   4 -11   7  260.27   22.22
  -4 -11  -8  171.27   17.87
   4 -11   8  163.97   18.27
  -4 -11  -9   15.74    7.57
   4 -11   9   19.75    8.24
  -4 -11 -10  399.93   28.73
   4 -11  10  548.19   33.94
  -4 -11 -11  127.53   16.98
 -11  -4  11  144.84    9.64
   4 -11  11  136.79   17.46
  -4 -11 -12  111.09   16.76
 -11  -4  12  147.75    9.38
   4 -11  12  187.47   21.30
  -4 -11 -13  252.58   24.67
 -11  -4  13  281.01   13.04
   4 -11  13  291.06   26.38
  -4 -11 -14  282.59   26.84
   4 -11  14  280.92   26.92
  -4 -11 -15   25.78   10.12
   4 -11  15   23.66   10.54
  -4 -11 -16  526.16   38.27
   4 -11  16  415.55   33.50
  -4 -11 -17  303.05   29.68
   4 -11  17  321.41   29.15
  -4 -11 -18  -12.46    9.95
   4 -11  18   -0.88    9.15
  -4 -11 -19   70.65   15.81
   4 -11  19   61.07   14.37
  -4 -11 -20   46.95   15.23
   4 -11  20   37.05   11.64
  -4 -11 -21   20.12   11.85
   4 -11  21   -6.89   11.23
  -4 -11 -22   48.78   14.86
   4 -11  22   18.59   10.75
  -4 -11 -23   92.05   19.34
   4 -11  23  117.20   20.77
  -4 -11 -24  143.77   24.28
   4 -11  24  101.27   19.15
  -4 -11 -25    5.59    9.31
   4 -11  25    3.21    9.07
  -4 -11 -26   50.52   16.68
   4 -11  26   40.36   13.77
  -4 -11 -27   -2.00   10.09
   4 -11  27   -0.61    9.35
   4 -11  28   39.64   13.98
   4 -11  29   22.06   11.27
   4 -11  30    2.77    8.90
  -5 -11  22    4.57    6.25
  -5 -11  21   25.30    9.02
  -5 -11  20   49.53   11.57
   5 -11 -19    9.43    5.34
  -5 -11  19   21.39    7.18
   5 -11 -18   33.08    7.13
  -5 -11  18   35.05    9.58
   5 -11 -17    3.00    4.14
  -5 -11  17    6.36    5.19
  11  -5  16  460.75   34.72
   5 -11 -16  461.78   24.51
  -5 -11  16  478.65   29.91
  11  -5  15   58.37   14.07
   5 -11 -15   38.91    7.94
  -5 -11  15   49.98    9.60
  11  -5  14  106.81   17.50
   5 -11 -14   89.55   11.14
  -5 -11  14   74.20   12.24
  11  -5  13  657.03   40.20
  -5 -11  13  589.23   32.48
   5 -11 -13  658.62   29.77
  11  -5  12  123.15   17.74
   5 -11 -12  111.12   12.08
  -5 -11  12   93.63   12.99
  11  -5  11  145.66   18.89
  -5 -11  11  145.64   15.40
   5 -11 -11  161.26   14.25
  11  -5  10   73.81   12.68
  -5 -11  10   59.72    9.95
   5 -11 -10   67.51    9.58
  11  -5   9   21.75    9.24
  -5 -11   9   22.58    7.68
   5 -11  -9   14.61    5.70
  11  -5   8  462.38   30.50
  -5 -11   8  435.16   25.72
   5 -11  -8  427.71   23.22
 -11   5   8  396.16   16.52
  11  -5   7   43.23   10.60
  -5 -11   7   52.77    9.56
 -11   5   7   45.60    5.82
   5 -11  -7   51.35    8.78
  11  -5   6   -0.01    6.35
  -5 -11   6    2.99    5.79
   5 -11  -6    3.47    4.66
 -11   5   6   -0.29    2.01
  11  -5   5   25.83    7.73
  -5 -11   5   40.84    8.23
   5 -11  -5   44.22    8.27
  11  -5   4  734.97   36.94
  -5 -11   4  717.55   33.21
   5 -11  -4  723.33   31.81
  11  -5   3  115.21   14.43
   5 -11  -3  102.34   12.25
  11  -5   2   13.24    6.29
   5 -11  -2   14.27    6.18
  11  -5   1  637.20   31.94
   5 -11  -1  633.03   30.90
  11  -5   0   20.96    6.94
   5 -11   0    2.42    4.84
  11  -5  -1  654.21   30.73
   5 -11   1  626.92   32.06
  11  -5  -2   20.99    6.32
   5 -11   2   13.67    6.16
  11  -5  -3   80.00   10.17
   5 -11   3   74.81   11.65
  11  -5  -4  743.63   30.17
   5 -11   4  740.09   36.61
  11  -5  -5   47.79    7.44
   5 -11   5   40.24   10.30
  11  -5  -6   10.76    4.56
   5 -11   6   -2.39    6.97
  11  -5  -7   57.19    7.26
   5 -11   7   57.17   11.58
  11  -5  -8  480.59   19.48
   5 -11   8  416.37   29.04
  11  -5  -9   16.01    3.62
   5 -11   9   17.99    8.96
   5 -11  10   79.66   14.47
 -11  -5  11  181.18   12.02
   5 -11  11  156.38   19.63
  -5 -11 -12  105.90   15.82
 -11  -5  12  101.51    8.79
   5 -11  12  146.15   19.61
  -5 -11 -13  647.72   40.05
 -11  -5  13  729.61   24.79
   5 -11  13  703.75   42.24
  -5 -11 -14   65.95   13.68
 -11  -5  14   73.08    7.56
   5 -11  14   63.25   14.35
  -5 -11 -15   48.37   13.58
   5 -11  15   46.47   12.73
  -5 -11 -16  468.53   36.16
   5 -11  16  511.78   38.04
  -5 -11 -17   -1.43    9.56
   5 -11  17   -5.48    9.17
  -5 -11 -18   38.33   13.26
   5 -11  18   22.09   11.05
  -5 -11 -19   10.37    8.01
   5 -11  19    5.33    8.39
  -5 -11 -20   64.56   15.87
   5 -11  20   42.33   14.59
  -5 -11 -21    9.19    8.86
   5 -11  21   41.92   13.72
  -5 -11 -22   10.54    8.73
   5 -11  22   -1.31    8.36
  -5 -11 -23   26.42   12.24
   5 -11  23   51.78   14.64
  -5 -11 -24   64.64   18.51
   5 -11  24  125.21   21.89
  -5 -11 -25  208.23   29.36
   5 -11  25  237.13   29.65
  -5 -11 -26    2.36   10.43
   5 -11  26   14.78   10.21
  -5 -11 -27  176.90   30.03
   5 -11  27  142.09   24.43
   5 -11  28  137.50   22.87
   5 -11  29   32.26   13.01
  -6 -11  21   23.93    8.57
  -6 -11  20    3.48    5.22
  11  -6  19   41.27   12.95
  -6 -11  19   53.50   11.36
  11  -6  18   -2.59    9.02
  -6 -11  18    1.74    5.21
  11  -6  17  159.34   22.60
   6 -11 -17  165.00   14.30
  -6 -11  17  177.51   18.79
  11  -6  16   50.21   14.16
   6 -11 -16   68.23    9.37
  -6 -11  16   59.86   11.63
  11  -6  15  554.57   38.59
  -6 -11  15  468.21   29.34
   6 -11 -15  454.46   23.95
  11  -6  14  240.98   25.60
   6 -11 -14  271.93   18.11
  -6 -11  14  250.74   20.97
  11  -6  13  201.17   23.06
   6 -11 -13  172.65   14.54
  -6 -11  13  154.22   16.23
  11  -6  12  120.54   18.27
  -6 -11  12  128.83   15.01
   6 -11 -12  129.70   12.66
  11  -6  11   15.77    9.93
   6 -11 -11   12.93    5.05
  -6 -11  11    7.15    5.49
  11  -6  10   64.17   12.80
  -6 -11  10   58.01   10.10
   6 -11 -10   55.45    8.81
  11  -6   9   71.16   13.24
  -6 -11   9   89.91   12.34
   6 -11  -9   97.86   11.25
  11  -6   8   -0.36    7.06
  -6 -11   8   -1.34    5.38
   6 -11  -8   10.69    5.55
 -11   6   8    4.16    2.21
  11  -6   7  271.29   24.72
   6 -11  -7  301.02   19.86
  -6 -11   7  332.15   22.14
  11  -6   6   63.42   12.21
  -6 -11   6   65.86   10.36
   6 -11  -6   55.67    9.27
  11  -6   5  339.23   25.71
   6 -11  -5  363.18   22.23
  -6 -11   5  309.16   21.68
  11  -6   4    2.86    6.38
   6 -11  -4    0.86    4.55
  11  -6   3  460.69   28.98
   6 -11  -3  480.75   26.51
  11  -6   2  217.08   19.20
   6 -11  -2  218.24   18.22
  11  -6   1  246.94   20.12
   6 -11  -1  281.99   20.77
  11  -6   0  122.60   13.97
   6 -11   0  120.90   14.27
  11  -6  -1  249.71   19.54
   6 -11   1  225.94   19.19
  11  -6  -2  157.67   15.19
   6 -11   2  173.10   17.49
  11  -6  -3  470.54   25.22
   6 -11   3  445.88   28.22
  11  -6  -4    7.02    5.85
   6 -11   4   -1.99    6.79
  11  -6  -5  352.38   20.41
   6 -11   5  349.61   25.50
  11  -6  -6   65.94    8.42
   6 -11   6   73.79   13.04
  11  -6  -7  319.99   18.00
   6 -11   7  284.46   24.75
  11  -6  -8    6.41    3.90
   6 -11   8    3.90    7.54
  11  -6  -9  114.97    9.79
   6 -11   9   98.07   15.10
  11  -6 -10   69.67    7.27
   6 -11  10   49.63   12.37
  11  -6 -11   28.06    4.26
 -11  -6  11   22.59    5.16
   6 -11  11   33.25   10.26
 -11  -6  12  175.02   12.65
   6 -11  12  164.46   21.65
   6 -11  13  181.59   22.29
 -11  -6  13  181.77   12.65
   6 -11  14  199.63   23.84
 -11  -6  14  220.53   14.02
  -6 -11 -15  533.61   38.47
   6 -11  15  553.40   39.50
  -6 -11 -16   62.96   14.65
   6 -11  16   75.11   15.71
  -6 -11 -17  185.39   23.98
   6 -11  17  156.31   21.32
  -6 -11 -18    2.82    9.24
   6 -11  18    0.40   10.64
  -6 -11 -19   45.78   14.21
   6 -11  19   37.47   12.05
  -6 -11 -20   -3.92   10.87
   6 -11  20   19.67   12.46
  -6 -11 -21   21.54   12.27
   6 -11  21   32.57   11.91
  -6 -11 -22    4.47    9.74
   6 -11  22    0.59    9.73
  -6 -11 -23    2.05   10.79
   6 -11  23    8.80   11.57
  -6 -11 -24   32.13   13.99
   6 -11  24   35.00   12.71
  -6 -11 -25  163.73   25.85
   6 -11  25  157.17   25.56
  -6 -11 -26  148.10   26.43
   6 -11  26   80.66   19.01
  -6 -11 -27  161.78   28.19
   6 -11  27  184.89   27.49
   6 -11  28    8.84   10.34
   6 -11  29   26.60   12.04
  11  -7  22   -3.18    7.23
  11  -7  21   14.40   10.06
  11  -7  20   29.15   11.36
  -7 -11  20   39.98   10.32
  11  -7  19    4.66   10.59
  -7 -11  19    5.67    5.66
  11  -7  18    6.25    9.13
  -7 -11  18   26.49    8.92
  11  -7  17   31.16   13.22
  -7 -11  17    7.29    5.67
  11  -7  16  555.98   40.15
  -7 -11  16  514.25   30.77
   7 -11 -16  546.94   25.80
  11  -7  15  121.21   19.60
   7 -11 -15  151.63   13.38
  -7 -11  15  151.03   16.61
  11  -7  14   38.62   13.88
   7 -11 -14   24.12    5.87
  -7 -11  14   16.20    6.34
  11  -7  13  538.64   38.20
   7 -11 -13  415.30   22.72
  -7 -11  13  476.08   28.11
  11  -7  12   99.89   16.99
  -7 -11  12  147.19   15.58
   7 -11 -12  128.56   12.87
  11  -7  11   40.61   11.94
   7 -11 -11   43.19    7.97
  -7 -11  11   37.85    8.91
  11  -7  10    8.30    8.72
   7 -11 -10   17.66    5.91
  -7 -11  10   16.94    6.02
  11  -7   9   70.57   13.17
   7 -11  -9   79.19   10.14
  -7 -11   9   67.04   11.27
  11  -7   8  192.94   21.64
   7 -11  -8  171.46   15.24
  -7 -11   8  199.40   17.41
  11  -7   7   16.56    7.27
  -7 -11   7   16.88    6.39
   7 -11  -7   23.51    6.73
  11  -7   6   20.61    7.81
  -7 -11   6   24.30    7.59
   7 -11  -6   29.25    7.48
  11  -7   5   95.79   14.97
   7 -11  -5   72.60   10.51
  11  -7   4  471.89   30.43
   7 -11  -4  435.37   25.52
  11  -7   3  119.02   15.77
   7 -11  -3  154.85   15.05
  11  -7   2   28.44    9.66
   7 -11  -2   52.05    9.97
  11  -7   1  640.95   33.43
   7 -11  -1  633.69   32.64
  11  -7   0   42.64   10.01
   7 -11   0   29.71    8.75
  11  -7  -1  671.56   33.00
   7 -11   1  650.87   33.80
  11  -7  -2   29.04    7.58
   7 -11   2   43.56    9.96
  11  -7  -3  123.23   13.13
   7 -11   3  116.65   15.06
  11  -7  -4  482.46   25.61
   7 -11   4  422.04   28.52
  11  -7  -5  101.83   11.40
   7 -11   5  122.42   16.01
  11  -7  -6   17.32    5.72
   7 -11   6   18.06    8.85
  11  -7  -7   17.24    5.18
   7 -11   7   12.56    9.08
  11  -7  -8  272.10   17.03
   7 -11   8  211.15   22.43
  11  -7  -9   69.51    8.52
   7 -11   9   54.18   12.79
  11  -7 -10   19.09    4.92
 -11  -7  10    9.86    4.48
   7 -11  10   10.74    7.86
   7 -11  11   91.71   17.28
  11  -7 -11   86.44    8.57
 -11  -7  11   95.33   10.32
   7 -11  12   85.30   16.48
 -11  -7  12   79.76    9.30
 -11  -7  13  453.88   22.31
   7 -11  13  469.51   36.16
   7 -11  14   10.29    9.17
 -11  -7  14   27.60    5.98
   7 -11  15  137.32   21.14
   7 -11  16  566.25   41.58
   7 -11  17   28.40   10.14
  -7 -11 -18    5.75    8.21
   7 -11  18   20.52   11.52
  -7 -11 -19   -2.01    8.24
   7 -11  19   12.81    9.84
  -7 -11 -20    6.71    7.38
   7 -11  20   27.79   13.01
  -7 -11 -21   10.84    9.51
   7 -11  21   11.47    9.86
  -7 -11 -22   11.19   10.83
   7 -11  22   -9.53   11.70
  -7 -11 -23   40.26   13.56
   7 -11  23   48.03   14.25
  -7 -11 -24   57.06   16.75
   7 -11  24   93.35   20.37
  -7 -11 -25  157.00   26.65
   7 -11  25  147.63   24.14
  -7 -11 -26    0.30    9.83
   7 -11  26    3.60   10.74
   7 -11  27   66.00   18.00
   7 -11  28  204.46   29.20
  11  -8  23  132.44   22.72
  11  -8  22   59.61   16.22
  11  -8  21    3.87   10.23
  11  -8  20   -1.72    9.28
  11  -8  19   49.82   14.45
  -8 -11  19   36.72    9.74
  11  -8  18  101.37   19.22
  -8 -11  18  114.21   14.67
  11  -8  17  305.74   30.99
  -8 -11  17  298.13   23.21
  11  -8  16  133.85   20.78
  -8 -11  16  148.36   16.08
  11  -8  15   23.94   10.22
   8 -11 -15   19.66    4.88
  -8 -11  15    7.72    5.97
  11  -8  14   63.07   15.03
   8 -11 -14   42.61    7.27
  -8 -11  14   46.95    9.72
  11  -8  13   19.43    9.15
  -8 -11  13   23.56    6.91
   8 -11 -13   28.42    7.08
  11  -8  12  492.32   36.83
  -8 -11  12  527.75   29.11
   8 -11 -12  505.46   25.48
  11  -8  11  134.31   19.72
  -8 -11  11  130.54   14.64
   8 -11 -11  139.52   13.48
  11  -8  10   22.47   11.21
  -8 -11  10   27.65    7.87
   8 -11 -10   20.21    6.06
  11  -8   9  118.44   18.39
   8 -11  -9  142.72   13.68
  -8 -11   9  147.31   15.45
  11  -8   8   12.76    8.10
  -8 -11   8    8.94    5.74
   8 -11  -8   17.17    6.64
  11  -8   7  164.93   19.39
  -8 -11   7  154.14   15.78
   8 -11  -7  168.68   15.51
  11  -8   6   46.50   11.56
   8 -11  -6   54.37    9.25
  11  -8   5  326.12   26.06
   8 -11  -5  322.17   21.74
  11  -8   4   94.66   14.77
   8 -11  -4   85.50   11.90
  11  -8   3   76.86   13.53
   8 -11  -3   78.24   11.65
  11  -8   2  295.75   23.74
   8 -11  -2  331.43   23.16
  11  -8   1  114.62   15.00
   8 -11  -1  146.35   16.20
  11  -8   0  136.50   15.89
   8 -11   0  122.54   15.33
  11  -8  -1  130.46   15.01
   8 -11   1  134.75   16.13
   8 -11   2  344.30   25.29
  11  -8  -2  348.13   23.98
  11  -8  -3   52.87    9.81
   8 -11   3   57.63   11.69
  11  -8  -4   93.22   11.83
   8 -11   4   96.06   14.78
  11  -8  -5  336.66   22.02
   8 -11   5  315.93   25.92
  11  -8  -6   53.45    8.67
   8 -11   6   65.68   12.74
  11  -8  -7  194.59   15.46
   8 -11   7  135.82   18.33
  11  -8  -8   32.31    6.70
   8 -11   8   24.34    9.64
   8 -11   9  116.40   18.11
  11  -8  -9  143.09   12.70
   8 -11  10   16.33    8.88
  11  -8 -10    3.05    3.69
 -11  -8  10   19.81    6.57
   8 -11  11   88.81   16.36
 -11  -8  11   92.44   10.88
  11  -8 -11  104.99   10.22
 -11  -8  12  469.76   24.27
   8 -11  12  506.35   37.10
   8 -11  13   40.19   12.42
 -11  -8  13   34.81    6.99
   8 -11  14   18.56    9.82
 -11  -8  14   42.41    7.42
   8 -11  15    8.91    7.92
   8 -11  16  109.72   19.67
   8 -11  17  251.95   28.46
   8 -11  18   99.30   19.35
   8 -11  19   40.05   13.99
  -8 -11 -20    2.16   10.83
   8 -11  20    2.63   10.64
  -8 -11 -21   23.83   12.23
   8 -11  21    9.71   11.11
  -8 -11 -22   27.76   12.11
   8 -11  22   65.68   17.04
  -8 -11 -23  111.69   20.86
   8 -11  23   81.58   19.43
  -8 -11 -24   74.37   18.88
   8 -11  24  144.30   24.62
  -8 -11 -25  -13.87   12.10
   8 -11  25  -14.89   12.53
   8 -11  26  104.69   21.19
   8 -11  27   13.04   10.78
  11  -9  25  132.81   24.24
  11  -9  24   -2.41    8.26
  11  -9  23   43.32   13.97
  11  -9  22   -4.06   11.58
  11  -9  21  171.24   25.87
  11  -9  20    4.94    9.91
  11  -9  19  278.49   31.31
  11  -9  18  129.58   21.42
  11  -9  17   37.44   12.88
  -9 -11  17   30.48    8.27
  11  -9  16  118.84   20.11
  -9 -11  16   80.97   12.22
  11  -9  15  140.69   22.34
  -9 -11  15  119.57   14.60
  11  -9  14   26.12   11.26
  -9 -11  14   30.57    8.36
  11  -9  13   48.34   14.49
  -9 -11  13   39.24    8.68
   9 -11 -13   51.18    8.28
  11  -9  12   43.62   13.32
  -9 -11  12   20.78    7.10
   9 -11 -12   30.28    6.52
  11  -9  11  279.28   27.93
  -9 -11  11  295.99   21.85
   9 -11 -11  274.43   18.95
  11  -9  10  162.57   21.48
  -9 -11  10  154.85   15.66
   9 -11 -10  121.64   12.78
  11  -9   9  121.95   18.66
  -9 -11   9  107.76   13.65
   9 -11  -9   90.47   11.78
  11  -9   8  158.91   20.39
  -9 -11   8  132.85   15.48
   9 -11  -8  153.81   14.86
  11  -9   7  160.97   20.25
  -9 -11   7  196.02   17.51
   9 -11  -7  176.22   15.93
  11  -9   6    7.50    8.44
   9 -11  -6    9.28    6.32
  11  -9   5  231.35   22.92
   9 -11  -5  247.07   19.70
   9 -11  -4  209.47   18.54
  11  -9   4  226.49   22.26
  11  -9   3  124.39   16.61
   9 -11  -3  125.63   14.93
   9 -11  -2  202.93   18.83
  11  -9   2  220.50   21.70
  11  -9   1  238.83   21.76
   9 -11  -1  243.92   20.94
  11  -9   0    1.69    6.22
   9 -11   0   -0.41    5.94
  11  -9  -1  255.68   21.23
   9 -11   1  234.56   21.20
  11  -9  -2  223.68   19.58
   9 -11   2  204.07   19.90
  11  -9  -3  108.55   14.17
   9 -11   3  120.58   16.36
  11  -9  -4  172.52   16.32
   9 -11   4  195.65   20.59
   9 -11   5  291.30   25.67
  11  -9  -5  282.92   20.48
  11  -9  -6    5.86    4.38
   9 -11   6    2.54    7.95
   9 -11   7  203.60   22.40
  11  -9  -7  172.50   15.26
   9 -11   8  196.47   22.80
  11  -9  -8  157.42   14.43
   9 -11   9   80.84   15.03
  11  -9  -9   86.65   10.84
   9 -11  10  147.55   20.29
 -11  -9  10  128.19   13.54
  11  -9 -10  116.23   11.99
 -11  -9  11  313.69   20.85
  11  -9 -11  302.44   18.50
   9 -11  11  301.86   29.24
   9 -11  12   48.88   14.61
 -11  -9  12   32.19    8.03
   9 -11  13   44.81   14.76
 -11  -9  13   42.79    8.64
   9 -11  14   32.86   12.65
 -11  -9  14   39.05    7.77
   9 -11  15   98.78   19.51
   9 -11  16  101.76   19.16
   9 -11  17   31.81   12.86
   9 -11  18  109.21   20.50
   9 -11  19  239.23   29.60
   9 -11  20   -9.68   11.23
   9 -11  21  183.91   27.90
  -9 -11 -22   10.64    9.09
   9 -11  22   15.18   12.73
  -9 -11 -23   48.12   14.88
   9 -11  23   59.06   16.12
  -9 -11 -24  -10.00   11.12
   9 -11  24   -8.96   11.26
  -9 -11 -25  108.75   22.73
   9 -11  25  109.62   21.22
   9 -11  26   14.75   11.85
  11 -10  24   -5.50   11.40
  11 -10  23   27.97   14.07
  11 -10  22   42.65   15.24
  11 -10  21  230.45   29.23
  11 -10  20   15.33   11.66
  11 -10  19  110.13   21.82
  11 -10  18   37.43   13.21
  11 -10  17   20.46   10.72
  11 -10  16  151.07   23.03
 -10 -11  16  145.07   15.78
  11 -10  15   43.59   12.86
 -10 -11  15   58.95   10.69
  11 -10  14  200.28   26.63
 -10 -11  14  158.17   16.17
  11 -10  13   15.42    9.76
 -10 -11  13   35.67    8.36
  11 -10  12   63.93   15.66
 -10 -11  12   93.44   12.94
  10 -11 -12   90.22   11.01
  11 -10  11   -2.99   10.07
 -10 -11  11    6.26    5.02
  10 -11 -11   -1.99    3.87
  11 -10  10  374.66   32.12
 -10 -11  10  389.86   25.85
  10 -11 -10  386.66   23.27
  11 -10   9  394.26   33.04
 -10 -11   9  400.92   26.00
  10 -11  -9  389.23   24.03
  11 -10   8  102.89   17.37
 -10 -11   8  103.94   13.51
  10 -11  -8  105.65   12.76
  11 -10   7    9.23    7.13
  10 -11  -7   20.84    6.77
  11 -10   6  169.75   20.47
  10 -11  -6  164.55   16.04
  11 -10   5   -5.02    8.27
  10 -11  -5    7.76    5.31
  11 -10   4  110.29   16.36
  10 -11  -4  111.18   14.43
  10 -11  -3  346.88   24.93
  11 -10   3  317.74   26.71
  11 -10   2  348.72   26.95
  10 -11  -2  336.34   25.01
  11 -10   1   36.90   10.27
  10 -11  -1   35.21    9.42
  11 -10   0  169.47   18.72
  10 -11   0  180.20   19.07
  11 -10  -1   30.56    9.24
  10 -11   1   48.91   11.03
  10 -11   2  298.48   25.20
  11 -10  -2  347.52   25.16
  10 -11   3  370.65   28.62
  11 -10  -3  365.88   25.58
  11 -10  -4   99.97   13.40
  10 -11   4  137.26   17.87
  10 -11   5    5.56    8.37
  11 -10  -5    7.97    5.62
  10 -11   6  178.92   21.19
  11 -10  -6  161.98   16.10
  10 -11   7   22.21    9.94
  11 -10  -7   15.53    6.10
  10 -11   8  163.97   20.84
  11 -10  -8  107.86   12.65
 -11 -10   9  424.98   25.76
  10 -11   9  364.46   31.62
  11 -10  -9  406.72   23.86
 -11 -10  10  422.85   25.54
  11 -10 -10  393.60   23.00
  10 -11  10  429.23   35.26
  10 -11  11   19.10   11.07
 -11 -10  11    5.75    5.37
  11 -10 -11    5.71    4.32
  10 -11  12   56.91   14.27
 -11 -10  12   62.78   10.10
  10 -11  13   51.37   14.73
 -11 -10  13   31.09    7.37
  10 -11  14  162.65   23.93
 -11 -10  14  137.85   14.54
  10 -11  15   43.10   15.26
  10 -11  16  161.67   24.36
  10 -11  17   33.84   12.87
  10 -11  18   53.21   15.32
  10 -11  19  129.39   23.53
  10 -11  20   31.10   11.77
  10 -11  21  233.90   30.41
  10 -11  22   40.43   15.73
 -10 -11 -23   31.12   14.12
  10 -11  23   18.35   12.14
 -10 -11 -24    2.37   12.04
  10 -11  24    1.26   10.02
  11 -11   0   16.69    9.34
  11 -11  -1  434.73   29.81
  11 -11   1  453.70   31.35
  11 -11  -2  641.31   35.50
  11 -11   2  550.94   35.60
  11 -11   3   32.39    9.85
  11 -11  -3   32.16    9.63
  11 -11   4   16.51    7.66
  11 -11  -4   17.38    6.44
  11 -11   5   16.45    8.28
  11 -11  -5    7.12    6.25
  11 -11  -6  519.99   29.87
  11 -11   6  523.21   36.56
  11 -11   7  164.46   21.49
  11 -11  -7  145.92   16.12
  11 -11   8    8.39    9.03
  11 -11  -8   -0.15    4.39
  11 -11   9   42.35   13.96
 -11 -11   9   60.88   11.25
  11 -11  -9   45.45    9.07
  11 -11  10  225.91   25.97
 -11 -11  10  229.01   19.95
  11 -11 -10  224.22   17.93
  11 -11  11  487.57   38.67
 -11 -11  11  541.58   30.36
  11 -11 -11  483.33   26.43
  11 -11  12   -2.89    9.24
 -11 -11  12   15.58    6.60
  11 -11  13  314.59   32.10
 -11 -11  13  316.51   23.40
  11 -11  14   43.86   13.48
 -11 -11  14   36.25    8.86
  11 -11  15  159.95   24.45
 -11 -11  15  164.53   17.15
  11 -11  16   -4.15    9.85
  11 -11  17   -3.83    9.35
  11 -11  18  236.42   29.34
  11 -11  19   -7.20   12.76
  11 -11  20   15.82   10.11
  11 -11  21    0.42    8.33
  11 -11  22  129.38   23.98
  11 -11  23  109.31   23.23
   0 -12   0 3397.10   86.92
   0 -12  -1  167.38   16.01
   0 -12   1  150.51   15.82
   0 -12  -2   13.72    6.78
   0 -12   2   -4.25    5.32
   0 -12   3   82.86   11.80
   0 -12  -3   69.60   11.00
   0 -12  -3   55.09   10.46
   0 -12  -4   90.06   11.62
   0 -12   4   86.66   12.71
   0 -12  -4   58.33   13.11
 -12   0   5    1.29    2.37
   0 -12   5   -1.31    5.93
   0 -12  -5   -2.32    5.96
 -12   0   6   15.64    4.14
   0 -12   6    9.72    7.46
   0 -12  -6   15.81    7.64
 -12   0   7   14.68    3.67
   0 -12  -7   22.56    8.20
   0 -12   7   32.83    9.03
   0 -12  -8   39.03   10.66
 -12   0   8   38.20    5.01
   0 -12   8   39.23    9.31
   0 -12  -9    8.79    7.44
 -12   0   9   10.77    2.69
   0 -12   9   12.02    7.59
   0 -12 -10   13.17    8.15
   0 -12  10   18.82    8.14
 -12   0  10    8.24    1.84
   0 -12 -11   45.31   11.46
   0 -12  11   42.12   11.07
   0 -12 -12 2070.59   75.98
   0 -12  12 1869.48   67.04
   0 -12 -13   16.49    9.40
   0 -12  13   24.79   10.39
   0 -12 -14   -0.55   10.17
   0 -12  14    5.73    6.88
   0 -12 -15   81.68   17.28
   0 -12  15   55.84   12.71
   0 -12 -16  433.05   36.26
   0 -12  16  473.78   33.45
   0 -12 -17    4.17    8.15
   0 -12  17   -7.75    8.52
   0 -12 -18    1.11   10.25
   0 -12  18   -5.45    7.55
   0 -12 -19  113.46   21.28
   0 -12  19  108.31   18.24
   0 -12 -20   -7.74   11.32
   0 -12  20  -10.46    9.64
   0 -12 -21   34.08   14.43
   0 -12  21   27.01   12.53
   0 -12 -22    8.63   12.76
   0 -12  22    3.18    8.60
   0 -12 -23   -3.14   10.28
   0 -12  23   14.99    9.33
   0 -12 -24  738.55   56.22
   0 -12  24  858.76   52.73
   0 -12 -25    9.74   12.48
   0 -12  25   32.41   12.83
   0 -12 -26   13.43   11.90
   0 -12  26   -2.85    9.70
   0 -12 -27   15.38   13.20
   0 -12  27   15.52   10.67
   0 -12  28  278.98   31.54
   1 -12 -27  116.89   24.59
  -1 -12  27   89.43   18.27
   1 -12 -26   97.36   23.73
  -1 -12  26   93.14   18.04
   1 -12 -25  136.50   25.17
  -1 -12  25  121.39   20.13
   1 -12 -24   98.30   23.76
  -1 -12  24  124.69   20.29
   1 -12 -23  285.33   34.47
  -1 -12  23  312.50   31.26
   1 -12 -22   62.46   18.44
  -1 -12  22   53.83   13.67
   1 -12 -21   43.47   17.41
  -1 -12  21   58.87   14.37
   1 -12 -20   50.39   15.40
  -1 -12  20   47.25   12.06
   1 -12 -19   34.14   13.36
  -1 -12  19   30.92   10.19
   1 -12 -18   65.07   16.43
  -1 -12  18   48.04   11.93
   1 -12 -17  183.59   25.41
  -1 -12  17  142.75   18.99
   1 -12 -16   73.18   17.15
  -1 -12  16   78.70   14.36
   1 -12 -15  261.47   28.12
  -1 -12  15  272.03   25.17
   1 -12 -14  296.27   29.16
  -1 -12  14  304.84   25.67
   1 -12 -13  388.74   32.66
  -1 -12  13  335.69   26.61
   1 -12 -12  422.75   32.88
  -1 -12  12  337.34   25.99
   1 -12 -11 1102.42   53.16
  -1 -12  11 1007.31   45.51
   1 -12 -10  188.59   21.21
 -12   1  10  154.75    6.39
  -1 -12  10  145.24   16.12
   1 -12  -9  112.51   16.09
 -12   1   9  106.31    6.72
  -1 -12   9  100.66   13.70
   1 -12  -8   -5.38    8.03
  -1 -12   8   16.21    7.13
 -12   1   8    8.72    2.52
   1 -12  -7   41.09   11.08
  -1 -12   7   24.41    7.41
 -12   1   7   33.04    4.90
  -1 -12   6   57.60   11.21
   1 -12  -6   63.29    9.64
 -12   1   6   46.25    6.42
 -12   1   5    9.82    3.56
  -1 -12   5   11.94    6.19
   1 -12  -5   -0.01    5.11
  -1 -12   4  231.30   18.63
   1 -12  -4  202.35   16.89
  -1 -12   3    2.20    5.50
   1 -12  -3   -7.54    6.76
   1 -12  -2  357.65   23.75
  -1 -12   2  354.94   23.59
   1 -12  -1 1794.47   57.23
  -1 -12   1 1859.65   58.54
  -1 -12   0  115.48   13.96
   1 -12   0  153.64   15.12
  -1 -12   0   93.39   11.11
  -1 -12  -1 1939.38   59.44
   1 -12   1 1884.07   59.28
  -1 -12  -1 1929.31   56.18
   1 -12   2  419.96   25.65
  -1 -12  -2  373.22   23.93
  -1 -12  -2  349.67   22.01
   1 -12   3    5.64    6.37
  -1 -12  -3    0.36    4.38
   1 -12   4  243.28   19.68
  -1 -12  -4  250.17   19.85
   1 -12   5    8.50    5.91
  -1 -12  -5   23.33    7.30
 -12  -1   6   53.87    7.21
  -1 -12  -6   57.38   10.92
   1 -12   6   78.90   12.46
  -1 -12  -7   23.50    8.29
 -12  -1   7   17.84    3.94
   1 -12   7   34.69    9.87
  -1 -12  -8    6.20    6.86
 -12  -1   8   10.20    3.55
   1 -12   8    2.40    6.84
  -1 -12  -9  145.61   17.91
 -12  -1   9  118.72    8.52
   1 -12   9  100.83   14.33
  -1 -12 -10  196.60   21.33
   1 -12  10  183.49   19.38
  -1 -12 -11 1089.24   51.12
 -12  -1  11 1026.14   22.09
   1 -12  11 1008.23   46.50
  -1 -12 -12  346.12   29.33
   1 -12  12  386.55   28.79
  -1 -12 -13  408.59   32.61
   1 -12  13  376.72   28.84
  -1 -12 -14  267.49   27.30
   1 -12  14  266.69   24.99
  -1 -12 -15  263.65   27.43
   1 -12  15  273.72   25.86
  -1 -12 -16   75.52   17.02
   1 -12  16   98.84   16.52
  -1 -12 -17  161.20   22.78
   1 -12  17  134.52   19.57
  -1 -12 -18   46.03   13.17
   1 -12  18   53.06   12.38
  -1 -12 -19    9.55    9.78
   1 -12  19    8.99    6.95
  -1 -12 -20   53.06   15.51
   1 -12  20   64.72   15.02
  -1 -12 -21   63.66   17.00
   1 -12  21   47.98   13.01
  -1 -12 -22   60.04   16.82
   1 -12  22   51.20   14.90
  -1 -12 -23  374.80   38.95
   1 -12  23  355.18   33.63
  -1 -12 -24  108.99   22.36
   1 -12  24  125.80   20.79
  -1 -12 -25  166.76   28.55
   1 -12  25  118.01   20.30
  -1 -12 -26   82.08   20.02
   1 -12  26   89.28   18.76
  -1 -12 -27   96.72   21.96
   1 -12  27   83.53   18.32
   1 -12  28   68.11   17.24
   1 -12  29  124.23   21.83
  -2 -12  26  144.61   21.56
  -2 -12  25   35.54   11.82
  -2 -12  24  119.79   19.92
  -2 -12  23   44.47   12.57
  -2 -12  22  161.67   21.46
  -2 -12  21   20.30   10.33
  -2 -12  20  459.20   34.68
   2 -12 -19    6.18   11.15
  -2 -12  19   19.69    9.03
   2 -12 -18   54.72   14.74
  -2 -12  18   47.48   12.23
   2 -12 -17   48.62   15.44
  -2 -12  17   38.32   10.89
   2 -12 -16   52.07   13.28
  -2 -12  16   69.56   13.55
   2 -12 -15  106.78   19.02
  -2 -12  15   95.73   15.49
   2 -12 -14  452.01   36.22
  -2 -12  14  476.01   31.50
  -2 -12  13   71.99   12.68
  -2 -12  12  152.87   17.67
  -2 -12  11  340.67   25.00
  -2 -12  10  562.97   32.05
 -12   2   9  187.02    8.82
  -2 -12   9  171.84   17.78
   2 -12  -9  208.19   17.38
  -2 -12   8  110.56   13.97
 -12   2   8  131.20    8.41
   2 -12  -8  137.49   14.20
  -2  12  -7   32.96    3.85
   2 -12  -7   30.29    7.31
  -2 -12   7   37.07    8.78
 -12   2   7   27.87    4.36
  -2  12  -6  123.21    8.18
   2 -12  -6  130.28   13.98
  -2 -12   6  119.03   14.39
 -12   2   6  120.62    9.86
  -2  12  -5  156.94   10.08
  -2 -12   5  157.17   16.30
   2 -12  -5  146.52   14.65
 -12   2   5  141.67   11.22
  -2 -12   4  368.64   24.33
   2 -12  -4  330.91   22.25
  -2  12  -4  351.36   16.63
  -2 -12   3  184.25   17.12
   2 -12  -3  173.80   16.17
  -2  12  -3  171.68   12.16
  -2 -12   2  693.97   26.00
  -2  12  -2  596.08   25.48
   2 -12  -2  720.76   33.01
  -2 -12   2  661.49   32.34
  -2 -12   1   80.95    9.17
  -2 -12   1   63.16   11.08
   2 -12  -1   78.30   11.51
  -2 -12   0 1027.81   35.79
  -2 -12   0  994.30   40.37
   2 -12   0  963.58   39.86
  -2 -12  -1   75.61    9.90
   2 -12   1   80.74   11.82
  -2 -12  -2  641.30   29.80
   2 -12   2  654.03   32.68
  -2 -12  -3  199.43   16.95
   2 -12   3  198.99   17.82
  -2 -12  -4  395.21   24.51
   2 -12   4  349.66   24.60
  -2 -12  -5  140.57   15.43
   2 -12   5  143.37   15.85
  -2 -12  -6  148.17   16.30
   2 -12   6  148.50   16.45
  -2 -12  -7   40.00    9.93
 -12  -2   7   35.27    5.83
   2 -12   7   24.29    8.33
  -2 -12  -8  151.09   17.13
 -12  -2   8  155.29   10.98
   2 -12   8  188.56   18.95
  -2 -12  -9  192.09   20.30
 -12  -2   9  193.77   11.81
   2 -12   9  155.30   17.08
  -2 -12 -10  524.45   33.66
   2 -12  10  561.21   34.03
  -2 -12 -11  322.11   27.23
   2 -12  11  339.76   26.87
  -2 -12 -12  176.52   21.48
   2 -12  12  166.99   19.81
  -2 -12 -13   63.25   13.89
   2 -12  13   59.26   13.19
  -2 -12 -14  469.82   35.47
   2 -12  14  431.94   32.26
  -2 -12 -15   83.57   17.07
   2 -12  15   70.77   14.98
  -2 -12 -16   51.21   13.95
   2 -12  16   61.71   14.09
  -2 -12 -17   33.00   13.11
   2 -12  17   24.61    9.32
  -2 -12 -18   54.50   14.77
   2 -12  18   45.06   11.78
  -2 -12 -19   28.48   13.49
   2 -12  19    6.22    8.76
  -2 -12 -20  439.07   38.79
   2 -12  20  458.91   37.62
  -2 -12 -21   36.16   14.79
   2 -12  21   15.73    8.73
  -2 -12 -22  159.11   25.07
   2 -12  22  172.25   23.61
  -2 -12 -23   53.52   16.79
   2 -12  23   53.03   14.71
  -2 -12 -24  132.00   25.30
   2 -12  24  114.40   20.57
  -2 -12 -25   17.16   10.31
   2 -12  25   35.14   14.03
  -2 -12 -26  159.30   26.75
   2 -12  26  161.01   24.84
  -2 -12 -27   57.53   19.51
   2 -12  27   32.92   13.71
   2 -12  28   -2.86    9.43
   2 -12  29   10.34    9.56
   2 -12  30   62.26   16.00
  -3 -12  25  267.94   28.29
  -3 -12  24   30.14   11.65
  -3 -12  23  129.00   19.54
  -3 -12  22   46.43   12.79
  -3 -12  21   13.67    7.75
  -3 -12  20  195.80   22.71
  -3 -12  19  139.19   18.71
  -3 -12  18  152.67   19.45
  -3 -12  17   26.79    9.48
  -3 -12  16   14.80    7.87
  -3 -12  15  398.93   28.65
  -3 -12  14   84.25   13.60
  -3 -12  13  832.27   41.18
   3 -12 -12   33.73    8.73
  -3 -12  12   29.97   10.19
  -3 -12  11  258.51   21.88
   3 -12 -11  236.82   18.50
  -3 -12  10   21.30    7.45
   3 -12 -10   45.22    9.20
  -3  12  -9   68.98    6.14
  -3 -12   9   48.53    9.87
 -12   3   9   56.08    4.97
   3 -12  -9   63.21   10.08
  -3  12  -8  297.54   13.96
  -3 -12   8  300.40   22.56
   3 -12  -8  316.97   21.36
 -12   3   8  296.43   13.22
  -3  12  -7   26.18    4.56
  -3 -12   7   18.42    6.97
   3 -12  -7   21.21    6.74
 -12   3   7   19.48    4.00
  -3  12  -6  521.17   21.90
  -3 -12   6  575.39   30.65
   3 -12  -6  612.97   29.96
 -12   3   6  534.12   21.43
   3 -12  -5   49.13    8.49
  -3 -12   5   51.65    9.57
  -3  12  -5   59.55    7.26
  -3 -12   4  436.11   17.12
  -3  12  -4  420.12   20.29
   3 -12  -4  463.43   25.91
  -3 -12   4  407.38   25.91
  -3 -12   3   13.52    4.05
  -3  12  -3   15.46    4.57
  -3 -12   3   15.46    6.72
   3 -12  -3   14.53    6.05
  -3 -12   2   11.60    4.18
  -3 -12   2   11.87    6.77
   3 -12  -2    6.40    6.08
  -3 -12   1  898.97   32.09
   3 -12  -1  965.75   39.46
  -3 -12   1  931.92   39.28
  -3 -12   0   69.93    9.23
   3 -12   0   78.76   12.21
  -3 -12  -1  928.30   35.71
   3 -12   1 1041.66   41.66
  -3 -12  -2   18.49    5.45
   3 -12   2   14.72    7.15
  -3 -12  -3   18.35    6.34
   3 -12   3   15.49    7.80
  -3 -12  -4  489.08   27.04
   3 -12   4  428.26   27.60
  -3 -12  -5   55.00   10.06
   3 -12   5   32.90    9.04
  -3 -12  -6  613.71   32.97
   3 -12   6  667.16   35.12
  -3 -12  -7   12.23    6.43
   3 -12   7   23.92    9.40
  -3 -12  -8  311.10   24.49
   3 -12   8  283.87   23.85
  -3 -12  -9   80.58   13.87
   3 -12   9   90.11   14.31
  -3 -12 -10   25.97    8.68
   3 -12  10   39.68   10.10
  -3 -12 -11  271.12   24.65
 -12  -3  11  317.32   13.62
   3 -12  11  295.93   25.79
  -3 -12 -12   19.28    9.69
 -12  -3  12   16.04    3.11
   3 -12  12   18.36    9.36
  -3 -12 -13  734.83   43.25
   3 -12  13  757.05   43.15
  -3 -12 -14   54.06   12.99
   3 -12  14   77.02   14.30
  -3 -12 -15  323.37   29.58
   3 -12  15  341.30   30.17
  -3 -12 -16    0.73    9.23
   3 -12  16    0.60    7.46
  -3 -12 -17   49.09   13.77
   3 -12  17   24.42    8.26
  -3 -12 -18  104.62   20.60
   3 -12  18   98.06   17.49
  -3 -12 -19  148.21   23.04
   3 -12  19  155.17   22.64
  -3 -12 -20  227.64   28.08
   3 -12  20  236.99   27.60
  -3 -12 -21   12.92   11.68
   3 -12  21   42.21   14.32
  -3 -12 -22   74.51   18.83
   3 -12  22   48.18   13.12
  -3 -12 -23  123.20   22.94
   3 -12  23  152.32   23.56
  -3 -12 -24   26.33   11.46
   3 -12  24   -1.53    7.37
  -3 -12 -25  258.90   32.82
   3 -12  25  223.33   29.02
  -3 -12 -26   22.18   14.13
   3 -12  26   17.20   10.55
  -3 -12 -27  125.32   24.31
   3 -12  27  106.93   21.60
   3 -12  28  -20.05   12.56
   3 -12  29    4.17    9.30
   3 -12  30   12.90   10.17
  -4 -12  23  127.52   19.33
  -4 -12  22   11.01    8.15
  -4 -12  21   84.97   15.06
  -4 -12  20    6.20    5.87
  -4 -12  19   25.52    9.20
  -4 -12  18  540.82   35.07
   4 -12 -17   58.70    9.94
  -4 -12  17   49.62   11.39
   4 -12 -16   20.38    5.71
  -4 -12  16   25.59    8.83
   4 -12 -15  100.80   12.31
  -4 -12  15   86.00   13.83
  -4 -12  14  194.91   19.88
   4 -12 -14  216.26   17.64
   4 -12 -13  286.68   20.38
  -4 -12  13  291.77   23.65
   4 -12 -12  193.56   16.59
  -4 -12  12  155.23   17.12
   4 -12 -11   24.63    7.29
  -4 -12  11   18.74    7.54
  -4 -12  10   46.05   10.17
   4 -12 -10   41.68    8.40
  12  -4   9  119.65   17.21
   4 -12  -9   96.44   12.44
  -4 -12   9   85.38   12.85
  12  -4   8  127.36   16.83
 -12   4   8  116.29    8.25
   4 -12  -8  114.60   13.24
  -4 -12   8   92.55   12.64
  12  -4   7   21.73    8.71
 -12   4   7   11.72    3.34
  -4 -12   7   14.24    6.96
   4 -12  -7   26.52    7.37
  12  -4   6  490.73   30.54
  -4  12  -6  469.83   22.11
  -4 -12   6  484.32   14.34
   4 -12  -6  489.76   26.45
 -12   4   6  477.29   20.19
  -4 -12   6  462.94   27.47
  12  -4   5   32.64    9.16
  -4 -12   5   33.83    8.62
   4 -12  -5   31.49    7.86
  -4 -12   5   32.40    4.40
  -4  12  -5   24.71    5.38
  12  -4   4   12.74    7.11
  -4 -12   4   11.48    7.38
   4 -12  -4   23.19    6.65
  -4 -12   4   19.76    3.84
  12  -4   3  337.61   23.62
   4 -12  -3  349.26   22.85
  -4 -12   3  370.62   24.15
  -4 -12   3  334.23   16.60
  12  -4   2  136.41   15.07
  -4 -12   2  142.41   15.50
   4 -12  -2  156.16   15.59
  -4 -12   2  149.95   11.69
  12  -4   1   15.14    7.36
   4 -12  -1    6.13    5.66
  -4 -12   1    7.80    3.82
  12  -4   0  328.26   21.49
  -4 -12   0  340.35   19.72
   4 -12   0  308.92   22.43
  -4 -12  -1    8.71    4.65
  12  -4  -1    7.40    5.54
   4 -12   1   13.53    7.22
  -4 -12  -2  145.94   14.01
   4 -12   2  174.48   17.49
  -4 -12  -3  337.90   21.97
   4 -12   3  338.98   24.29
  -4 -12  -4   21.35    7.36
   4 -12   4   22.35    7.84
  -4 -12  -5   42.17    9.22
   4 -12   5   36.28    9.20
  -4 -12  -6  514.00   30.00
   4 -12   6  540.96   32.17
  -4 -12  -7   18.37    7.33
   4 -12   7    7.94    7.26
  -4 -12  -8   97.13   14.10
   4 -12   8  107.61   15.99
  -4 -12  -9  110.84   14.96
   4 -12   9   82.80   13.96
  -4 -12 -10   52.57   11.59
   4 -12  10   51.58   12.26
  -4 -12 -11    3.46    7.38
 -12  -4  11   12.58    3.49
   4 -12  11   10.00    8.33
  -4 -12 -12  216.57   22.81
 -12  -4  12  203.33   11.55
   4 -12  12  221.55   23.51
  -4 -12 -13  279.73   26.55
   4 -12  13  302.23   27.47
  -4 -12 -14  223.89   24.34
   4 -12  14  226.90   24.18
  -4 -12 -15   82.27   16.34
   4 -12  15   58.33   14.59
  -4 -12 -16   19.80    8.54
   4 -12  16   37.42   12.00
  -4 -12 -17   25.17   11.12
   4 -12  17   34.15   10.32
  -4 -12 -18  408.62   35.75
   4 -12  18  406.59   35.12
  -4 -12 -19   10.54    9.94
   4 -12  19   37.32   12.49
  -4 -12 -20    8.84   10.73
   4 -12  20    0.73    8.96
  -4 -12 -21  101.58   19.28
   4 -12  21   76.17   16.56
  -4 -12 -22   14.17   10.79
   4 -12  22    8.43    8.88
  -4 -12 -23  166.93   25.92
   4 -12  23  137.60   22.70
  -4 -12 -24  159.74   26.25
   4 -12  24  147.96   23.65
  -4 -12 -25   -0.41   11.61
   4 -12  25    6.05   10.31
  -4 -12 -26  211.98   30.61
   4 -12  26  162.84   25.95
   4 -12  27  -20.35   13.85
   4 -12  28    3.97   10.41
   4 -12  29   48.23   15.96
  -5 -12  22    3.60    6.40
  -5 -12  21   16.68    9.33
  -5 -12  20   20.47    8.72
  -5 -12  19  148.80   18.65
   5 -12 -18   22.15    6.62
  -5 -12  18   22.54    9.31
   5 -12 -17   81.31   10.98
  -5 -12  17   85.45   14.30
   5 -12 -16   73.16   10.86
  -5 -12  16   96.83   14.59
  -5 -12  15  248.18   22.32
   5 -12 -15  318.38   21.29
  12  -5  14  225.83   24.44
   5 -12 -14  178.18   16.21
  -5 -12  14  150.64   17.27
  12  -5  13  474.28   34.23
   5 -12 -13  468.84   26.02
  -5 -12  13  456.85   29.09
  12  -5  12  115.74   17.39
   5 -12 -12  117.80   13.14
  -5 -12  12   98.01   14.14
  12  -5  11   38.33   10.02
  -5 -12  11   57.68   11.42
   5 -12 -11   41.58    8.23
  12  -5  10   48.31   12.93
  -5 -12  10   26.16    7.53
   5 -12 -10   37.47    8.18
  12  -5   9  205.85   21.65
   5 -12  -9  208.36   17.28
  -5 -12   9  224.37   19.08
  12  -5   8    4.31    7.11
  -5 -12   8    6.99    6.17
   5 -12  -8   12.34    5.85
  12  -5   7  149.42   17.69
   5 -12  -7  131.78   14.04
 -12   5   7  111.99    9.08
  -5 -12   7  110.94   14.14
  -5 -12   7  107.96    6.07
  12  -5   6   16.35    8.97
  -5 -12   6   13.10    7.08
   5 -12  -6   18.17    6.62
  -5 -12   6   12.81    2.98
  12  -5   5  301.80   24.25
  -5 -12   5  258.46   20.54
   5 -12  -5  299.19   21.13
  -5 -12   5  293.22   13.98
  12  -5   4   98.10   13.86
   5 -12  -4   87.52   12.20
  -5 -12   4  105.76   13.51
  12  -5   3  418.62   27.22
  -5 -12   3  459.79   27.42
   5 -12  -3  476.69   27.02
  12  -5   2  237.47   19.98
   5 -12  -2  223.30   18.97
  12  -5   1  346.42   23.40
   5 -12  -1  317.13   23.01
  12  -5   0   65.20   10.85
   5 -12   0   63.62   10.96
  12  -5  -1  422.64   24.59
   5 -12   1  365.84   24.97
  12  -5  -2  255.69   18.28
   5 -12   2  238.34   20.60
  12  -5  -3  461.91   24.44
   5 -12   3  431.61   28.24
  12  -5  -4   86.29   10.54
   5 -12   4   82.55   12.63
  12  -5  -5  281.58   17.56
   5 -12   5  296.05   23.79
  12  -5  -6   12.03    4.72
   5 -12   6    2.37    7.41
  12  -5  -7  148.11   11.42
   5 -12   7  117.38   16.09
  -5 -12  -8   24.01    9.49
   5 -12   8   16.35    8.69
  -5 -12  -9  179.07   19.47
   5 -12   9  200.91   21.64
  -5 -12 -10   30.31    9.27
   5 -12  10   18.54    8.74
  -5 -12 -11   42.66   11.43
 -12  -5  11   54.98    6.79
   5 -12  11   38.27   10.48
  -5 -12 -12  145.29   19.20
 -12  -5  12  130.51   10.14
   5 -12  12  139.66   19.31
  -5 -12 -13  488.84   34.98
   5 -12  13  479.32   35.20
  -5 -12 -14  132.31   19.14
   5 -12  14  168.37   21.40
  -5 -12 -15  211.41   24.37
   5 -12  15  209.13   24.84
  -5 -12 -16   50.50   14.45
   5 -12  16   45.89   13.68
  -5 -12 -17   65.29   14.35
   5 -12  17   94.61   17.88
  -5 -12 -18   18.78    9.98
   5 -12  18   20.47   10.67
  -5 -12 -19  151.96   22.79
   5 -12  19  137.57   22.46
  -5 -12 -20    4.60    9.39
   5 -12  20   18.10    9.31
  -5 -12 -21   31.83   13.97
   5 -12  21   36.28   13.01
  -5 -12 -22    3.96   10.51
   5 -12  22    1.14    9.12
  -5 -12 -23   -6.08   11.86
   5 -12  23   32.25   14.04
  -5 -12 -24   69.85   19.03
   5 -12  24   59.48   15.54
  -5 -12 -25  194.47   28.54
   5 -12  25  221.92   29.81
  -5 -12 -26   35.70   15.90
   5 -12  26   62.02   17.76
   5 -12  27  168.67   26.46
   5 -12  28    9.91   10.93
  -6 -12  21   24.19    8.95
  -6 -12  20   11.37    6.46
  -6 -12  19   15.46    7.90
  12  -6  18  104.96   18.17
  -6 -12  18   86.16   13.89
  12  -6  17   14.80   10.19
   6 -12 -17   17.68    6.18
  -6 -12  17   16.98    7.84
  12  -6  16    3.29   10.30
   6 -12 -16   13.13    5.48
  -6 -12  16   10.91    6.67
  12  -6  15   45.73   14.75
   6 -12 -15   27.89    6.86
  -6 -12  15   28.74    8.67
  12  -6  14  924.87   50.91
   6 -12 -14  855.47   35.54
  -6 -12  14  875.77   42.01
  12  -6  13   42.59   12.39
   6 -12 -13   61.09   10.04
  -6 -12  13   54.12   11.32
  12  -6  12   27.34   10.87
   6 -12 -12   24.73    7.09
  -6 -12  12   18.86    7.80
  12  -6  11    7.56    6.55
   6 -12 -11   10.26    5.90
  -6 -12  11   -4.64    6.63
  12  -6  10  151.43   19.39
  -6 -12  10  150.58   16.10
   6 -12 -10  157.91   14.60
  12  -6   9    0.16    7.30
   6 -12  -9    0.11    4.58
  -6 -12   9   10.13    5.45
  12  -6   8    0.60    7.27
  -6 -12   8   -1.00    7.01
   6 -12  -8   12.97    6.30
  12  -6   7   15.66    9.09
   6 -12  -7   14.89    6.27
  -6 -12   7    7.33    6.17
  12  -6   6  570.02   34.61
   6 -12  -6  526.39   27.97
  -6 -12   6  610.54   31.82
  12  -6   5    5.81    6.58
   6 -12  -5   10.21    6.18
  -6 -12   5   18.96    7.99
  12  -6   4   58.30   12.14
   6 -12  -4   55.76    9.84
  -6 -12   4   68.46   11.65
  12  -6   3   75.77   12.45
   6 -12  -3   87.25   12.47
  12  -6   2  596.19   33.41
   6 -12  -2  596.54   31.43
  12  -6   1   75.07   11.75
   6 -12  -1   81.64   12.51
  12  -6   0  -14.42    7.71
   6 -12   0    1.74    6.05
  12  -6  -1   87.70   12.02
   6 -12   1   70.53   11.82
  12  -6  -2  544.70   29.03
   6 -12   2  569.70   32.55
  12  -6  -3   70.16   10.21
   6 -12   3   63.69   11.80
  12  -6  -4   42.62    8.03
   6 -12   4   63.14   11.73
  12  -6  -5    5.15    4.62
   6 -12   5   15.30    8.86
  12  -6  -6  557.77   26.02
   6 -12   6  576.33   34.95
  12  -6  -7    8.92    5.07
   6 -12   7   12.45    8.92
  12  -6  -8    4.36    3.16
   6 -12   8   10.23    7.10
  12  -6  -9   12.96    4.09
   6 -12   9    3.08    6.65
  12  -6 -10  184.34   11.46
   6 -12  10  155.98   20.43
 -12  -6  11    6.31    3.26
   6 -12  11    4.41    8.48
 -12  -6  12   18.24    4.57
   6 -12  12    8.87    7.55
  -6 -12 -13   53.29   12.03
   6 -12  13   45.49   13.86
  -6 -12 -14  757.78   45.22
   6 -12  14  793.92   47.89
  -6 -12 -15   32.51   11.25
   6 -12  15   26.20   11.05
  -6 -12 -16    3.44    8.88
   6 -12  16   18.81   11.57
  -6 -12 -17   14.50    9.59
   6 -12  17    8.98    8.22
  -6 -12 -18   56.10   15.00
   6 -12  18   60.31   15.05
  -6 -12 -19   16.60    9.88
   6 -12  19    2.00    9.20
  -6 -12 -20   11.40   10.49
   6 -12  20    3.89    7.72
  -6 -12 -21   24.43   11.34
   6 -12  21    7.61   10.22
  -6 -12 -22  -14.77   12.11
   6 -12  22   -0.53    9.27
  -6 -12 -23    0.92    9.57
   6 -12  23   -7.33   10.63
  -6 -12 -24    9.15   11.86
   6 -12  24    9.50   11.18
  -6 -12 -25   15.03   11.71
   6 -12  25   27.63   12.47
  -6 -12 -26  445.76   43.93
   6 -12  26  405.59   41.68
   6 -12  27  -13.34   10.41
  12  -7  20    0.61    8.72
  -7 -12  20    0.67    5.52
  12  -7  19    5.06    8.68
  -7 -12  19   18.32    7.74
  12  -7  18   30.13   12.48
  -7 -12  18   28.07    8.58
  12  -7  17  115.72   20.48
  -7 -12  17   79.61   13.01
  12  -7  16   -9.20   10.71
   7 -12 -16    9.24    5.12
  -7 -12  16    1.52    5.40
  12  -7  15  554.18   40.24
  -7 -12  15  503.84   31.25
   7 -12 -15  501.59   26.10
  12  -7  14   54.37   14.21
   7 -12 -14   52.83    8.98
  -7 -12  14   40.53   10.14
  12  -7  13  329.49   30.52
   7 -12 -13  303.13   20.48
  -7 -12  13  342.32   24.85
  12  -7  12  311.06   29.10
  -7 -12  12  326.31   24.07
   7 -12 -12  303.98   20.55
  12  -7  11   37.18   11.68
   7 -12 -11   37.06    7.69
  -7 -12  11   20.30    8.09
  12  -7  10   14.33    9.96
   7 -12 -10   44.71    8.51
  -7 -12  10   36.39    8.62
  12  -7   9  181.18   21.16
   7 -12  -9  164.57   15.38
  -7 -12   9  139.39   15.54
  12  -7   8   14.24    8.66
  -7 -12   8   19.80    7.99
   7 -12  -8    0.40    4.38
  12  -7   7   90.35   14.81
  -7 -12   7   93.80   13.08
   7 -12  -7   96.72   12.73
  12  -7   6   56.58   12.76
  -7 -12   6   45.79   11.10
   7 -12  -6   35.71    8.22
  12  -7   5  339.86   27.71
   7 -12  -5  384.86   24.29
  -7 -12   5  394.18   25.79
  12  -7   4   38.88    9.28
   7 -12  -4   61.68   10.42
  12  -7   3  375.29   27.63
   7 -12  -3  391.37   25.51
  12  -7   2  139.52   17.27
   7 -12  -2  158.71   16.66
  12  -7   1  312.92   23.95
   7 -12  -1  285.90   22.35
  12  -7   0  275.33   21.95
   7 -12   0  307.65   23.75
  12  -7  -1  272.65   21.45
   7 -12   1  291.99   23.59
  12  -7  -2  131.87   14.74
   7 -12   2  122.99   16.51
  12  -7  -3  436.12   25.82
   7 -12   3  422.09   29.09
  12  -7  -4   66.71   10.07
   7 -12   4   46.86   11.05
  12  -7  -5  373.47   22.77
   7 -12   5  403.90   29.41
  12  -7  -6   38.05    7.60
   7 -12   6   28.78    9.28
  12  -7  -7  122.38   12.12
   7 -12   7  148.19   18.72
  12  -7  -8    4.23    3.89
   7 -12   8   -7.63    9.47
  12  -7  -9  215.18   15.01
   7 -12   9  198.75   22.59
  12  -7 -10   45.49    6.81
   7 -12  10   40.37   12.25
 -12  -7  11   47.25    7.48
   7 -12  11   29.81   10.56
 -12  -7  12  319.03   18.69
   7 -12  12  298.50   28.88
 -12  -7  13  337.52   19.06
   7 -12  13  322.50   30.28
   7 -12  14   70.28   16.34
   7 -12  15  430.85   36.03
  -7 -12 -16    1.77    8.72
   7 -12  16    5.55    9.37
  -7 -12 -17   57.36   14.38
   7 -12  17   98.33   19.09
  -7 -12 -18   29.33   10.68
   7 -12  18   14.48    9.17
  -7 -12 -19   27.84   12.87
   7 -12  19    6.68    8.99
  -7 -12 -20  -13.35   11.05
   7 -12  20   20.84   12.34
  -7 -12 -21   -0.02    9.84
   7 -12  21    9.53   12.15
  -7 -12 -22   16.47   11.85
   7 -12  22   15.61   10.16
  -7 -12 -23   -4.06    9.92
   7 -12  23   -0.57    9.67
  -7 -12 -24   47.23   16.09
   7 -12  24   76.16   18.98
  -7 -12 -25  234.09   31.87
   7 -12  25  252.97   31.87
   7 -12  26   53.15   15.52
  12  -8  22   13.09    9.83
  12  -8  21    3.91    9.48
  12  -8  20   15.29   11.13
  12  -8  19    9.53    9.71
  -8 -12  19    2.67    6.04
  12  -8  18  173.48   24.12
  -8 -12  18  160.60   18.08
  12  -8  17   64.28   16.33
  -8 -12  17   29.76    8.25
  12  -8  16  137.60   21.81
  -8 -12  16   96.05   13.79
  12  -8  15   59.33   15.11
  -8 -12  15   58.63   10.90
  12  -8  14  269.20   28.51
  -8 -12  14  273.31   22.60
   8 -12 -14  275.54   19.26
  12  -8  13    0.91    8.48
  -8 -12  13   26.53    8.36
   8 -12 -13   18.10    6.50
  12  -8  12  225.88   26.50
   8 -12 -12  241.90   18.53
  -8 -12  12  288.83   22.93
  12  -8  11  186.18   23.47
  -8 -12  11  173.46   17.72
   8 -12 -11  169.26   15.60
  12  -8  10   18.06   10.34
  -8 -12  10    6.04    5.17
   8 -12 -10   -9.57    6.40
  12  -8   9   81.51   16.33
  -8 -12   9   86.36   13.30
   8 -12  -9   99.70   12.79
  12  -8   8    4.82    7.53
  -8 -12   8   15.63    7.71
   8 -12  -8   11.26    6.33
  12  -8   7   39.90   12.53
  -8 -12   7   40.37    9.69
   8 -12  -7   24.00    7.42
  12  -8   6  398.91   30.71
   8 -12  -6  383.28   24.68
  -8 -12   6  428.99   27.46
  12  -8   5  213.01   21.95
   8 -12  -5  149.40   15.74
  12  -8   4   50.75   11.78
   8 -12  -4   56.18   10.90
  12  -8   3  134.69   16.77
   8 -12  -3  146.40   16.19
  12  -8   2  248.65   22.76
   8 -12  -2  248.67   21.18
  12  -8   1   85.19   13.60
   8 -12  -1   79.18   12.75
  12  -8   0  369.10   26.00
   8 -12   0  373.07   26.69
  12  -8  -1   82.13   12.78
   8 -12   1   55.23   12.23
  12  -8  -2  258.96   20.76
   8 -12   2  239.58   22.35
  12  -8  -3  146.04   15.56
   8 -12   3  141.15   17.52
  12  -8  -4   70.28   11.11
   8 -12   4   51.66   11.31
  12  -8  -5  150.57   15.36
   8 -12   5  151.06   18.59
  12  -8  -6  430.99   24.73
   8 -12   6  403.22   31.31
  12  -8  -7   18.02    5.76
   8 -12   7    9.18    8.05
  12  -8  -8    9.31    4.67
   8 -12   8   11.12    9.73
  12  -8  -9   97.26   11.12
   8 -12   9   93.01   16.76
  12  -8 -10    8.45    4.19
 -12  -8  10    7.16    4.32
   8 -12  10    3.30    9.68
   8 -12  11  194.67   24.07
 -12  -8  11  206.52   16.18
 -12  -8  12  279.95   18.65
   8 -12  12  287.94   28.77
   8 -12  13   21.37   12.10
 -12  -8  13   27.96    6.59
   8 -12  14  246.84   27.25
   8 -12  15   59.73   15.98
   8 -12  16  108.40   19.79
   8 -12  17   39.34   14.48
  -8 -12 -18  157.47   23.18
   8 -12  18  195.52   26.59
  -8 -12 -19    4.22   10.56
   8 -12  19   -1.77   10.36
  -8 -12 -20   34.66   14.68
   8 -12  20   -6.71   11.99
  -8 -12 -21   34.89   13.46
   8 -12  21   28.43   12.13
  -8 -12 -22   32.41   13.93
   8 -12  22   17.05   12.58
  -8 -12 -23   42.36   15.36
   8 -12  23   64.40   17.82
  -8 -12 -24  193.53   28.57
   8 -12  24  165.97   25.90
  -8 -12 -25   -9.97   12.00
   8 -12  25   -2.13   10.44
  12  -9  24   66.34   18.75
  12  -9  23   56.21   17.65
  12  -9  22   53.43   16.04
  12  -9  21   -5.73   11.27
  12  -9  20  158.40   24.87
  12  -9  19   21.75   11.07
  12  -9  18  109.58   19.85
  12  -9  17   -0.68    7.62
  -9 -12  17   -4.21    6.60
  12  -9  16   22.15   10.76
  -9 -12  16   12.31    6.27
  12  -9  15  129.45   21.08
  -9 -12  15  134.59   16.16
  12  -9  14   -4.06    7.63
  -9 -12  14   20.82    7.51
  12  -9  13  315.01   31.01
  -9 -12  13  363.36   25.87
   9 -12 -13  329.27   21.42
  12  -9  12   43.46   13.37
  -9 -12  12   63.07   11.36
   9 -12 -12   64.82    9.55
  12  -9  11  148.55   21.30
   9 -12 -11  155.60   14.78
  -9 -12  11  145.07   15.91
  12  -9  10   48.36   12.35
  -9 -12  10   67.49   11.69
   9 -12 -10   71.20   10.26
  12  -9   9    2.04    8.16
  -9 -12   9   -0.67    5.50
   9 -12  -9    1.90    5.25
  12  -9   8   40.32   12.44
  -9 -12   8   46.64   10.38
   9 -12  -8   57.13   10.67
  12  -9   7   69.87   15.02
  -9 -12   7   95.93   14.00
   9 -12  -7   84.96   12.18
  12  -9   6  118.19   17.82
   9 -12  -6  127.28   14.80
  12  -9   5   25.03    9.77
   9 -12  -5   22.59    7.40
  12  -9   4   97.61   15.63
   9 -12  -4  111.57   14.57
  12  -9   3   45.11   11.50
   9 -12  -3   57.82   10.70
  12  -9   2   37.79   11.76
   9 -12  -2   32.92    9.78
  12  -9   1  516.72   32.77
   9 -12  -1  499.83   31.31
  12  -9   0   59.42   11.63
   9 -12   0   22.92    8.63
  12  -9  -1  547.06   32.45
   9 -12   1  551.65   33.82
  12  -9  -2    4.28    5.27
   9 -12   2   27.10   10.04
  12  -9  -3   67.97   11.66
   9 -12   3   53.17   12.05
  12  -9  -4   82.10   12.24
   9 -12   4  101.82   16.07
  12  -9  -5   22.10    7.75
   9 -12   5   13.07    8.52
  12  -9  -6  123.71   13.89
   9 -12   6  144.38   19.33
  12  -9  -7   95.11   11.99
   9 -12   7  103.02   17.17
  12  -9  -8   40.98    8.22
   9 -12   8   27.22   10.63
   9 -12   9   13.31   10.61
  12  -9  -9   12.53    5.72
   9 -12  10   88.14   16.32
  12  -9 -10   68.15    9.26
 -12  -9  10   74.64   10.87
   9 -12  11  130.56   20.42
 -12  -9  11  172.33   15.80
   9 -12  12   38.20   12.96
 -12  -9  12   62.17    9.57
 -12  -9  13  363.73   22.41
   9 -12  13  246.63   28.30
   9 -12  14    1.60    9.89
   9 -12  15  176.36   24.75
   9 -12  16   14.77    9.15
   9 -12  17   19.26   12.22
   9 -12  18  106.98   21.50
   9 -12  19   45.41   14.47
  -9 -12 -20  145.60   23.47
   9 -12  20  154.71   25.18
  -9 -12 -21   -6.82   11.31
   9 -12  21   -4.67   10.12
  -9 -12 -22   52.99   16.43
   9 -12  22   48.47   15.15
  -9 -12 -23   29.31   12.77
   9 -12  23   38.47   17.01
  -9 -12 -24   55.94   17.43
   9 -12  24   20.65   13.91
  12 -10  23   61.29   16.88
  12 -10  22   41.46   16.28
  12 -10  21   36.41   15.99
  12 -10  20  173.94   26.12
  12 -10  19    7.22    9.29
  12 -10  18   -0.51    9.85
  12 -10  17   92.03   18.82
  12 -10  16   -3.05   10.15
 -10 -12  16   20.67    7.46
  12 -10  15   44.99   12.80
 -10 -12  15   69.25   11.98
  12 -10  14  340.05   33.85
 -10 -12  14  343.78   25.11
  12 -10  13   12.10    8.77
 -10 -12  13   12.54    7.06
  12 -10  12  164.58   23.41
 -10 -12  12  166.59   17.76
  10 -12 -12  167.29   15.66
  12 -10  11   28.77   11.14
 -10 -12  11   30.25    8.77
  10 -12 -11   46.09    9.21
  12 -10  10  132.88   20.40
 -10 -12  10  147.75   16.90
  10 -12 -10  139.24   14.92
  12 -10   9   81.81   16.22
 -10 -12   9   71.98   11.99
  10 -12  -9   92.37   12.15
  12 -10   8   94.72   16.62
 -10 -12   8  101.96   14.05
  10 -12  -8   90.47   12.62
  12 -10   7   82.53   16.48
 -10 -12   7   90.83   14.07
  10 -12  -7   82.87   12.62
  12 -10   6    7.09    8.54
  10 -12  -6    0.71    5.22
  12 -10   5   76.62   14.96
  10 -12  -5   92.56   12.89
  12 -10   4  112.08   17.12
  10 -12  -4  119.88   15.39
  12 -10   3  159.08   19.91
  10 -12  -3  192.00   19.48
  10 -12  -2  266.34   22.99
  12 -10   2  266.56   24.34
  12 -10   1   56.29   12.45
  10 -12  -1   59.24   12.08
  12 -10   0  657.13   37.43
  10 -12   0  619.83   36.22
  12 -10  -1   63.45   12.29
  10 -12   1   45.87   12.04
  12 -10  -2  324.62   25.19
  10 -12   2  268.74   24.92
  12 -10  -3  130.02   15.61
  10 -12   3  203.90   22.16
  12 -10  -4   79.49   11.94
  10 -12   4  116.63   17.74
  12 -10  -5   84.56   12.39
  10 -12   5   71.98   14.99
  10 -12   6    2.14    7.23
  12 -10  -6    1.89    5.05
  10 -12   7   83.51   15.75
  12 -10  -7   91.78   12.37
  12 -10  -8  105.88   12.97
  10 -12   8  148.97   20.84
  12 -10  -9   92.17   11.79
  10 -12   9   85.89   16.84
  10 -12  10  120.81   19.82
 -12 -10  10  174.05   16.65
  10 -12  11   57.23   15.31
 -12 -10  11   59.57   10.01
  10 -12  12  125.13   21.10
 -12 -10  12  159.00   15.69
  10 -12  13   24.65   12.53
 -12 -10  13   40.13    8.30
  10 -12  14  362.87   35.11
  10 -12  15  103.61   20.08
  10 -12  16   25.96   13.04
  10 -12  17   92.63   19.89
  10 -12  18   31.11   13.78
  10 -12  19   -4.49    8.89
  10 -12  20  141.44   24.71
  10 -12  21   -6.23   11.72
  10 -12  22    2.13    9.98
 -10 -12 -22   25.89   12.45
  10 -12  23   44.55   15.37
 -10 -12 -23   65.30   17.07
  12 -11  22   -8.50   11.08
  12 -11  21   94.08   20.53
  12 -11  20    0.39   10.39
  12 -11  19   29.22   14.69
  12 -11  18    2.73    9.75
  12 -11  17   96.12   20.13
  12 -11  16   52.98   16.69
  12 -11  15    9.13    9.47
 -11 -12  15   23.48    7.92
  12 -11  14   85.71   16.68
 -11 -12  14  114.11   14.67
  12 -11  13  455.47   38.96
 -11 -12  13  505.75   30.90
  12 -11  12  282.49   30.13
 -11 -12  12  293.63   23.28
  12 -11  11  370.18   34.01
 -11 -12  11  425.71   28.54
  12 -11  10  145.66   21.85
 -11 -12  10  134.35   16.20
  11 -12 -10  116.07   13.89
  12 -11   9   16.73    9.54
 -11 -12   9   13.59    6.82
  11 -12  -9   15.39    7.06
  12 -11   8   25.15   11.51
 -11 -12   8   42.61    9.84
  11 -12  -8   28.87    8.24
  12 -11   7   28.59   10.94
  11 -12  -7   41.39    9.48
  12 -11   6   60.85   14.25
  11 -12  -6   71.80   12.13
  12 -11   5  118.99   18.66
  11 -12  -5  125.83   15.44
  12 -11   4   78.28   15.06
  11 -12  -4   43.97    9.88
  12 -11   3    2.15    7.48
  11 -12  -3    8.39    6.09
  12 -11   2   57.42   13.13
  11 -12  -2   89.33   14.08
  11 -12  -1  770.46   41.00
  12 -11   1  714.74   41.11
  11 -12   0  281.71   25.07
  12 -11   0  273.38   24.40
  12 -11  -1  819.99   42.83
  11 -12   1  798.50   43.44
  12 -11  -2   63.00   12.34
  11 -12   2   86.75   14.32
  11 -12   3   18.03    9.77
  12 -11  -3   10.11    6.80
  12 -11  -4   44.98   10.38
  11 -12   4   36.22   11.14
  12 -11  -5  137.20   15.99
  11 -12   5  101.78   16.36
  11 -12   6   30.60   11.19
  12 -11  -6   62.67   11.36
  11 -12   7   56.01   13.37
  12 -11  -7   49.03   10.28
  11 -12   8   13.65    9.41
  12 -11  -8   36.06    8.66
  11 -12   9    6.67    9.58
 -12 -11   9   28.55    8.43
  12 -11  -9    9.17    5.74
  11 -12  10  122.04   20.62
 -12 -11  10  145.45   16.28
  11 -12  11  411.09   35.99
 -12 -11  11  430.70   27.64
  11 -12  12  261.60   29.46
 -12 -11  12  254.36   21.22
  11 -12  13  374.01   35.58
 -12 -11  13  427.21   27.23
  11 -12  14  123.00   21.77
  11 -12  15   18.18   10.85
  11 -12  16   51.21   15.68
  11 -12  17  111.28   22.20
  11 -12  18   21.64   10.72
  11 -12  19   23.53   12.04
  11 -12  20  -11.28   13.34
  11 -12  21   54.32   17.54
  11 -12  22    1.44   10.92
  12 -12   0 1800.23   68.80
  12 -12   1   13.70    9.16
  12 -12  -1   -8.97    8.51
  12 -12  -2   -6.36    7.61
  12 -12   2   -2.30    6.69
  12 -12   3   51.74   13.61
  12 -12  -3   38.88   10.50
  12 -12   4  130.05   19.73
  12 -12  -4  134.99   16.90
  12 -12   5  -12.73   10.83
  12 -12  -5    5.94    6.85
  12 -12   6    4.50   10.95
  12 -12  -6    3.95    5.92
  12 -12   7   35.98   13.68
  12 -12  -7   20.39    7.79
  12 -12   8   15.97   11.93
 -12 -12   8    8.18    7.21
  12 -12  -8    3.61    4.96
  12 -12   9   -1.21   10.02
 -12 -12   9   -7.82    7.41
  12 -12  -9    4.21    5.16
  12 -12  10   13.36   10.46
 -12 -12  10   27.98    8.91
  12 -12  11  102.88   20.54
 -12 -12  11  119.49   15.55
  12 -12  12 1378.82   69.32
 -12 -12  12 1369.07   53.94
  12 -12  13   19.62   12.27
 -12 -12  13   31.05    8.99
  12 -12  14   15.87   12.46
  12 -12  15    5.60   10.02
  12 -12  16  139.32   24.29
  12 -12  17   28.05   13.68
  12 -12  18   -3.83   11.40
  12 -12  19    1.20    8.94
  12 -12  20   48.52   15.90
  12 -12  21   31.70   15.28
   0 -13   0   73.11   11.26
   0 -13   1 1081.63   44.10
   0 -13  -1 1142.39   45.39
   0 -13   2  221.18   19.72
   0 -13  -2  222.41   19.09
   0 -13  -3   -0.57    6.06
   0 -13   3    2.52    7.32
   0 -13  -4   82.87   12.19
   0 -13  -4   86.48   11.88
   0 -13   4   83.99   12.93
   0 -13  -5   -4.28    6.30
   0 -13   5   -2.62    6.57
   0 -13  -5   -0.96    5.70
   0 -13  -6   -3.27    7.11
   0 -13   6   -5.84    7.40
   0 -13  -7  120.16   16.23
   0 -13   7   99.40   14.32
 -13   0   7  108.22    9.81
   0 -13  -8   13.68    8.61
   0 -13   8   21.08    8.49
   0 -13  -9   27.06   10.60
   0 -13   9   18.90    8.77
   0 -13 -10   90.96   14.82
   0 -13  10   79.85   13.99
   0 -13 -11  505.91   35.76
   0 -13  11  484.81   32.35
   0 -13 -12   26.85   10.26
   0 -13  12   37.78   10.42
   0 -13 -13  440.35   35.07
   0 -13  13  509.36   34.36
   0 -13 -14  256.24   27.52
   0 -13  14  206.45   22.73
   0 -13 -15  118.52   20.20
   0 -13  15  143.02   19.69
   0 -13 -16  153.13   23.71
   0 -13  16  209.28   23.58
   0 -13 -17  162.36   23.87
   0 -13  17  127.17   18.77
   0 -13 -18   28.77   12.50
   0 -13  18   34.98   12.79
   0 -13 -19  139.41   23.57
   0 -13  19  130.33   19.89
   0 -13 -20   -4.69    9.78
   0 -13  20   -4.18    6.64
   0 -13 -21  194.05   28.60
   0 -13  21  147.18   21.56
   0 -13 -22  212.10   30.15
   0 -13  22  181.12   24.50
   0 -13 -23  294.25   35.92
   0 -13  23  369.00   35.22
   0 -13 -24   72.31   19.09
   0 -13  24   34.81   12.85
   0 -13 -25  102.87   22.37
   0 -13  25  107.95   20.27
   0 -13 -26   71.88   20.87
   0 -13  26   83.58   18.42
   0 -13  27   22.79   10.51
   0 -13  28   -1.61   10.03
  -1 -13  27  150.40   23.51
  -1 -13  26    3.39    8.54
   1 -13 -25  261.49   35.48
  -1 -13  25  167.68   24.43
   1 -13 -24   11.90   12.87
  -1 -13  24   -2.78    7.71
   1 -13 -23  123.00   24.29
  -1 -13  23   78.66   16.41
   1 -13 -22  473.26   43.80
  -1 -13  22  410.37   35.93
   1 -13 -21   38.84   16.21
  -1 -13  21   27.67   11.18
   1 -13 -20   -1.93    7.74
  -1 -13  20   11.08    8.62
   1 -13 -19   32.07   14.78
  -1 -13  19    8.25    7.16
   1 -13 -18  166.90   24.53
  -1 -13  18  141.68   19.86
   1 -13 -17   82.78   17.81
  -1 -13  17   81.32   15.63
   1 -13 -16    7.99   11.71
  -1 -13  16   -2.84    7.06
   1 -13 -15  539.38   41.54
  -1 -13  15  524.37   35.76
   1 -13 -14  128.97   20.05
  -1 -13  14  133.40   18.59
   1 -13 -13  482.98   37.10
  -1 -13  13  490.32   32.99
   1 -13 -12   14.29   11.46
  -1 -13  12   -2.16    7.32
   1 -13 -11  247.01   30.41
  -1 -13  11  322.17   26.00
   1 -13 -10  287.39   26.45
  -1 -13  10  267.88   22.84
   1 -13  -9  200.86   21.92
  -1 -13   9  216.55   20.88
  -1 -13   8    6.83    7.18
  -1 -13   7    1.65    5.95
   1 -13  -7   -3.85    5.68
 -13   1   7    0.78    2.10
  -1 -13   6   21.33    8.01
   1 -13  -6   35.34    8.46
 -13   1   6   35.53    5.92
  -1 -13   5    9.01    7.10
   1 -13  -5    4.20    5.87
  -1 -13   4   28.21    8.33
   1 -13  -4   15.11    6.50
  -1 -13   3  548.33   31.01
   1 -13  -3  549.62   30.35
  -1 -13   2  383.23   25.49
   1 -13  -2  384.50   24.88
   1 -13  -1  694.42   34.07
  -1 -13   1  630.18   33.10
  -1 -13   0    1.77    6.57
   1 -13   0    3.15    6.81
  -1 -13  -1  534.74   29.19
   1 -13   1  597.23   32.08
  -1 -13  -1  598.76   31.56
  -1 -13  -2  363.76   23.60
   1 -13   2  352.50   24.94
  -1 -13  -2  362.42   24.42
  -1 -13  -3  583.02   30.84
   1 -13   3  577.41   32.18
  -1 -13  -3  563.31   30.85
  -1 -13  -4   20.63    8.04
   1 -13   4   26.89    8.61
  -1 -13  -5    2.99    6.07
   1 -13   5    7.75    8.12
  -1 -13  -6   27.76    8.25
   1 -13   6   42.79   10.32
  -1 -13  -7    1.97    6.70
 -13  -1   7    3.84    3.10
   1 -13   7    1.11    5.60
  -1 -13  -8   -2.41    6.36
   1 -13   8   -1.37    7.60
  -1 -13  -9  244.79   23.42
   1 -13   9  237.43   22.26
  -1 -13 -10  241.59   24.97
   1 -13  10  279.94   24.40
  -1 -13 -11  397.43   31.79
   1 -13  11  371.95   29.06
  -1 -13 -12    6.06    8.46
   1 -13  12   13.36    7.59
  -1 -13 -13  442.38   34.95
   1 -13  13  480.10   33.53
  -1 -13 -14  179.41   23.60
   1 -13  14  143.77   19.18
  -1 -13 -15  553.62   40.32
   1 -13  15  552.27   37.64
  -1 -13 -16    8.63    9.78
   1 -13  16   12.76   10.48
  -1 -13 -17   82.15   17.06
   1 -13  17   80.64   15.50
  -1 -13 -18  170.41   24.32
   1 -13  18  173.08   22.56
  -1 -13 -19   -0.98   11.28
   1 -13  19   -9.06    9.70
  -1 -13 -20  -13.14   12.74
   1 -13  20    9.11   10.71
  -1 -13 -21   42.85   16.08
   1 -13  21   56.23   15.83
  -1 -13 -22  362.52   38.48
   1 -13  22  412.42   36.48
  -1 -13 -23   99.04   21.41
   1 -13  23   78.89   17.05
  -1 -13 -24    4.14   10.51
   1 -13  24   21.61   12.13
  -1 -13 -25  202.70   30.67
   1 -13  25  223.57   28.51
  -1 -13 -26  -18.18   15.43
   1 -13  26  -11.52    9.01
   1 -13  27  145.82   24.28
   1 -13  28   14.65    9.79
   1 -13  29   49.08   16.38
  -2 -13  26   30.67   11.83
  -2 -13  25   -2.16    7.73
  -2 -13  24  149.51   21.86
  -2 -13  23   18.23    9.02
  -2 -13  22   65.59   15.25
  -2 -13  21  260.23   27.33
  -2 -13  20   17.49    8.99
  -2 -13  19  254.49   26.42
  -2 -13  18   32.84   11.28
  -2 -13  17   -0.86    7.02
  -2 -13  16  166.41   20.26
  -2 -13  15   56.44   12.52
  -2 -13  14  260.75   24.04
  -2 -13  13   67.58   12.69
  -2 -13  12  292.23   24.99
  -2 -13  11    0.31    5.82
  -2 -13  10  309.63   24.96
   2 -13 -10  291.52   21.37
  -2 -13   9  382.55   27.28
   2 -13  -9  422.00   25.80
   2 -13  -8  112.12   14.26
  -2 -13   8  119.53   14.92
  -2 -13   7   46.81   10.65
   2 -13  -7   31.23    8.15
   2 -13  -6    9.19    6.30
  -2 -13   6   12.49    6.62
 -13   2   6    7.91    3.19
   2 -13  -5   37.21    8.85
  -2 -13   5   32.27    9.16
   2 -13  -4   80.11   11.61
  -2 -13   4   75.94   12.14
   2 -13  -3  969.71   40.98
  -2 -13   3  997.21   42.34
   2 -13  -2  261.23   20.89
  -2 -13   2  261.62   21.17
  -2 -13   1    0.73    4.08
  -2 -13   1    2.82    5.40
   2 -13  -1   15.50    7.54
  -2 -13   0  128.72   12.83
  -2 -13   0  134.26   15.25
   2 -13   0  104.32   13.86
  -2 -13  -1    7.84    4.40
   2 -13   1    2.87    5.93
  -2 -13  -1    9.17    6.89
  -2 -13  -2  227.21   17.94
   2 -13   2  214.92   19.69
  -2 -13  -3 1010.07   40.65
   2 -13   3  851.73   40.52
  -2 -13  -4   60.00   10.34
   2 -13   4   62.20   11.42
  -2 -13  -5   33.59    9.19
   2 -13   5   31.13    9.04
  -2 -13  -6   22.87    8.30
   2 -13   6   12.72    7.58
  -2 -13  -7   89.65   13.62
   2 -13   7   54.78   11.14
  -2 -13  -8   96.94   14.63
   2 -13   8   87.98   14.19
  -2 -13  -9  395.62   29.18
   2 -13   9  393.07   28.78
  -2 -13 -10  322.98   27.61
   2 -13  10  307.90   25.63
  -2 -13 -11    9.79    8.39
   2 -13  11   17.44    9.58
  -2 -13 -12  308.07   28.14
   2 -13  12  298.91   26.68
  -2 -13 -13   51.43   13.43
   2 -13  13   63.93   14.11
  -2 -13 -14  256.97   26.60
   2 -13  14  288.06   27.37
  -2 -13 -15   40.35   13.13
   2 -13  15   67.03   14.95
  -2 -13 -16  150.10   22.19
   2 -13  16  169.11   22.08
  -2 -13 -17   -8.36    9.57
   2 -13  17   -9.76    9.97
  -2 -13 -18   39.79   14.49
   2 -13  18   45.23   14.78
  -2 -13 -19  214.48   27.03
   2 -13  19  198.20   24.73
  -2 -13 -20   35.69   14.95
   2 -13  20   36.37   13.08
  -2 -13 -21  234.21   29.22
   2 -13  21  260.22   29.40
  -2 -13 -22  102.61   22.40
   2 -13  22   75.43   17.09
  -2 -13 -23   24.42   11.70
   2 -13  23   17.15   11.03
  -2 -13 -24  193.10   29.42
   2 -13  24  119.68   20.90
  -2 -13 -25  -12.04   10.68
   2 -13  25    0.76    7.27
  -2 -13 -26   37.27   15.39
   2 -13  26   14.43   10.53
   2 -13  27   53.45   16.71
   2 -13  28   37.77   13.61
   2 -13  29   -0.72    9.84
  -3 -13  25   45.63   13.40
  -3 -13  24   50.77   13.58
  -3 -13  23  116.76   19.42
  -3 -13  22  141.95   20.50
  -3 -13  21  134.77   19.97
  -3 -13  20   -0.20    7.15
  -3 -13  19  243.79   25.40
  -3 -13  18   91.74   16.09
  -3 -13  17  103.52   15.95
  -3 -13  16   66.63   12.79
  -3 -13  15  140.63   17.98
   3 -13 -14   73.14   11.69
  -3 -13  14   76.98   13.61
   3 -13 -13  131.52   15.42
  -3 -13  13  162.73   18.54
   3 -13 -12   69.33   11.23
  -3 -13  12   52.47   10.56
  -3 -13  11  333.67   25.84
   3 -13 -11  370.50   24.53
   3 -13 -10   81.15   11.86
  -3 -13  10   56.52   11.23
   3 -13  -9   63.42   10.88
  -3 -13   9   76.66   12.47
  -3 -13   8  106.39   14.59
   3 -13  -8  103.55   13.52
  -3 -13   7  163.81   17.17
   3 -13  -7  175.45   16.92
   3 -13  -6   18.93    6.60
  -3 -13   6   24.47    7.89
   3 -13  -5  261.03   20.15
  -3 -13   5  231.33   20.12
  -3  13  -5  214.97   13.65
   3 -13  -4  182.44   17.09
  -3 -13   4  187.85   18.21
  -3  13  -4  139.69   11.67
  -3 -13   3  146.86   10.99
  -3  13  -3  139.36   12.23
   3 -13  -3  135.02   14.94
  -3 -13   3  159.20   17.25
  -3 -13   2  439.65   20.86
   3 -13  -2  385.18   25.11
  -3 -13   2  418.28   26.77
  -3 -13   1  302.98   18.15
   3 -13  -1  285.41   21.97
  -3 -13   1  298.03   22.83
  -3 -13   0   11.97    5.15
   3 -13   0    6.17    6.92
  -3 -13   0    4.37    5.46
  -3 -13  -1  289.37   19.42
   3 -13   1  301.87   22.83
  -3 -13  -2  470.25   26.04
   3 -13   2  465.89   28.86
  -3 -13  -3  163.26   15.80
   3 -13   3  181.29   18.49
  -3 -13  -4  164.17   16.94
   3 -13   4  169.23   17.99
  -3 -13  -5  254.73   21.01
   3 -13   5  245.45   22.01
  -3 -13  -6   32.60    8.64
   3 -13   6    9.39    6.25
  -3 -13  -7  179.98   18.57
   3 -13   7  194.25   20.22
  -3 -13  -8  121.93   16.08
   3 -13   8  130.65   17.02
  -3 -13  -9   85.60   14.27
   3 -13   9   70.63   13.04
  -3 -13 -10   86.68   15.01
   3 -13  10   67.83   13.87
  -3 -13 -11  377.97   30.21
   3 -13  11  358.45   29.25
  -3 -13 -12   50.68   12.63
   3 -13  12   56.90   12.50
  -3 -13 -13  135.29   19.31
   3 -13  13  160.57   20.47
  -3 -13 -14   32.39   11.08
   3 -13  14   55.68   14.30
  -3 -13 -15  185.08   23.53
   3 -13  15  151.82   21.84
  -3 -13 -16   65.77   14.81
   3 -13  16   66.23   16.01
  -3 -13 -17   75.07   16.08
   3 -13  17  102.98   18.89
  -3 -13 -18   42.16   13.72
   3 -13  18   89.61   18.15
  -3 -13 -19  260.81   29.77
   3 -13  19  271.03   29.81
  -3 -13 -20   15.78   11.58
   3 -13  20    9.63    7.62
  -3 -13 -21  122.55   22.32
   3 -13  21   95.43   18.49
  -3 -13 -22  138.07   23.88
   3 -13  22  113.24   20.66
  -3 -13 -23   85.95   19.88
   3 -13  23  108.31   21.46
  -3 -13 -24   43.80   15.05
   3 -13  24   44.89   15.63
  -3 -13 -25   87.24   20.36
   3 -13  25   79.02   17.78
  -3 -13 -26   12.68   12.67
   3 -13  26    0.65   10.22
   3 -13  27   79.67   18.66
   3 -13  28    8.54    9.74
   3 -13  29    1.57    9.40
  -4 -13  23  184.93   22.94
  -4 -13  22  109.52   18.17
  -4 -13  21    1.68    6.39
  -4 -13  20   25.79   11.18
   4 -13 -19    7.72    5.92
  -4 -13  19   -4.41    7.75
   4 -13 -18  112.49   15.05
  -4 -13  18  145.89   19.28
   4 -13 -17  395.86   25.13
  -4 -13  17  440.00   32.54
   4 -13 -16   98.90   13.38
  -4 -13  16   89.85   14.97
   4 -13 -15    3.25    5.11
  -4 -13  15    1.18    6.54
   4 -13 -14  119.61   13.65
  -4 -13  14   91.83   14.68
   4 -13 -13   50.75    9.80
  -4 -13  13   31.90    9.43
   4 -13 -12   12.42    6.19
  -4 -13  12    2.71    6.05
   4 -13 -11   76.79   12.08
  -4 -13  11   75.60   12.90
  -4 -13  10  142.36   16.26
   4 -13 -10  173.64   16.63
   4 -13  -9   50.24    9.76
  -4 -13   9   48.97   10.83
  -4 -13   8   62.75   11.16
   4 -13  -8   87.62   12.35
   4 -13  -7  214.27   18.28
  -4 -13   7  221.83   19.91
  -4 -13   6   -5.63    7.13
   4 -13  -6    5.65    6.05
  -4 -13   5  274.83   12.37
  -4  13  -5  244.91   16.33
   4 -13  -5  267.14   20.41
  -4 -13   5  269.27   21.72
  -4 -13   4   93.35    8.25
  -4 -13   4   94.49   13.20
   4 -13  -4   76.99   11.24
  -4 -13   3  229.36   14.16
  -4 -13   3  232.65   20.29
   4 -13  -3  239.81   19.66
  -4 -13   2  273.04   16.33
  -4 -13   2  273.02   21.69
   4 -13  -2  281.54   21.69
  -4 -13   1  299.44   18.09
   4 -13  -1  304.79   22.56
  -4 -13   1  292.10   23.62
  -4 -13   0   11.45    5.52
   4 -13   0    1.98    6.09
  -4 -13  -1  296.43   19.61
   4 -13   1  334.77   23.95
  -4 -13  -2  320.49   21.25
   4 -13   2  270.58   22.07
  -4 -13  -3  238.54   18.95
   4 -13   3  200.48   19.85
  -4 -13  -4   76.06   11.53
   4 -13   4   92.03   14.39
  -4 -13  -5  305.77   22.83
   4 -13   5  248.25   22.74
  -4 -13  -6   15.46    8.23
   4 -13   6   -3.95    9.53
  -4 -13  -7  201.33   19.98
   4 -13   7  226.84   22.33
  -4 -13  -8   69.21   12.91
   4 -13   8  100.27   15.64
  -4 -13  -9   37.34    9.64
   4 -13   9   44.06   11.20
  -4 -13 -10  166.88   19.75
   4 -13  10  156.15   20.16
  -4 -13 -11   42.99   11.45
   4 -13  11   48.84   12.85
  -4 -13 -12   12.65    7.54
   4 -13  12   17.39    8.27
  -4 -13 -13   38.88   10.83
   4 -13  13   31.59   10.88
  -4 -13 -14  106.54   18.10
   4 -13  14  123.61   18.71
  -4 -13 -15    6.56    8.14
   4 -13  15   21.57    8.85
  -4 -13 -16   90.63   17.06
   4 -13  16  111.42   19.49
  -4 -13 -17  361.40   33.57
   4 -13  17  438.20   36.47
  -4 -13 -18  205.92   26.60
   4 -13  18  149.91   22.47
  -4 -13 -19    1.85    8.66
   4 -13  19   -2.61   10.00
  -4 -13 -20   27.08   11.05
   4 -13  20   40.39   12.79
  -4 -13 -21   16.07   11.31
   4 -13  21   -1.35   10.11
  -4 -13 -22   50.56   16.42
   4 -13  22  116.15   21.43
  -4 -13 -23  112.21   21.73
   4 -13  23  176.92   26.00
  -4 -13 -24  117.38   23.62
   4 -13  24  118.23   21.85
  -4 -13 -25  -21.23   13.67
   4 -13  25   10.89   10.05
  -4 -13 -26    5.34   12.66
   4 -13  26   30.63   13.40
   4 -13  27   32.83   14.27
   4 -13  28   51.77   16.30
  -5 -13  22   10.37    8.44
  -5 -13  21    5.44    7.31
  -5 -13  20   32.17    9.46
  -5 -13  19   32.11   10.80
   5 -13 -18    5.01    5.45
  -5 -13  18    9.24    7.08
   5 -13 -17    7.06    5.65
  -5 -13  17   -3.59    8.19
   5 -13 -16  519.16   28.81
  -5 -13  16  456.11   31.68
  -5 -13  15  370.86   28.17
   5 -13 -15  341.82   23.27
   5 -13 -14   78.71   11.82
  -5 -13  14   58.10   11.24
  -5 -13  13  191.78   19.79
   5 -13 -13  157.37   15.57
   5 -13 -12  111.50   13.28
  -5 -13  12  117.20   15.73
  13  -5  11   71.28   15.08
  -5 -13  11   58.00   11.08
   5 -13 -11   88.90   12.28
  13  -5  10   19.80    8.25
   5 -13 -10   14.68    6.49
  -5 -13  10    7.62    6.79
  13  -5   9   25.26   10.76
  -5 -13   9   11.47    5.90
   5 -13  -9   20.93    6.84
  13  -5   8  279.16   25.16
  -5 -13   8  249.79   21.61
   5 -13  -8  272.79   20.67
  13  -5   7    2.26    7.66
   5 -13  -7    9.33    6.49
  -5 -13   7    3.67    6.10
  13  -5   6    6.26    6.73
  -5 -13   6    4.53    7.03
   5 -13  -6   10.08    6.35
  -5 -13   6   14.06    3.19
  13  -5   5   22.26    8.53
  -5 -13   5   20.87    7.56
   5 -13  -5   17.73    7.45
  -5 -13   5   11.83    3.25
  13  -5   4  554.85   32.35
  -5 -13   4  503.46   30.18
   5 -13  -4  525.59   29.51
  -5 -13   4  480.09   20.42
  13  -5   3   11.21    6.58
   5 -13  -3    7.68    5.90
  -5 -13   3    2.26    5.91
  -5 -13   3   10.55    3.85
  13  -5   2   69.58   11.59
   5 -13  -2   51.10   10.17
  -5 -13   2   51.35   10.50
  -5 -13   2   55.70    7.93
  13  -5   1  311.81   22.67
   5 -13  -1  315.45   23.56
  -5 -13   1  339.46   19.94
  13  -5   0  303.91   22.09
   5 -13   0  266.24   21.72
  -5 -13   0  302.33   19.44
  13  -5  -1  383.30   23.71
  -5 -13  -1  338.86   21.78
   5 -13   1  386.59   26.82
  -5 -13  -2   56.66    9.63
  13  -5  -2   71.83   10.43
   5 -13   2   39.21    9.93
  -5 -13  -3   31.44    7.72
  13  -5  -3   29.79    7.07
   5 -13   3   26.79    9.06
  -5 -13  -4  485.50   28.56
  13  -5  -4  459.39   23.93
   5 -13   4  432.37   29.86
  -5 -13  -5   24.17    8.16
   5 -13   5   13.66    7.22
  -5 -13  -6   10.80    6.73
   5 -13   6   14.98    9.49
  -5 -13  -7    7.08    6.59
   5 -13   7    0.85    8.22
  -5 -13  -8  282.83   23.72
   5 -13   8  308.72   26.74
  -5 -13  -9   25.00    8.93
   5 -13   9   35.23   11.26
  -5 -13 -10   -3.99    8.43
   5 -13  10   -5.13    9.10
  -5 -13 -11   72.56   13.92
   5 -13  11   79.69   15.59
  -5 -13 -12  117.06   18.10
   5 -13  12  123.86   18.89
  -5 -13 -13  190.89   22.64
   5 -13  13  136.63   20.40
  -5 -13 -14   48.54   12.32
   5 -13  14   57.26   14.58
  -5 -13 -15  329.61   30.64
   5 -13  15  324.94   31.34
  -5 -13 -16  527.57   39.42
   5 -13  16  500.71   39.26
  -5 -13 -17    5.38    7.04
   5 -13  17   20.25   11.60
  -5 -13 -18    0.04   10.13
   5 -13  18   -8.86   12.73
  -5 -13 -19   23.53   12.77
   5 -13  19   30.29   11.44
  -5 -13 -20   16.18   11.42
   5 -13  20   30.98   13.36
  -5 -13 -21   -5.76    9.16
   5 -13  21    3.97   10.33
  -5 -13 -22    1.33    8.45
   5 -13  22   -3.51    7.42
  -5 -13 -23   39.77   15.65
   5 -13  23   74.10   16.93
  -5 -13 -24  162.60   26.86
   5 -13  24  176.22   27.07
  -5 -13 -25   95.42   21.70
   5 -13  25  107.41   20.53
   5 -13  26  -30.10   13.71
   5 -13  27   45.59   17.62
  -6 -13  21    4.59    6.03
  -6 -13  20   14.13    7.18
  -6 -13  19   58.14   12.64
  -6 -13  18   11.36    7.79
   6 -13 -17  130.80   14.26
  -6 -13  17  105.11   15.95
   6 -13 -16   14.92    6.20
  -6 -13  16   -2.31    7.21
  13  -6  15  266.64   28.25
   6 -13 -15  233.37   18.74
  -6 -13  15  248.01   23.42
  13  -6  14  135.05   20.43
   6 -13 -14  129.06   14.24
  -6 -13  14  104.83   15.62
  13  -6  13  242.24   25.38
   6 -13 -13  245.17   19.31
  -6 -13  13  258.84   22.91
  13  -6  12  154.24   20.78
   6 -13 -12  133.64   14.45
  -6 -13  12  140.90   16.65
  13  -6  11   48.77   12.87
   6 -13 -11   61.67   10.15
  -6 -13  11   49.42   10.49
  13  -6  10   55.63   13.90
  -6 -13  10   33.88    9.69
   6 -13 -10   39.17    8.98
  13  -6   9  187.68   21.24
   6 -13  -9  157.07   15.71
  -6 -13   9  176.43   17.91
  13  -6   8   13.94    8.24
   6 -13  -8   15.63    6.36
  -6 -13   8   13.14    7.46
  13  -6   7   55.66   13.04
   6 -13  -7   82.42   12.12
  -6 -13   7   90.09   13.09
  13  -6   6   55.08   12.82
  -6 -13   6   37.41    8.88
   6 -13  -6   48.30   10.10
  13  -6   5  186.94   20.43
  -6 -13   5  183.42   18.44
   6 -13  -5  163.81   16.80
  13  -6   4    3.23    6.83
  -6 -13   4    0.18    6.39
   6 -13  -4    4.88    5.41
  13  -6   3  158.85   17.63
   6 -13  -3  165.02   16.86
  13  -6   2   17.15    7.99
   6 -13  -2   24.11    8.20
  13  -6   1  182.28   18.19
   6 -13  -1  174.95   17.90
  13  -6   0  207.53   19.29
   6 -13   0  174.77   17.92
  13  -6  -1  169.75   16.93
   6 -13   1  169.34   18.29
  13  -6  -2   25.80    7.23
   6 -13   2   26.90    9.03
  13  -6  -3  167.77   15.83
   6 -13   3  163.56   18.53
  13  -6  -4   10.11    5.15
   6 -13   4   20.19    8.61
  13  -6  -5  174.55   14.97
   6 -13   5  187.43   20.91
  13  -6  -6   49.11    8.06
   6 -13   6   51.45   11.64
  13  -6  -7   97.72   10.32
   6 -13   7   96.94   16.49
  13  -6  -8   20.30    5.06
   6 -13   8    7.64    7.17
  -6 -13  -9  156.94   20.43
   6 -13   9  145.40   19.77
  -6 -13 -10   51.29   11.97
   6 -13  10   52.23   12.13
  -6 -13 -11   48.03   12.21
 -13  -6  11   45.43    7.13
   6 -13  11   35.72   11.23
  -6 -13 -12  137.46   19.66
   6 -13  12   83.78   15.90
  -6 -13 -13  265.12   26.73
   6 -13  13  275.42   28.47
  -6 -13 -14  115.34   18.20
   6 -13  14   97.66   18.37
  -6 -13 -15  257.00   27.24
   6 -13  15  230.51   26.85
  -6 -13 -16   14.60   11.22
   6 -13  16  -14.25   10.41
  -6 -13 -17   94.92   18.70
   6 -13  17  103.56   18.94
  -6 -13 -18   13.40    9.03
   6 -13  18    1.45    9.86
  -6 -13 -19   39.15   13.36
   6 -13  19   18.92   10.77
  -6 -13 -20    7.13    9.82
   6 -13  20   -7.57   11.66
  -6 -13 -21   -7.03   11.77
   6 -13  21   -5.91    9.74
  -6 -13 -22   -1.15    9.90
   6 -13  22   31.39   13.36
  -6 -13 -23   -1.89    9.93
   6 -13  23   13.16   10.26
  -6 -13 -24   57.91   17.01
   6 -13  24    2.82   10.09
  -6 -13 -25  126.21   24.47
   6 -13  25  171.63   27.55
   6 -13  26   31.63   13.13
  -7 -13  20   46.46   11.73
  -7 -13  19   14.44    6.65
  13  -7  18    7.79   12.75
  -7 -13  18    6.13    5.36
  13  -7  17   52.80   14.80
  -7 -13  17   56.72   12.50
  13  -7  16  334.76   31.81
  -7 -13  16  237.23   22.63
  13  -7  15   32.63   13.05
   7 -13 -15   23.23    6.82
  -7 -13  15    5.82    6.24
   7 -13 -14    5.53    4.79
  -7 -13  14   -5.34    7.55
  13  -7  13  295.53   29.74
   7 -13 -13  257.08   19.82
  -7 -13  13  270.04   23.05
  13  -7  12   28.72   10.88
  -7 -13  12   43.63    9.71
   7 -13 -12   40.59    8.44
  13  -7  11  195.09   22.58
   7 -13 -11  160.22   15.63
  -7 -13  11  131.58   16.33
  13  -7  10    2.95    7.95
  -7 -13  10    6.27    5.83
   7 -13 -10    2.81    4.73
  13  -7   9   46.53   13.60
   7 -13  -9   32.18    8.15
  -7 -13   9   11.10    5.58
  13  -7   8  246.67   24.77
   7 -13  -8  241.04   19.83
  -7 -13   8  212.95   19.94
  -7 -13   7    3.47    5.99
   7 -13  -7    0.62    4.98
  13  -7   6    5.95    7.88
  -7 -13   6    7.85    6.54
   7 -13  -6   -7.53    6.98
  13  -7   5   -5.67    6.87
  -7 -13   5   13.57    7.24
   7 -13  -5   17.70    8.09
  13  -7   4  357.62   28.15
   7 -13  -4  389.85   25.74
  -7 -13   4  335.44   25.44
  13  -7   3   35.59    9.61
   7 -13  -3   49.62    9.97
  13  -7   2   89.19   14.19
   7 -13  -2   94.74   13.68
  13  -7   1  193.91   19.69
   7 -13  -1  201.44   19.83
  13  -7   0    7.24    6.30
   7 -13   0    7.21    6.27
  13  -7  -1  236.03   20.80
   7 -13   1  217.51   20.82
  13  -7  -2   75.99   12.30
   7 -13   2   98.21   15.46
  13  -7  -3   34.70    8.11
   7 -13   3   41.20   10.66
  13  -7  -4  361.90   23.47
   7 -13   4  343.91   27.43
  13  -7  -5    1.54    5.28
   7 -13   5    6.79    7.49
  13  -7  -6   -0.55    4.08
   7 -13   6    1.31    7.95
  13  -7  -7    4.15    4.35
   7 -13   7   39.22   12.19
  13  -7  -8  248.50   16.79
   7 -13   8  259.04   25.77
  13  -7  -9   20.80    5.51
   7 -13   9   12.07    8.81
   7 -13  10    4.82    8.71
 -13  -7  11  199.55   15.14
   7 -13  11  191.69   23.87
   7 -13  12   62.45   15.25
  -7 -13 -13  305.03   29.12
   7 -13  13  294.22   29.65
  -7 -13 -14   14.72    8.60
   7 -13  14   28.39   11.29
  -7 -13 -15    1.85    6.60
   7 -13  15   26.47   11.67
  -7 -13 -16  257.57   27.80
   7 -13  16  304.65   32.06
  -7 -13 -17   69.93   17.03
   7 -13  17   83.03   18.73
  -7 -13 -18   -0.39    9.52
   7 -13  18    4.85   10.42
  -7 -13 -19   -7.40   10.28
   7 -13  19   14.99   10.88
  -7 -13 -20   10.99    9.65
   7 -13  20   47.10   16.23
  -7 -13 -21    3.24   11.30
   7 -13  21   -4.51   11.09
  -7 -13 -22  -10.33   11.15
   7 -13  22   -4.00    9.85
  -7 -13 -23    1.79    8.94
   7 -13  23   12.66   12.51
  -7 -13 -24  127.99   23.70
   7 -13  24  151.44   25.84
   7 -13  25  119.04   23.56
  13  -8  21   18.26   11.01
  13  -8  20    9.20    8.61
  13  -8  19   27.18   12.44
  -8 -13  19   51.81   12.10
  13  -8  18   24.02   11.44
  -8 -13  18   25.80    8.10
  13  -8  17  251.77   28.98
  -8 -13  17  204.07   21.25
  13  -8  16   18.66   11.08
  -8 -13  16   17.90    8.68
  13  -8  15   77.77   16.80
  -8 -13  15   47.51   11.32
  13  -8  14  205.74   25.41
  -8 -13  14  246.80   22.25
   8 -13 -14  228.50   18.42
  13  -8  13   20.68   10.23
  -8 -13  13   18.99    8.62
   8 -13 -13   23.90    7.35
  13  -8  12  129.57   19.48
   8 -13 -12  147.85   15.24
  -8 -13  12  111.23   15.06
  13  -8  11   59.64   13.74
  -8 -13  11   40.58   10.27
   8 -13 -11   44.74    9.04
  13  -8  10   27.77   11.69
  -8 -13  10   44.52    9.76
   8 -13 -10   37.54    8.57
  13  -8   9   22.88   11.91
  -8 -13   9   32.47    9.56
   8 -13  -9   34.45    8.43
  13  -8   8  120.71   18.97
  -8 -13   8  107.34   14.79
   8 -13  -8  106.01   13.52
  13  -8   7  297.61   27.82
  -8 -13   7  325.32   24.88
   8 -13  -7  283.30   21.93
  13  -8   6   12.82    9.10
  -8 -13   6   18.40    8.56
   8 -13  -6    7.77    6.16
  13  -8   5  136.13   18.45
  -8 -13   5  181.45   18.45
   8 -13  -5  143.94   16.33
  13  -8   4   36.44   11.41
   8 -13  -4   32.31    8.41
  13  -8   3   91.98   15.25
   8 -13  -3   86.46   12.64
  13  -8   2  309.57   25.55
   8 -13  -2  285.91   23.31
  13  -8   1   66.31   12.85
   8 -13  -1   62.30   12.63
  13  -8   0  240.23   21.75
   8 -13   0  271.96   23.61
  13  -8  -1   36.33    9.30
   8 -13   1   43.49   11.49
  13  -8  -2  285.75   22.91
   8 -13   2  304.99   26.05
  13  -8  -3   90.09   12.99
   8 -13   3  108.45   16.24
  13  -8  -4   30.28    8.58
   8 -13   4   12.77    8.48
  13  -8  -5  142.95   14.90
   8 -13   5  132.69   18.83
  13  -8  -6   -4.37    5.33
   8 -13   6   -5.60   10.74
  13  -8  -7  316.91   21.20
   8 -13   7  351.21   29.85
  13  -8  -8   97.74   11.61
   8 -13   8   98.17   16.71
  13  -8  -9   41.35    7.75
   8 -13   9   43.56   12.58
   8 -13  10   44.52   12.76
 -13  -8  11   62.39    9.45
   8 -13  11   48.54   13.64
   8 -13  12  156.59   23.39
   8 -13  13   15.99    9.46
   8 -13  14  206.18   26.42
   8 -13  15   62.91   15.56
  -8 -13 -16    0.11    9.75
   8 -13  16   19.32   12.32
  -8 -13 -17  244.51   28.59
   8 -13  17  247.86   29.78
  -8 -13 -18   33.26   12.89
   8 -13  18   18.76   11.50
  -8 -13 -19   32.78   13.63
   8 -13  19   39.64   14.48
  -8 -13 -20   11.38   10.79
   8 -13  20   12.95   10.52
  -8 -13 -21  -10.96   11.60
   8 -13  21  -20.16   13.81
  -8 -13 -22   42.80   15.01
   8 -13  22   50.29   15.62
  -8 -13 -23   45.22   15.29
   8 -13  23   97.68   21.68
  -8 -13 -24    9.33   10.90
   8 -13  24   36.15   14.59
  13  -9  22   53.87   15.78
  13  -9  21   84.24   18.55
  13  -9  20   -0.64    8.06
  13  -9  19  217.68   28.17
  13  -9  18   43.09   13.52
  13  -9  17   94.87   19.21
  -9 -13  17   54.78   11.62
  13  -9  16   55.42   14.59
  -9 -13  16   77.93   12.61
  13  -9  15   54.82   15.35
  -9 -13  15   51.16   10.56
  13  -9  14   -0.76   10.72
  -9 -13  14    8.60    5.36
  13  -9  13  274.15   29.86
   9 -13 -13  291.74   20.91
  -9 -13  13  238.11   21.78
  13  -9  12  123.62   21.30
  -9 -13  12  121.60   15.81
   9 -13 -12  111.21   13.51
  13  -9  11  113.18   19.32
  -9 -13  11  125.73   16.31
   9 -13 -11  119.36   13.91
  13  -9  10    7.71    8.72
  -9 -13  10    9.52    6.34
   9 -13 -10    3.03    5.19
  13  -9   9   79.76   16.26
  -9 -13   9   91.00   13.96
   9 -13  -9  111.37   13.66
  13  -9   8  106.60   18.42
  -9 -13   8  119.50   15.63
   9 -13  -8  105.11   13.89
  13  -9   7  372.61   32.14
  -9 -13   7  376.26   27.05
   9 -13  -7  305.28   23.44
  13  -9   6   19.92    9.13
  -9 -13   6   28.94    9.14
   9 -13  -6   53.01   10.99
  13  -9   5   30.00   10.05
   9 -13  -5   46.52   10.18
  13  -9   4  270.74   25.58
   9 -13  -4  278.42   23.01
  13  -9   3   76.57   14.99
   9 -13  -3   60.60   11.91
  13  -9   2  120.73   16.67
   9 -13  -2  118.85   15.76
  13  -9   1  246.13   23.26
   9 -13  -1  280.66   24.01
  13  -9   0    0.87    6.12
   9 -13   0    8.29    7.48
  13  -9  -1  251.19   22.30
   9 -13   1  272.57   25.11
  13  -9  -2  158.61   17.52
   9 -13   2  181.98   20.80
  13  -9  -3   84.05   13.08
   9 -13   3   76.03   13.83
  13  -9  -4  245.18   20.91
   9 -13   4  250.70   24.94
  13  -9  -5   74.20   11.88
   9 -13   5   58.67   13.22
  13  -9  -6   28.11    8.04
   9 -13   6   39.56   12.87
  13  -9  -7  351.45   23.27
   9 -13   7  308.16   28.71
  13  -9  -8  135.08   13.98
   9 -13   8   95.94   16.46
   9 -13   9   82.17   15.30
   9 -13  10   -4.90   10.33
 -13  -9  10   22.38    6.99
   9 -13  11  145.54   21.65
 -13  -9  11  138.05   14.41
   9 -13  12  117.40   19.82
 -13  -9  12  155.16   14.95
   9 -13  13  318.86   32.92
   9 -13  14  -10.19   10.16
   9 -13  15   43.10   13.52
   9 -13  16   74.35   17.90
   9 -13  17   83.10   18.06
  -9 -13 -18   46.74   14.98
   9 -13  18   33.41   13.41
  -9 -13 -19  127.59   21.87
   9 -13  19  134.53   24.26
  -9 -13 -20    5.85    8.61
   9 -13  20    7.26    8.95
  -9 -13 -21   75.12   18.27
   9 -13  21   62.83   18.77
  -9 -13 -22   57.57   17.17
   9 -13  22   40.17   14.98
  -9 -13 -23   34.35   16.11
   9 -13  23   25.72   13.37
  13 -10  22   16.88   13.32
  13 -10  21  139.81   23.94
  13 -10  20   -2.86   10.34
  13 -10  19  125.42   21.79
  13 -10  18   27.38   12.82
  13 -10  17   -1.46   10.08
  13 -10  16  103.29   20.86
 -10 -13  16   81.65   13.05
  13 -10  15   70.64   16.88
 -10 -13  15   76.32   12.73
  13 -10  14  100.44   19.51
 -10 -13  14  106.10   14.78
  13 -10  13   -3.23   13.04
 -10 -13  13   -4.58    5.88
  13 -10  12  263.19   29.78
 -10 -13  12  223.59   21.24
  13 -10  11   49.59   16.25
 -10 -13  11   43.72   10.49
  10 -13 -11   43.05    8.72
  13 -10  10  189.76   24.36
 -10 -13  10  197.75   19.98
  10 -13 -10  179.79   17.64
  13 -10   9   82.55   17.12
 -10 -13   9   87.08   13.89
  10 -13  -9   62.62   11.32
  13 -10   8   95.74   17.72
 -10 -13   8  145.92   17.38
  10 -13  -8  135.54   15.86
  13 -10   7  105.07   18.20
 -10 -13   7  115.75   15.61
  10 -13  -7  104.14   14.64
  13 -10   6    3.61    8.72
  10 -13  -6   17.14    7.30
  13 -10   5    4.14    8.09
  10 -13  -5   11.75    7.69
  13 -10   4  278.14   26.81
  10 -13  -4  222.71   21.08
  13 -10   3  385.05   30.65
  10 -13  -3  362.24   27.46
  13 -10   2  121.35   17.46
  10 -13  -2  121.55   16.57
  13 -10   1   14.81    7.38
  10 -13  -1   16.83    7.09
  13 -10   0  164.30   18.89
  10 -13   0  159.67   19.64
  13 -10  -1   33.49    9.63
  10 -13   1   23.16    8.11
  13 -10  -2  160.53   17.97
  10 -13   2  136.67   18.99
  13 -10  -3  384.61   27.60
  10 -13   3  382.58   30.39
  13 -10  -4  256.94   22.17
  10 -13   4  251.48   25.53
  13 -10  -5   10.09    5.88
  10 -13   5   -1.14    9.45
  13 -10  -6    9.21    5.45
  10 -13   6    2.52    8.39
  13 -10  -7   97.04   13.19
  10 -13   7  108.93   18.39
  13 -10  -8  144.89   15.06
  10 -13   8  154.88   21.45
  10 -13   9   61.18   14.05
  10 -13  10  217.85   26.24
 -13 -10  10  211.85   18.81
  10 -13  11   42.68   13.67
 -13 -10  11   45.17    9.48
  10 -13  12  262.19   29.65
 -13 -10  12  231.19   19.19
  10 -13  13   13.18   11.01
  10 -13  14  115.21   20.49
  10 -13  15   47.06   15.94
  10 -13  16  104.95   19.98
  10 -13  17   -6.95    8.68
  10 -13  18   12.96   10.79
  10 -13  19  116.08   22.40
  10 -13  20   18.88   12.35
 -10 -13 -20   31.76   14.79
  10 -13  21  126.90   23.91
 -10 -13 -21  139.01   24.45
  10 -13  22   20.90   13.89
 -10 -13 -22   10.52   12.92
  13 -11  21   47.58   16.89
  13 -11  20   17.62   13.33
  13 -11  19   29.86   15.89
  13 -11  18   96.89   20.42
  13 -11  17   11.02   10.27
  13 -11  16   -7.07   12.04
  13 -11  15   72.90   18.31
 -11 -13  15   84.22   13.00
  13 -11  14  117.94   21.46
 -11 -13  14  113.45   15.59
  13 -11  13  385.40   36.64
 -11 -13  13  314.52   25.43
  13 -11  12   13.38   10.49
 -11 -13  12   39.02    9.96
  13 -11  11  236.74   28.52
 -11 -13  11  211.40   20.95
  13 -11  10  299.03   31.05
 -11 -13  10  300.13   24.85
  11 -13 -10  313.04   23.37
  13 -11   9   51.24   14.65
 -11 -13   9   44.30   11.18
  11 -13  -9   42.40    9.09
  13 -11   8   28.68   10.98
 -11 -13   8   25.62    9.21
  11 -13  -8   46.19   10.04
  13 -11   7   91.65   16.96
 -11 -13   7  104.51   15.14
  11 -13  -7  120.37   15.47
  13 -11   6   82.06   17.14
  11 -13  -6   65.43   12.07
  13 -11   5  140.78   20.21
  11 -13  -5  145.07   17.32
  13 -11   4    9.57    7.07
  11 -13  -4   18.94    8.43
  13 -11   3  209.72   23.17
  11 -13  -3  206.48   21.60
  13 -11   2  292.74   27.10
  11 -13  -2  261.17   24.10
  13 -11   1  331.66   28.27
  11 -13  -1  305.46   26.64
  13 -11   0   -3.23    6.97
  11 -13   0   -4.28    6.25
  13 -11  -1  354.03   27.94
  11 -13   1  342.44   29.06
  11 -13   2  263.40   25.74
  13 -11  -2  248.50   23.11
  13 -11  -3  212.74   21.45
  11 -13   3  202.43   23.32
  11 -13   4   15.77    9.42
  13 -11  -4   20.49    8.39
  11 -13   5  104.87   17.40
  13 -11  -5  128.18   16.02
  11 -13   6   64.29   14.45
  13 -11  -6   84.65   13.66
  11 -13   7  145.51   21.27
  13 -11  -7   90.31   13.48
  11 -13   8   40.03   12.51
  13 -11  -8   42.95    9.61
  11 -13   9   27.97   10.93
 -13 -11   9   13.93    6.92
 -13 -11  10  288.72   22.90
  11 -13  10  293.29   30.99
  11 -13  11  201.12   27.83
 -13 -11  11  176.75   18.05
  11 -13  12   55.30   16.37
 -13 -11  12   42.34    9.54
  11 -13  13  346.05   35.24
  11 -13  14   74.02   18.19
  11 -13  15  115.90   22.65
  11 -13  16    1.26    7.65
  11 -13  17   -0.43   10.00
  11 -13  18  119.12   24.03
  11 -13  19   50.06   18.68
  11 -13  20    7.67   10.57
  11 -13  21    5.15    9.13
  13 -12  20   35.63   14.24
  13 -12  19   27.76   14.96
  13 -12  18   12.87   10.40
  13 -12  17   58.09   17.90
  13 -12  16    1.75   10.43
  13 -12  15   14.41   10.51
  13 -12  14  193.03   27.45
  13 -12  13  362.79   36.31
 -12 -13  13  351.74   26.94
  13 -12  12   84.36   18.78
 -12 -13  12  109.09   15.56
  13 -12  11  385.45   36.08
 -12 -13  11  407.46   29.71
  13 -12  10  128.65   21.05
 -12 -13  10  132.15   17.10
  13 -12   9   33.65   12.23
 -12 -13   9   27.28    9.12
  12 -13  -9   27.90    8.12
  13 -12   8   95.89   18.66
 -12 -13   8  104.04   15.61
  12 -13  -8  114.18   15.24
  13 -12   7  -11.61   10.76
  12 -13  -7    9.29    6.28
  13 -12   6    6.94    9.15
  12 -13  -6   -3.52    6.65
  13 -12   5   90.18   16.48
  12 -13  -5   78.92   13.19
  13 -12   4   91.82   17.10
  12 -13  -4  107.39   15.73
  13 -12   3   11.82    8.48
  12 -13  -3   -1.71    6.65
  12 -13  -2  307.56   26.91
  13 -12   2  331.22   29.73
  12 -13  -1  550.31   36.43
  13 -12   1  479.20   35.19
  12 -13   0  167.35   20.24
  13 -12   0  127.08   18.77
  13 -12  -1  495.40   34.87
  12 -13   1  532.90   37.01
  13 -12  -2  309.51   26.94
  12 -13   2  285.07   27.73
  12 -13   3   -5.94    9.12
  13 -12  -3    2.75    6.26
  13 -12  -4  135.56   17.43
  12 -13   4  152.51   20.51
  13 -12  -5   91.64   14.29
  12 -13   5   72.40   15.09
  13 -12  -6    1.71    5.78
  12 -13   6    1.79    7.65
  12 -13   7   -1.95    8.73
  13 -12  -7   -5.96    7.06
  12 -13   8  113.75   19.92
  12 -13   9   25.83   13.10
 -13 -12   9   35.02   10.14
  12 -13  10  144.26   22.14
 -13 -12  10  143.64   17.00
  12 -13  11  410.10   37.98
 -13 -12  11  459.81   30.51
  12 -13  12   94.05   21.19
 -13 -12  12  114.14   15.14
  12 -13  13  398.72   37.97
  12 -13  14  186.07   26.32
  12 -13  15    4.73    9.39
  12 -13  16    0.14   10.89
  12 -13  17   48.36   15.12
  12 -13  18   17.91   14.94
  12 -13  19    0.90   11.63
  12 -13  20   12.87   11.95
  13 -13   0   68.12   15.03
  13 -13   1  285.95   27.81
  13 -13  -1  315.68   28.44
  13 -13   2  287.95   28.14
  13 -13  -2  265.53   25.78
  13 -13   3  196.02   24.05
  13 -13  -3  159.89   19.46
  13 -13   4   -1.18   10.00
  13 -13  -4    0.64    5.87
  13 -13   5   67.94   15.52
  13 -13  -5   84.56   14.54
  13 -13   6   21.71   11.03
  13 -13  -6    6.80    6.49
  13 -13   7   46.62   14.91
  13 -13  -7   21.86    7.77
  13 -13   8   82.17   17.74
 -13 -13   8   54.97   13.11
  13 -13   9  181.82   25.68
 -13 -13   9  206.94   21.83
  13 -13  10  193.82   27.18
 -13 -13  10  186.11   20.53
  13 -13  11  189.02   26.58
 -13 -13  11  199.70   21.07
  13 -13  12    7.47   11.63
 -13 -13  12    2.77    5.92
  13 -13  13  216.12   29.84
  13 -13  14  112.70   21.94
  13 -13  15  121.09   23.38
  13 -13  16   -2.38   12.33
  13 -13  17    9.60   11.45
  13 -13  18   47.50   15.62
   0 -14   0  397.73   26.40
   0 -14   1    7.44    5.90
   0 -14  -1   19.21    8.78
   0 -14  -2  696.00   36.24
   0 -14   2  761.85   37.90
   0 -14  -3  144.25   16.20
   0 -14   3  106.57   14.59
   0 -14  -4   10.37    6.46
   0 -14   4   32.19    9.10
   0 -14   5   56.37   11.28
   0 -14  -5   64.46   11.73
   0 -14  -6  357.76   28.33
   0 -14   6  344.21   26.67
   0 -14  -6  328.64   24.67
   0 -14  -7  488.80   38.37
   0 -14   7  601.39   35.25
   0 -14  -8   51.77   14.73
   0 -14   8   57.54   12.37
   0 -14  -9    7.92    6.80
   0 -14   9   14.17    8.85
   0 -14 -10  542.45   37.30
   0 -14  10  537.28   34.75
   0 -14 -11   93.42   16.40
   0 -14  11   74.99   14.18
   0 -14 -12  490.25   37.05
   0 -14  12  444.20   32.29
   0 -14 -13   93.13   18.22
   0 -14  13   82.28   14.80
   0 -14 -14  259.43   28.52
   0 -14  14  265.84   25.69
   0 -14 -15   -4.57    9.16
   0 -14  15    1.56    8.43
   0 -14 -16  -12.05   11.03
   0 -14  16    8.13    7.49
   0 -14 -17   45.63   14.71
   0 -14  17   41.35   12.76
   0 -14 -18   90.76   18.38
   0 -14  18   75.19   16.58
   0 -14 -19   17.97   13.64
   0 -14  19   13.11    9.78
   0 -14 -20  182.00   27.81
   0 -14  20  215.55   26.08
   0 -14 -21   83.70   19.85
   0 -14  21   91.24   17.98
   0 -14 -22  348.39   38.28
   0 -14  22  370.13   35.58
   0 -14 -23  108.05   23.74
   0 -14  23   71.40   17.66
   0 -14 -24   86.65   20.56
   0 -14  24   70.89   16.32
   0 -14 -25    9.52   11.34
   0 -14  25   12.47   10.53
   0 -14  26   99.37   20.38
   0 -14  27   25.78   11.96
   0 -14  28   11.25   10.15
  -1 -14  27   48.54   15.32
  -1 -14  26    1.79    7.33
  -1 -14  25    4.15    7.59
  -1 -14  24   63.20   15.68
  -1 -14  23   -3.41    8.95
   1 -14 -22  162.21   27.23
  -1 -14  22  145.15   22.99
   1 -14 -21  348.07   38.40
  -1 -14  21  295.68   30.75
   1 -14 -20    5.98   10.47
  -1 -14  20    6.80    7.77
   1 -14 -19   83.43   20.11
  -1 -14  19   62.21   14.31
   1 -14 -18   16.14   11.12
  -1 -14  18   13.88    8.45
   1 -14 -17   -6.26    9.14
  -1 -14  17   -9.11    9.84
   1 -14 -16   53.09   13.88
  -1 -14  16   47.22   12.00
   1 -14 -15  381.41   35.02
  -1 -14  15  269.99   26.42
   1 -14 -14  167.68   23.37
  -1 -14  14  170.39   20.77
   1 -14 -13   12.44   10.64
  -1 -14  13   -1.24    7.67
   1 -14 -12  341.12   31.29
  -1 -14  12  322.63   27.24
   1 -14 -11   16.48    9.25
  -1 -14  11    9.02    7.51
  -1 -14  10  220.17   21.45
  -1 -14   9  672.32   38.16
   1 -14  -9  665.19   34.93
   1 -14  -8  207.73   19.41
  -1 -14   8  211.36   20.58
   1 -14  -7  202.46   19.09
  -1 -14   7  174.27   18.86
   1 -14  -6  131.44   15.42
  -1 -14   6  150.01   17.56
  -1 -14   5  250.02   21.90
   1 -14  -5  276.66   22.23
  -1 -14   4  158.57   17.50
   1 -14  -4  186.12   18.70
  -1 -14   3  388.41   27.02
   1 -14  -3  413.10   27.24
   1 -14  -2  398.71   26.55
  -1 -14   2  385.34   26.64
  -1 -14   1   18.19    8.13
   1 -14  -1   36.94   11.04
   1 -14   0  353.28   25.33
  -1 -14   0  320.69   23.89
  -1 -14  -1    6.33    7.23
   1 -14   1    6.29    6.96
   1 -14   2  404.72   27.50
  -1 -14  -2  438.43   27.96
  -1 -14  -3  368.51   26.07
  -1 -14  -3  455.60   28.63
   1 -14   3  418.61   28.33
  -1 -14  -4  154.20   17.11
   1 -14   4  150.03   17.36
  -1 -14  -4  137.38   16.27
  -1 -14  -5  305.47   24.23
   1 -14   5  300.12   24.60
  -1 -14  -6  160.03   18.38
   1 -14   6  129.08   16.76
  -1 -14  -7  159.46   19.14
   1 -14   7  151.44   17.84
  -1 -14  -8  229.95   23.07
   1 -14   8  204.45   21.06
  -1 -14  -9  783.68   43.81
   1 -14   9  818.83   43.02
  -1 -14 -10  218.90   23.75
   1 -14  10  208.79   21.62
  -1 -14 -11    7.21    7.76
   1 -14  11    5.67    7.98
  -1 -14 -12  249.61   26.13
   1 -14  12  258.64   25.55
  -1 -14 -13   -5.88    8.37
   1 -14  13   -0.10    7.41
  -1 -14 -14  150.43   22.99
   1 -14  14  171.74   21.31
  -1 -14 -15  276.55   29.40
   1 -14  15  265.31   27.03
  -1 -14 -16   84.24   18.48
   1 -14  16   45.15   12.75
  -1 -14 -17    3.25   10.52
   1 -14  17   -6.02   10.18
  -1 -14 -18   27.44   11.00
   1 -14  18   33.41   12.09
  -1 -14 -19   82.88   18.88
   1 -14  19   97.45   18.85
  -1 -14 -20   34.73   15.15
   1 -14  20   42.40   14.84
  -1 -14 -21  260.86   31.95
   1 -14  21  262.79   29.76
  -1 -14 -22  159.15   26.44
   1 -14  22  149.23   23.43
  -1 -14 -23   -3.36   10.05
   1 -14  23    7.62    8.78
  -1 -14 -24  111.39   24.74
   1 -14  24  109.34   20.55
  -1 -14 -25   21.00   14.78
   1 -14  25    8.76   10.54
   1 -14  26   21.11   11.90
   1 -14  27   59.39   17.75
   1 -14  28   52.94   16.52
  -2 -14  26    0.70    7.57
  -2 -14  25   35.34   12.28
  -2 -14  24    7.50    7.64
  -2 -14  23  113.58   20.04
  -2 -14  22   26.64   12.85
  -2 -14  21  114.50   19.64
  -2 -14  20  355.99   32.79
  -2 -14  19    2.01    7.55
  -2 -14  18    1.09    6.50
  -2 -14  17   92.17   17.15
  -2 -14  16  116.81   17.79
  -2 -14  15  143.16   19.43
  -2 -14  14   -1.90    7.01
  -2 -14  13   -1.24    6.97
   2 -14 -12   66.45   11.99
  -2 -14  12   35.93   10.46
   2 -14 -11  155.32   16.54
  -2 -14  11  121.56   16.34
   2 -14 -10   92.64   13.08
  -2 -14  10   71.41   13.79
  -2 -14   9  645.86   36.59
   2 -14  -9  680.80   34.84
   2 -14  -8  722.80   36.27
  -2 -14   8  786.87   40.47
   2 -14  -7    6.72    6.91
  -2 -14   7   13.89    8.02
   2 -14  -6   29.37    9.43
  -2 -14   6   31.66    8.45
  -2 -14   5  106.97   15.29
   2 -14  -5   79.71   12.98
   2 -14  -4 1051.77   44.70
  -2 -14   4 1119.64   47.18
  -2 -14   3  170.68   17.84
   2 -14  -3  173.30   17.58
  -2 -14   2    8.81    7.82
   2 -14  -2    3.32    5.74
   2 -14  -1   99.45   13.74
  -2 -14   1   77.45   12.50
  -2 -14   0   57.25    9.86
  -2 -14   0   75.03   12.55
   2 -14   0   60.49   11.23
  -2 -14  -1  115.92   13.06
  -2 -14  -1   92.73   14.21
   2 -14   1  128.83   16.34
  -2 -14  -2    5.99    4.89
   2 -14   2   11.72    7.98
  -2 -14  -2    1.16    6.57
  -2 -14  -3  166.87   16.53
   2 -14   3  168.58   18.34
  -2 -14  -3  146.09   16.80
  -2 -14  -4 1185.10   47.53
   2 -14   4 1037.43   46.96
  -2 -14  -5  122.18   15.46
   2 -14   5  122.20   16.42
  -2 -14  -6   24.44    8.40
   2 -14   6   31.05    9.70
  -2 -14  -7   15.95    8.80
   2 -14   7   25.76    9.34
  -2 -14  -8  689.26   39.40
   2 -14   8  623.38   37.39
  -2 -14  -9  605.62   37.69
   2 -14   9  655.87   38.78
  -2 -14 -10   54.83   13.48
   2 -14  10   65.12   13.33
  -2 -14 -11  152.29   20.04
   2 -14  11  161.78   20.54
  -2 -14 -12   32.49   11.29
   2 -14  12   43.09   12.90
  -2 -14 -13   12.01   10.17
   2 -14  13   23.30   10.52
  -2 -14 -14   12.30    9.49
   2 -14  14   -4.60    8.41
  -2 -14 -15  194.84   24.08
   2 -14  15  210.73   24.30
  -2 -14 -16  101.73   18.56
   2 -14  16  133.01   20.80
  -2 -14 -17   65.25   16.18
   2 -14  17   72.20   16.02
  -2 -14 -18   21.48   12.10
   2 -14  18   -1.25    8.94
  -2 -14 -19    4.65   10.78
   2 -14  19   34.44   14.21
  -2 -14 -20  475.91   42.20
   2 -14  20  380.59   36.25
  -2 -14 -21  135.10   24.63
   2 -14  21   73.15   17.19
  -2 -14 -22    7.72   12.31
   2 -14  22    6.26   10.00
  -2 -14 -23   98.75   22.84
   2 -14  23  116.50   21.30
  -2 -14 -24    9.32    9.69
   2 -14  24   -7.57   10.30
  -2 -14 -25   23.95   15.40
   2 -14  25   21.56   13.81
   2 -14  26   21.93   12.95
   2 -14  27   14.41   11.60
   2 -14  28   28.65   13.77
  -3 -14  24   16.66   10.92
  -3 -14  23   32.22   13.22
  -3 -14  22   52.60   13.95
  -3 -14  21   91.84   17.73
  -3 -14  20  182.89   23.12
  -3 -14  19   85.28   16.44
  -3 -14  18  163.87   21.50
   3 -14 -17   30.69    8.70
  -3 -14  17   37.03   11.98
   3 -14 -16   71.80   12.00
  -3 -14  16   58.20   13.40
   3 -14 -15   15.47    7.52
  -3 -14  15    5.11    7.41
   3 -14 -14    7.16    7.14
  -3 -14  14    2.11    6.66
   3 -14 -13   66.97   11.39
  -3 -14  13   37.72   10.46
   3 -14 -12   48.37   10.34
  -3 -14  12   50.76   11.44
  -3 -14  11  217.82   21.75
   3 -14 -11  202.80   18.82
   3 -14 -10  147.56   16.39
  -3 -14  10  187.80   19.79
   3 -14  -9   22.11    8.03
  -3 -14   9   31.44    8.84
  -3 -14   8  150.72   17.67
   3 -14  -8  178.33   18.06
  -3 -14   7  154.94   18.06
   3 -14  -7  153.42   16.20
   3 -14  -6  351.50   24.55
  -3 -14   6  356.10   26.24
  -3 -14   5  131.48   16.32
   3 -14  -5  148.71   16.45
   3 -14  -4  643.06   33.52
  -3 -14   4  587.56   33.92
   3 -14  -3  284.37   22.75
  -3 -14   3  321.81   24.69
  -3 -14   2    8.19    4.17
  -3 -14   2   12.57    6.62
   3 -14  -2    9.25    7.46
  -3 -14   1   55.60    8.35
  -3 -14   1   59.06   11.73
   3 -14  -1   59.65   11.44
  -3 -14   0    1.71    4.03
   3 -14   0    7.34    7.62
  -3 -14   0    7.12    6.05
  -3 -14  -1   48.88    8.87
  -3 -14  -1   44.18   10.31
   3 -14   1   48.16   10.85
  -3 -14  -2   21.67    7.12
   3 -14   2   -3.03    7.36
  -3 -14  -3  324.80   22.93
   3 -14   3  260.17   23.15
  -3 -14  -4  615.73   33.11
   3 -14   4  595.96   35.26
  -3 -14  -5  145.48   16.96
   3 -14   5  141.68   17.41
  -3 -14  -6  260.37   22.58
   3 -14   6  253.97   23.55
  -3 -14  -7  140.06   17.63
   3 -14   7  103.68   16.03
  -3 -14  -8  132.79   17.12
   3 -14   8  112.19   16.80
  -3 -14  -9   53.56   11.89
   3 -14   9   46.92   12.61
  -3 -14 -10  147.43   19.49
   3 -14  10  154.39   20.23
  -3 -14 -11  188.33   21.76
   3 -14  11  167.73   20.26
  -3 -14 -12   29.58   10.46
   3 -14  12   50.63   13.49
  -3 -14 -13   55.22   13.84
   3 -14  13   55.56   12.99
  -3 -14 -14    3.85    9.19
   3 -14  14   -6.99    9.10
  -3 -14 -15   11.05    9.42
   3 -14  15    4.84    8.59
  -3 -14 -16   73.69   16.86
   3 -14  16   88.93   18.39
  -3 -14 -17   43.62   15.04
   3 -14  17   43.50   14.01
  -3 -14 -18  133.56   21.59
   3 -14  18  165.80   23.73
  -3 -14 -19  121.77   22.26
   3 -14  19  115.67   19.95
  -3 -14 -20  140.72   23.49
   3 -14  20  157.92   23.65
  -3 -14 -21   76.57   19.07
   3 -14  21   78.97   17.93
  -3 -14 -22   68.54   18.46
   3 -14  22   64.00   18.18
  -3 -14 -23   27.56   13.29
   3 -14  23   24.62   12.61
  -3 -14 -24   -2.59   11.76
   3 -14  24   15.21   10.48
  -3 -14 -25    0.86    9.97
   3 -14  25   18.73   11.59
   3 -14  26   -9.05    9.75
   3 -14  27   19.95   12.37
  -4 -14  23  104.57   18.42
  -4 -14  22  121.41   19.52
  -4 -14  21   78.71   16.12
  -4 -14  20   20.49   10.06
   4 -14 -19   15.08    6.23
  -4 -14  19   11.53    8.91
   4 -14 -18  152.98   16.71
  -4 -14  18  168.16   21.40
   4 -14 -17  100.38   13.28
  -4 -14  17  123.37   17.56
   4 -14 -16    1.47    4.99
  -4 -14  16    3.88    6.05
   4 -14 -15  150.96   16.60
  -4 -14  15  130.15   17.95
   4 -14 -14   41.23    9.51
  -4 -14  14   40.92   10.55
   4 -14 -13   34.25    9.34
  -4 -14  13   16.89    8.17
   4 -14 -12    5.76    6.08
  -4 -14  12   20.26    9.00
   4 -14 -11   29.92    8.60
  -4 -14  11   16.08    8.69
  -4 -14  10   28.11    9.17
   4 -14 -10   48.85   10.40
   4 -14  -9  231.46   19.70
  -4 -14   9  224.90   21.07
  -4 -14   8    9.78    7.86
   4 -14  -8    5.39    5.94
  -4 -14   7   48.32   10.15
   4 -14  -7   49.74   10.30
  -4 -14   6  320.64   24.82
   4 -14  -6  337.13   24.16
   4 -14  -5   53.37   10.83
  -4 -14   5   23.51    9.10
  -4 -14   4   93.46    8.57
  -4 -14   4   79.98   13.54
   4 -14  -4  119.70   15.11
  -4 -14   3  712.93   27.11
   4 -14  -3  664.76   35.14
  -4 -14   3  696.88   36.97
  -4 -14   2  106.89   10.71
  -4 -14   2  134.10   15.97
   4 -14  -2  101.69   14.30
  -4 -14   1  100.33   11.08
   4 -14  -1   67.53   11.80
  -4 -14   1   76.82   12.79
  -4 -14   0   14.65    5.35
  -4 -14   0   12.96    7.74
   4 -14   0   12.87    6.30
  -4 -14  -1   72.62    9.94
   4 -14   1   68.39   12.32
  -4 -14  -2  123.22   13.77
   4 -14   2   96.70   14.73
  -4 -14  -3  633.98   32.91
   4 -14   3  665.50   37.03
  -4 -14  -4   84.53   12.29
   4 -14   4   96.67   15.23
  -4 -14  -5   23.98    8.21
   4 -14   5   24.40    9.79
  -4 -14  -6  288.60   23.95
   4 -14   6  256.45   24.05
  -4 -14  -7   54.45   11.70
   4 -14   7   45.34   11.31
  -4 -14  -8   11.41    8.07
   4 -14   8    9.24    7.42
  -4 -14  -9  244.67   23.43
   4 -14   9  248.38   25.20
  -4 -14 -10   20.14    8.26
   4 -14  10   24.21    9.16
  -4 -14 -11   16.25    8.59
   4 -14  11   56.84   13.86
  -4 -14 -12   -0.41    8.39
   4 -14  12    1.13    8.77
  -4 -14 -13   29.46   10.40
   4 -14  13   17.65   10.85
  -4 -14 -14   25.15   10.03
   4 -14  14   33.35   12.38
  -4 -14 -15  145.45   20.90
   4 -14  15  146.73   21.11
  -4 -14 -16    8.69   11.15
   4 -14  16   21.14   12.39
  -4 -14 -17  146.11   22.01
   4 -14  17  124.80   21.27
  -4 -14 -18  155.38   23.59
   4 -14  18  113.38   19.90
  -4 -14 -19   14.62    8.45
   4 -14  19   10.50    9.35
  -4 -14 -20    9.04   10.18
   4 -14  20    3.42   10.38
  -4 -14 -21   71.25   17.80
   4 -14  21   79.01   19.46
  -4 -14 -22   90.77   20.11
   4 -14  22   86.95   19.03
  -4 -14 -23  115.11   22.95
   4 -14  23   82.86   19.66
  -4 -14 -24   -2.75   11.43
   4 -14  24  -19.72   13.44
  -4 -14 -25    1.17   11.54
   4 -14  25   25.42   12.35
   4 -14  26    2.86    8.21
  -5 -14  22   53.65   13.97
  -5 -14  21   13.32    7.97
  -5 -14  20    4.41    7.32
  -5 -14  19   41.72   12.16
   5 -14 -18   48.42    9.73
  -5 -14  18   60.52   13.75
   5 -14 -17   85.81   12.59
  -5 -14  17   89.02   14.99
   5 -14 -16   53.62   10.07
  -5 -14  16   63.02   13.07
   5 -14 -15   86.72   12.82
  -5 -14  15   91.58   15.42
   5 -14 -14  161.43   16.65
  -5 -14  14  137.78   18.08
   5 -14 -13  133.60   15.48
  -5 -14  13  174.77   19.86
   5 -14 -12  111.92   14.33
  -5 -14  12  105.66   15.78
   5 -14 -11  121.52   14.44
  -5 -14  11  105.84   14.97
  -5 -14  10   43.40   10.66
   5 -14 -10   62.93   11.24
   5 -14  -9   34.38    8.25
  -5 -14   9   29.51    9.41
  -5 -14   8   24.87    8.73
   5 -14  -8   32.38    8.68
   5 -14  -7  170.05   17.44
  -5 -14   7  173.63   18.20
   5 -14  -6  115.17   14.73
  -5 -14   6  100.84   15.49
   5 -14  -5  219.50   20.10
  -5 -14   5  246.15   21.99
  -5 -14   4   45.70    6.48
  -5 -14   4   26.32    7.97
   5 -14  -4   28.17    8.72
  -5 -14   3  164.97   12.61
   5 -14  -3  158.38   17.12
  -5 -14   3  132.74   16.48
  -5 -14   2  361.47   20.09
   5 -14  -2  340.49   25.23
  -5 -14   2  323.59   24.97
  -5 -14   1   79.60    9.79
   5 -14  -1   64.11   12.05
  -5 -14   0  101.41   11.95
   5 -14   0  126.36   15.93
  -5 -14  -1   62.53   10.31
   5 -14   1   48.88   11.07
  -5 -14  -2  327.41   22.46
   5 -14   2  304.60   25.33
  -5 -14  -3  123.53   14.34
   5 -14   3  120.78   16.42
  -5 -14  -4   50.90    9.95
   5 -14   4   25.07    9.09
  -5 -14  -5  213.96   20.28
   5 -14   5  218.44   21.79
  -5 -14  -6   87.50   13.58
   5 -14   6   80.57   14.08
  -5 -14  -7  173.86   19.28
   5 -14   7  232.52   23.79
  -5 -14  -8   32.97    9.38
   5 -14   8   22.89    9.33
  -5 -14  -9   18.85    8.09
   5 -14   9   20.98    9.07
  -5 -14 -10   73.35   14.40
   5 -14  10   69.66   14.14
  -5 -14 -11  122.74   18.16
   5 -14  11  149.68   20.19
  -5 -14 -12  142.11   19.98
   5 -14  12  125.35   19.52
  -5 -14 -13  169.76   21.74
   5 -14  13  169.96   22.53
  -5 -14 -14  132.55   20.71
   5 -14  14  155.52   22.27
  -5 -14 -15  121.67   19.47
   5 -14  15   80.43   16.73
  -5 -14 -16   62.92   14.92
   5 -14  16   57.20   15.74
  -5 -14 -17   78.62   15.93
   5 -14  17   91.57   18.87
  -5 -14 -18   40.96   14.26
   5 -14  18   55.09   15.01
  -5 -14 -19   30.97   12.78
   5 -14  19   35.31   13.16
  -5 -14 -20   21.85   12.22
   5 -14  20    0.81   11.22
  -5 -14 -21   13.45   12.03
   5 -14  21    5.22    8.07
  -5 -14 -22   63.35   18.50
   5 -14  22   20.89   12.60
  -5 -14 -23   56.78   17.71
   5 -14  23  110.45   24.06
  -5 -14 -24   44.45   14.54
   5 -14  24   69.39   17.48
   5 -14  25   -0.30   13.25
   5 -14  26    2.53   12.78
  -6 -14  21   13.98    8.34
  -6 -14  20   16.98    7.40
  -6 -14  19   -4.64    6.26
  -6 -14  18  162.05   20.25
  -6 -14  17   53.68   12.24
   6 -14 -16   14.30    6.81
  -6 -14  16   30.48   10.19
   6 -14 -15   10.68    6.58
  -6 -14  15   19.33    8.50
   6 -14 -14  216.30   19.06
  -6 -14  14  258.93   24.02
   6 -14 -13  129.75   15.02
  -6 -14  13  124.09   16.66
  14  -6  12  304.40   28.86
   6 -14 -12  215.05   19.28
  -6 -14  12  196.70   20.69
  14  -6  11  153.55   21.12
   6 -14 -11  125.42   15.14
  -6 -14  11  153.92   18.21
  14  -6  10   31.22   11.47
  -6 -14  10   13.22    7.22
   6 -14 -10   24.30    7.96
  14  -6   9  121.74   17.68
  -6 -14   9   99.04   14.77
   6 -14  -9  100.13   13.29
  14  -6   8   19.37    9.43
   6 -14  -8   38.42    9.18
  -6 -14   8   12.63    6.97
  14  -6   7    9.67    7.68
   6 -14  -7    6.52    6.63
  -6 -14   7    3.38    7.36
  14  -6   6  642.14   38.16
   6 -14  -6  555.78   31.74
  -6 -14   6  577.46   34.46
  14  -6   5   45.42   11.13
  -6 -14   5   42.35   11.18
   6 -14  -5   43.35   10.07
  14  -6   4   15.00    7.70
  -6 -14   4   16.79    4.77
  -6 -14   4   11.13    7.86
   6 -14  -4   10.16    6.51
  14  -6   3  125.13   16.31
  -6 -14   3  131.91   11.70
  -6 -14   3  107.79   15.23
   6 -14  -3  117.91   14.75
  14  -6   2  188.20   19.34
  -6 -14   2  187.48   14.74
   6 -14  -2  190.21   19.34
  -6 -14   1   67.16    9.71
  14  -6   1   62.60   12.29
   6 -14  -1   69.01   13.05
  -6 -14   0   -4.64    5.16
  14  -6   0    3.73    5.73
   6 -14   0   -1.70    7.37
  -6 -14  -1   55.28    9.67
  14  -6  -1   53.87   10.52
   6 -14   1   49.12   11.66
  -6 -14  -2  129.88   14.53
  14  -6  -2  165.53   16.28
   6 -14   2  153.66   18.00
  -6 -14  -3  140.66   15.62
  14  -6  -3  152.87   15.22
   6 -14   3   98.11   15.82
  -6 -14  -4   28.21    8.71
  14  -6  -4   21.72    7.19
   6 -14   4   26.98   10.26
  -6 -14  -5   35.19    9.54
  14  -6  -5   46.79    8.25
   6 -14   5   33.97   11.54
  -6 -14  -6  528.39   32.46
   6 -14   6  492.33   34.65
  -6 -14  -7  -10.30    7.84
   6 -14   7    0.57    7.56
  -6 -14  -8   21.54    7.11
   6 -14   8   15.87    9.95
  -6 -14  -9   95.78   15.35
   6 -14   9  131.47   19.19
  -6 -14 -10   40.94   10.89
   6 -14  10   35.12   12.74
  -6 -14 -11  159.03   20.59
   6 -14  11  124.91   19.30
  -6 -14 -12  213.10   23.65
   6 -14  12  247.97   27.51
  -6 -14 -13  148.98   20.76
   6 -14  13   98.85   17.54
  -6 -14 -14  239.74   26.51
   6 -14  14  240.24   27.71
  -6 -14 -15   28.11   10.30
   6 -14  15   20.31   10.68
  -6 -14 -16   36.89   12.82
   6 -14  16   10.20    9.35
  -6 -14 -17   60.91   15.45
   6 -14  17   39.69   13.43
  -6 -14 -18  129.81   20.90
   6 -14  18  118.36   20.88
  -6 -14 -19   -9.63    9.61
   6 -14  19    0.41   10.72
  -6 -14 -20    3.33    9.29
   6 -14  20   23.54   13.29
  -6 -14 -21    6.74   10.32
   6 -14  21   10.70    9.29
  -6 -14 -22   18.76   11.51
   6 -14  22    9.79    9.77
  -6 -14 -23    7.16    7.41
   6 -14  23   60.15   16.60
  -6 -14 -24  136.27   24.27
   6 -14  24   73.77   19.70
   6 -14  25   20.90   13.43
  -7 -14  20   11.11    7.19
  -7 -14  19   59.51   13.19
  -7 -14  18   22.65    9.04
  -7 -14  17  192.07   21.20
  14  -7  16   69.83   16.96
  -7 -14  16   50.77   12.12
  14  -7  15  153.29   22.13
   7 -14 -15  158.74   16.09
  -7 -14  15  146.04   18.47
  14  -7  14  241.70   27.28
   7 -14 -14  229.85   19.50
  -7 -14  14  182.93   20.56
  14  -7  13   12.61    8.42
   7 -14 -13    8.62    5.53
  -7 -14  13    5.79    6.35
  14  -7  12   99.11   18.08
  -7 -14  12   88.81   14.26
   7 -14 -12   74.62   11.58
  14  -7  11   87.88   16.62
  -7 -14  11   96.48   14.87
   7 -14 -11   79.11   12.02
  14  -7  10   91.40   16.89
   7 -14 -10   84.80   12.51
  -7 -14  10   82.24   13.81
  14  -7   9   35.20   11.98
   7 -14  -9   15.39    7.14
  -7 -14   9   27.29    9.63
  14  -7   8   43.49   12.94
  -7 -14   8   30.54    9.34
   7 -14  -8   34.38    9.01
  14  -7   7  140.95   19.69
  -7 -14   7  129.96   16.46
   7 -14  -7  112.81   14.58
  14  -7   6   85.05   15.31
  -7 -14   6   87.92   14.58
   7 -14  -6   72.55   12.30
  14  -7   5  287.54   25.95
   7 -14  -5  296.20   23.92
  -7 -14   5  333.91   25.46
  14  -7   4   21.19    9.61
  -7 -14   4   13.21    7.83
   7 -14  -4   25.04    9.07
  14  -7   3  129.27   17.11
   7 -14  -3  128.02   15.84
  14  -7   2   61.08   12.53
   7 -14  -2   60.37   12.42
  14  -7   1   63.98   12.27
   7 -14  -1   62.50   12.26
  14  -7   0   11.37    7.13
   7 -14   0   13.52    8.42
  14  -7  -1   53.20   10.74
   7 -14   1   35.71   10.63
  14  -7  -2   51.20   10.23
   7 -14   2   73.52   14.37
  14  -7  -3  105.85   13.28
   7 -14   3  104.05   16.04
  14  -7  -4   14.11    5.91
   7 -14   4   20.04    9.86
  14  -7  -5  235.42   18.50
   7 -14   5  276.56   26.03
  14  -7  -6   98.45   11.88
   7 -14   6   86.66   15.85
  14  -7  -7  113.51   11.76
   7 -14   7  128.07   18.79
   7 -14   8   40.22   11.73
   7 -14   9   -3.28    8.29
  -7 -14 -10  119.94   18.12
   7 -14  10  109.46   18.23
  -7 -14 -11   77.58   15.57
   7 -14  11   52.49   14.80
  -7 -14 -12   91.06   16.22
   7 -14  12   79.23   16.36
  -7 -14 -13   -1.18    7.40
   7 -14  13   -0.47    9.15
  -7 -14 -14  181.79   23.09
   7 -14  14  216.38   26.81
  -7 -14 -15  126.97   19.72
   7 -14  15  136.93   22.92
  -7 -14 -16   60.16   14.31
   7 -14  16   54.85   15.66
  -7 -14 -17  175.35   24.83
   7 -14  17  155.50   24.47
  -7 -14 -18   21.46   12.84
   7 -14  18   23.68   11.83
  -7 -14 -19   65.37   16.74
   7 -14  19   78.59   19.19
  -7 -14 -20   -5.34   11.15
   7 -14  20   -3.57    8.50
  -7 -14 -21  -10.73   10.39
   7 -14  21   24.28   15.37
  -7 -14 -22   30.81   12.32
   7 -14  22   18.56   11.06
  -7 -14 -23   89.48   20.44
   7 -14  23  109.00   22.73
   7 -14  24   75.70   19.16
  14  -8  19   25.39   11.96
  -8 -14  19   41.56   11.43
  14  -8  18  242.42   28.93
  -8 -14  18  180.72   20.99
  14  -8  17  103.97   20.52
  -8 -14  17   61.77   13.04
  14  -8  16   41.19   15.44
  -8 -14  16   13.24    7.47
  14  -8  15  183.64   25.17
  -8 -14  15  189.10   20.78
  14  -8  14   13.43    9.40
   8 -14 -14   13.65    6.05
  -8 -14  14    9.53    6.73
  14  -8  13   -2.48    7.97
  -8 -14  13    3.71    5.93
   8 -14 -13   10.70    5.95
  14  -8  12    9.06    8.97
  -8 -14  12   16.81    7.84
   8 -14 -12   14.54    6.52
  14  -8  11    6.64    8.92
  -8 -14  11   12.30    6.67
   8 -14 -11   -3.70    5.98
  14  -8  10  172.13   23.21
  -8 -14  10  127.79   16.72
   8 -14 -10  157.18   16.90
  14  -8   9   93.75   18.14
  -8 -14   9  122.27   16.59
   8 -14  -9   97.67   13.45
  14  -8   8   22.65    9.95
  -8 -14   8    6.02    7.11
   8 -14  -8   10.76    7.18
  14  -8   7   10.35    6.88
  -8 -14   7    1.00    6.26
   8 -14  -7    2.83    6.20
  14  -8   6  383.00   31.42
   8 -14  -6  396.41   27.37
  -8 -14   6  348.87   27.19
  14  -8   5  109.86   16.97
  -8 -14   5  124.63   16.73
   8 -14  -5  120.48   15.86
  14  -8   4   -5.66    8.44
  -8 -14   4    2.82    6.15
   8 -14  -4    5.63    6.17
  14  -8   3   95.60   15.95
   8 -14  -3   98.31   14.19
  14  -8   2   20.82    8.11
   8 -14  -2   42.39   10.35
  14  -8   1  217.34   21.26
   8 -14  -1  230.45   22.31
  14  -8   0   13.01    7.30
   8 -14   0   21.77    8.86
  14  -8  -1  157.14   17.94
   8 -14   1  168.56   19.93
  14  -8  -2   48.79   11.02
   8 -14   2   32.69   10.50
  14  -8  -3   51.30   10.38
   8 -14   3   41.18   11.06
  14  -8  -4   -1.61    5.27
   8 -14   4   -0.94    8.88
  14  -8  -5   97.59   13.02
   8 -14   5   98.04   16.02
  14  -8  -6  418.23   25.16
   8 -14   6  396.09   31.71
  14  -8  -7   19.63    6.75
   8 -14   7   16.59   10.22
   8 -14   8   14.01    8.48
   8 -14   9  119.86   19.21
   8 -14  10  148.62   21.70
   8 -14  11    0.77    8.02
   8 -14  12   22.13   12.31
   8 -14  13    1.39    7.69
  -8 -14 -14   12.77    8.45
   8 -14  14   -5.34   10.34
  -8 -14 -15  169.51   23.01
   8 -14  15  183.58   25.26
  -8 -14 -16   24.63   10.19
   8 -14  16   -8.82   11.14
  -8 -14 -17   25.46   11.41
   8 -14  17   72.26   18.59
  -8 -14 -18  192.78   26.13
   8 -14  18  272.10   31.91
  -8 -14 -19   12.23    9.22
   8 -14  19   23.42   13.55
  -8 -14 -20   -6.96   10.84
   8 -14  20    6.92    9.95
  -8 -14 -21   47.08   14.80
   8 -14  21   98.79   22.41
  -8 -14 -22   66.36   16.23
   8 -14  22   75.88   20.03
  -8 -14 -23    8.37    9.33
   8 -14  23   33.71   13.73
  14  -9  21   67.22   19.18
  14  -9  20  197.24   27.74
  14  -9  19   70.38   17.75
  14  -9  18  135.81   22.81
  14  -9  17   41.74   14.18
  -9 -14  17   10.16    7.15
  14  -9  16   42.86   15.03
  -9 -14  16   91.77   14.62
  14  -9  15    9.35   10.89
  -9 -14  15   -9.41    7.26
  14  -9  14   41.48   14.37
  -9 -14  14   50.52   11.29
  14  -9  13   18.05   10.50
  -9 -14  13    6.92    6.36
  14  -9  12   32.91   12.00
  -9 -14  12   18.81    8.25
   9 -14 -12   22.79    8.18
  14  -9  11   45.04   13.83
  -9 -14  11   49.99   11.62
   9 -14 -11   36.59    8.82
  14  -9  10   94.62   18.08
  -9 -14  10  112.82   15.64
   9 -14 -10   76.94   12.28
  14  -9   9    3.31    8.83
  -9 -14   9   18.56    9.26
   9 -14  -9   12.76    5.96
  14  -9   8  263.40   27.70
   9 -14  -8  270.75   22.91
  -9 -14   8  287.90   25.12
  14  -9   7  102.61   18.12
  -9 -14   7  117.14   16.17
   9 -14  -7  110.54   15.14
  14  -9   6  230.85   25.42
  -9 -14   6  255.85   23.49
   9 -14  -6  220.04   20.98
  14  -9   5  113.46   17.78
  -9 -14   5  121.02   16.39
   9 -14  -5  124.93   17.17
  14  -9   4  281.76   26.52
   9 -14  -4  270.65   23.69
  14  -9   3    3.29    7.16
   9 -14  -3    2.86    6.13
  14  -9   2  181.79   21.14
   9 -14  -2  159.81   18.98
  14  -9   1   56.01   13.33
   9 -14  -1   66.41   13.09
  14  -9   0  -19.52    9.33
   9 -14   0    0.72    8.30
  14  -9  -1   39.38   11.04
   9 -14   1   52.71   13.04
  14  -9  -2  154.93   18.41
   9 -14   2  174.06   20.81
  14  -9  -3    2.69    6.56
   9 -14   3    0.71    7.77
  14  -9  -4  285.42   23.43
   9 -14   4  270.65   26.15
  14  -9  -5  112.40   14.35
   9 -14   5  111.16   17.47
  14  -9  -6  234.33   19.92
   9 -14   6  237.51   25.59
  14  -9  -7   97.95   12.78
   9 -14   7  102.16   17.12
   9 -14   8  214.18   24.80
   9 -14   9   28.52   11.96
   9 -14  10   95.89   18.46
   9 -14  11   50.93   14.66
   9 -14  12   29.73   12.22
   9 -14  13   21.87   12.32
   9 -14  14   62.14   16.56
   9 -14  15  -12.36   12.54
  -9 -14 -16   97.36   19.09
   9 -14  16   90.38   19.65
  -9 -14 -17   12.07    9.89
   9 -14  17   13.88   11.38
  -9 -14 -18   91.52   18.38
   9 -14  18   84.30   18.91
  -9 -14 -19   59.38   16.84
   9 -14  19   94.95   21.43
  -9 -14 -20  180.85   26.07
   9 -14  20  171.68   27.45
  -9 -14 -21   42.22   13.96
   9 -14  21   50.22   16.08
  -9 -14 -22   45.93   15.00
   9 -14  22   40.66   17.95
  14 -10  21   41.01   15.03
  14 -10  20  335.29   36.14
  14 -10  19   35.15   13.64
  14 -10  18   17.88   11.85
  14 -10  17   51.57   17.44
  14 -10  16  119.21   22.39
 -10 -14  16  114.42   16.53
  14 -10  15   67.63   18.44
 -10 -14  15   70.32   12.94
  14 -10  14   -9.39   11.36
 -10 -14  14    0.23    6.04
  14 -10  13   14.96    9.98
 -10 -14  13    9.15    7.73
  14 -10  12   52.25   15.64
 -10 -14  12   65.86   12.60
  14 -10  11   90.11   17.69
 -10 -14  11   75.74   13.78
  10 -14 -11   73.54   11.60
  14 -10  10   25.28   10.98
 -10 -14  10   41.09   10.88
  10 -14 -10   31.10    8.78
  14 -10   9   91.59   18.13
 -10 -14   9  114.81   16.31
  10 -14  -9   97.17   14.08
  14 -10   8  242.34   27.49
 -10 -14   8  288.79   25.50
  10 -14  -8  225.20   21.21
  14 -10   7   -1.49    9.34
 -10 -14   7    3.01    6.25
  10 -14  -7    5.58    6.76
  14 -10   6   -1.99   10.20
 -10 -14   6   32.19   10.13
  10 -14  -6   22.25    8.87
  14 -10   5  129.40   19.71
  10 -14  -5  128.54   16.46
  14 -10   4  515.01   37.01
  10 -14  -4  498.75   32.56
  14 -10   3  164.05   20.92
  10 -14  -3  154.76   18.73
  14 -10   2   22.60    8.86
  10 -14  -2   31.89   10.36
  14 -10   1   44.73   11.51
  10 -14  -1   56.50   12.05
  14 -10   0   47.21   11.82
  10 -14   0   58.41   12.74
  14 -10  -1   41.19   10.75
  10 -14   1   47.14   11.58
  14 -10  -2   24.16    8.52
  10 -14   2   26.83   11.35
  14 -10  -3  157.48   18.79
  10 -14   3  168.96   21.67
  14 -10  -4  537.57   33.05
  10 -14   4  497.15   36.69
  14 -10  -5   99.23   14.30
  10 -14   5  104.81   17.86
  14 -10  -6    1.77    4.91
  10 -14   6    8.85    8.62
  14 -10  -7   -0.90    4.65
  10 -14   7  -11.87   10.09
  10 -14   8  242.26   27.64
  10 -14   9  109.25   19.38
  10 -14  10   39.65   13.04
 -14 -10  10   29.10    7.94
  10 -14  11  116.67   21.19
  10 -14  12   50.92   15.57
  10 -14  13    4.72    9.70
  10 -14  14   -1.08    8.57
  10 -14  15   81.50   18.75
  10 -14  16   88.13   20.74
  10 -14  17   56.57   16.95
  10 -14  18   -2.97    8.47
 -10 -14 -18   28.02   12.95
  10 -14  19  -11.82   14.74
 -10 -14 -19   11.39    9.44
  10 -14  20  273.05   34.22
 -10 -14 -20  279.20   32.60
  10 -14  21   27.21   14.26
 -10 -14 -21   32.48   14.66
  14 -11  20   17.40   13.49
  14 -11  19  124.29   23.61
  14 -11  18   32.33   14.88
  14 -11  17    6.20   10.54
  14 -11  16   55.68   16.91
  14 -11  15   48.51   16.06
  14 -11  14  214.24   27.05
 -11 -14  14  146.80   18.30
  14 -11  13    8.63   10.69
 -11 -14  13    8.95    6.80
  14 -11  12  131.68   21.91
 -11 -14  12  168.35   19.44
  14 -11  11   -4.13    9.92
 -11 -14  11   19.33    7.54
  14 -11  10   87.33   19.20
 -11 -14  10   96.97   15.48
  11 -14 -10  111.26   14.68
  14 -11   9  214.12   26.87
 -11 -14   9  240.44   23.61
  11 -14  -9  182.63   19.32
  14 -11   8   36.77   13.22
 -11 -14   8   39.23   11.05
  11 -14  -8   19.30    8.50
  14 -11   7   71.42   16.60
 -11 -14   7   67.91   13.80
  11 -14  -7   66.92   12.56
  14 -11   6   70.89   15.96
 -11 -14   6   74.00   14.34
  11 -14  -6   46.22   10.79
  14 -11   5  182.02   23.70
  11 -14  -5  168.15   19.39
  14 -11   4  197.67   23.55
  11 -14  -4  170.01   20.17
  14 -11   3  287.37   28.09
  11 -14  -3  259.49   24.35
  14 -11   2  310.75   28.40
  11 -14  -2  268.57   24.83
  14 -11   1   88.09   15.54
  11 -14  -1   76.85   14.21
  14 -11   0  167.02   20.30
  11 -14   0  138.00   19.38
  14 -11  -1   55.49   12.38
  11 -14   1   67.43   14.99
  14 -11  -2  288.14   25.68
  11 -14   2  228.23   24.91
  14 -11  -3  212.04   21.56
  11 -14   3  271.38   27.59
  14 -11  -4  248.69   23.02
  11 -14   4  221.76   25.59
  14 -11  -5  177.94   19.22
  11 -14   5  141.20   21.06
  14 -11  -6   60.94   11.36
  11 -14   6   49.30   13.11
  11 -14   7   55.13   15.68
  11 -14   8   17.88    9.18
  11 -14   9  258.78   29.42
  11 -14  10   74.56   17.46
 -14 -11  10   81.38   12.97
  11 -14  11   23.69   11.98
  11 -14  12   96.44   18.95
  11 -14  13  -10.10    9.99
  11 -14  14  210.54   28.20
  11 -14  15   69.39   19.09
  11 -14  16   79.16   19.71
  11 -14  17    0.57    8.86
  11 -14  18   -1.99   10.76
  11 -14  19  118.13   23.27
 -11 -14 -20  -25.42   14.52
  14 -12  18   56.02   16.22
  14 -12  17   16.99   12.66
  14 -12  16   11.56   11.75
  14 -12  15   69.93   18.20
  14 -12  14  202.17   28.23
  14 -12  13    5.82   10.13
 -12 -14  13   17.61    7.18
  14 -12  12  169.67   25.65
 -12 -14  12  140.34   18.12
  14 -12  11    4.86   11.09
 -12 -14  11   13.49    7.70
  14 -12  10  125.31   22.15
 -12 -14  10  128.03   17.88
  14 -12   9  100.99   20.90
 -12 -14   9   83.50   15.51
  14 -12   8  249.22   28.82
 -12 -14   8  221.23   23.17
  12 -14  -8  230.13   22.05
  14 -12   7   21.72   10.93
 -12 -14   7   36.30   11.08
  12 -14  -7   45.29   10.76
  14 -12   6   52.16   15.89
  12 -14  -6   88.82   14.54
  14 -12   5   38.16   11.82
  12 -14  -5   47.90   12.41
  14 -12   4   27.78   10.87
  12 -14  -4   27.86    9.79
  14 -12   3   83.42   15.49
  12 -14  -3   80.78   15.23
  14 -12   2  443.68   34.81
  12 -14  -2  468.54   33.86
  14 -12   1   50.31   13.27
  12 -14  -1   18.47    9.59
  14 -12   0  173.78   21.28
  12 -14   0  145.63   20.44
  14 -12  -1   29.18   10.49
  12 -14   1   31.26   12.26
  14 -12  -2  531.52   35.94
  12 -14   2  471.88   36.54
  14 -12  -3  110.40   16.53
  12 -14   3   93.03   17.36
  14 -12  -4   28.86    9.37
  12 -14   4   15.49    9.47
  14 -12  -5   40.99   10.68
  12 -14   5   40.42   13.80
  14 -12  -6   95.58   14.35
  12 -14   6   73.21   16.50
  12 -14   7   17.43    9.29
  12 -14   8  264.70   29.39
  12 -14   9  105.69   20.58
 -14 -12   9   95.36   14.95
  12 -14  10  116.00   21.75
 -14 -12  10  115.31   15.82
  12 -14  11    8.04   11.74
  12 -14  12  114.56   21.90
  12 -14  13    6.98   12.02
  12 -14  14  258.03   31.64
  12 -14  15   59.38   17.87
  12 -14  16  -17.04   12.81
  12 -14  17   11.87    9.60
  12 -14  18   61.07   17.50
  14 -13  17   12.93   15.48
  14 -13  16   84.81   21.02
  14 -13  15   61.90   19.03
  14 -13  14   67.09   18.93
  14 -13  13  -10.78   10.81
  14 -13  12  102.86   20.80
 -13 -14  12  124.21   17.65
  14 -13  11  -10.26    9.36
 -13 -14  11   -1.81    5.73
  14 -13  10   42.36   13.10
 -13 -14  10   41.74   10.99
  14 -13   9  277.35   31.00
 -13 -14   9  337.63   28.78
  14 -13   8   26.85   13.19
 -13 -14   8   41.31   11.16
  14 -13   7  217.29   27.38
 -13 -14   7  251.01   25.72
  13 -14  -7  182.10   20.38
  14 -13   6    2.79    8.20
  13 -14  -6   -2.78    6.03
  14 -13   5   45.94   14.57
  13 -14  -5   36.04    9.70
  14 -13   4    4.08    8.58
  13 -14  -4   29.27    9.83
  14 -13   3  165.52   22.72
  13 -14  -3  126.55   18.07
  14 -13   2   71.02   15.29
  13 -14  -2   63.73   14.34
  14 -13   1   13.63    9.27
  13 -14  -1   -5.50    8.32
  14 -13   0  204.52   24.10
  13 -14   0  183.54   22.56
  14 -13  -1   13.61    9.00
  13 -14   1    5.05    8.78
  14 -13  -2   60.73   13.54
  13 -14   2   55.56   14.19
  14 -13  -3  136.27   18.93
  13 -14   3  154.34   21.68
  13 -14   4   27.36   11.31
  14 -13  -4   35.21   10.62
  13 -14   5   35.00   12.02
  14 -13  -5   50.26   11.08
  13 -14   6  -11.31   11.63
  14 -13  -6   -1.97    7.16
  13 -14   7  157.34   23.82
  13 -14   8   41.87   15.43
 -14 -13   8   13.32    8.53
  13 -14   9  301.53   32.48
 -14 -13   9  283.91   25.82
  13 -14  10   40.33   14.61
 -14 -13  10   26.93    8.50
  13 -14  11    0.38    9.34
  13 -14  12  107.07   20.75
  13 -14  13    6.87    9.74
  13 -14  14   69.42   17.82
  13 -14  15   44.49   14.73
  13 -14  16   90.29   21.26
  13 -14  17   -1.63   11.06
  14 -14   0    8.44    8.13
  14 -14   1    8.38    9.83
  14 -14  -1    3.35    7.92
  14 -14   2   12.74   10.70
  14 -14  -2  -10.20    9.80
  14 -14   3    8.58   10.35
  14 -14  -3    9.96    7.98
  14 -14   4   68.34   15.99
  14 -14  -4   94.05   15.66
  14 -14   5   67.41   15.39
  14 -14  -5   18.66    8.78
  14 -14   6   -3.14    9.87
  14 -14   7   26.66   13.48
  14 -14   8  259.64   30.39
 -14 -14   8  202.09   23.12
  14 -14   9   92.96   19.37
 -14 -14   9  101.17   16.79
  14 -14  10    0.93   11.57
 -14 -14  10   11.35    8.60
  14 -14  11   37.52   13.65
  14 -14  12    4.42   11.59
  14 -14  13    3.20   11.58
  14 -14  14   12.86   11.18
  14 -14  15   62.20   19.17
  14 -14  16   19.81   16.03
   0 -15   0    1.80    6.79
   0 -15   1  243.20   22.11
   0 -15  -1  279.81   23.12
   0 -15   2   -3.17    5.86
   0 -15  -2   10.30    7.62
   0 -15  -3  179.49   20.09
   0 -15   3  179.71   19.35
   0 -15   4  512.55   32.74
   0 -15  -4  554.69   33.03
   0 -15  -5   21.17    9.45
   0 -15   5    1.48    6.91
   0 -15   6  103.35   15.54
   0 -15  -6  109.84   15.31
   0 -15   7  280.34   25.20
   0 -15  -7  258.08   22.67
   0 -15  -8  806.03   45.34
   0 -15   8  811.13   43.13
   0 -15  -8  697.94   39.33
   0 -15  -9   -3.54    7.69
   0 -15   9  -10.57    9.82
   0 -15 -10    1.79    7.89
   0 -15  10   -9.11    9.65
   0 -15 -11  164.16   21.51
   0 -15  11  182.19   21.64
   0 -15 -12    1.42    9.18
   0 -15  12   19.87   10.64
   0 -15 -13  491.04   38.95
   0 -15  13  435.99   33.76
   0 -15 -14   73.38   16.81
   0 -15  14   91.41   16.96
   0 -15 -15   52.85   15.02
   0 -15  15   90.69   17.11
   0 -15 -16   16.06    9.86
   0 -15  16    9.56    9.24
   0 -15 -17    8.83   11.65
   0 -15  17   20.32   11.20
   0 -15 -18  210.28   28.46
   0 -15  18  219.24   26.02
   0 -15 -19   37.42   13.54
   0 -15  19   37.45   12.55
   0 -15 -20  101.86   22.06
   0 -15  20   74.40   16.96
   0 -15 -21   21.36   11.66
   0 -15  21    9.67    9.80
   0 -15 -22   73.40   20.29
   0 -15  22   74.10   17.06
   0 -15 -23    3.94   12.63
   0 -15  23  -12.46   10.79
   0 -15 -24    7.66   12.22
   0 -15  24    1.07    8.83
   0 -15  25   92.90   19.78
   0 -15  26   11.17    9.73
   0 -15  27   71.18   17.75
  -1 -15  26   21.41   11.43
  -1 -15  25   22.69   12.29
  -1 -15  24   22.16   10.88
  -1 -15  23   33.79   13.65
  -1 -15  22   46.71   14.82
  -1 -15  21   60.89   15.37
  -1 -15  20   -3.53    9.10
  -1 -15  19   59.36   14.61
  -1 -15  18   41.74   12.49
  -1 -15  17   78.81   15.80
  -1 -15  16   32.16   11.31
  -1 -15  15   84.44   16.40
  -1 -15  14  117.22   18.04
  -1 -15  13  160.42   21.03
  -1 -15  12   53.37   12.66
   1 -15 -11  198.91   19.47
  -1 -15  11  166.05   20.09
   1 -15 -10   41.68   10.54
  -1 -15  10   11.85    8.23
  -1 -15   9  250.00   23.89
   1 -15  -9  266.59   22.46
   1 -15  -8  161.49   18.02
  -1 -15   8  165.20   19.44
  -1 -15   7  351.06   27.69
   1 -15  -7  316.29   24.86
   1 -15  -6   85.64   13.85
  -1 -15   6   99.42   14.52
  -1 -15   5  379.10   27.89
   1 -15  -5  416.12   28.40
  -1 -15   4  102.27   15.29
   1 -15  -4  115.62   15.88
   1 -15  -3  139.42   17.20
  -1 -15   3  169.49   18.41
   1 -15  -2  163.37   18.54
  -1 -15   2  162.95   18.11
  -1 -15   1  102.59   15.03
   1 -15  -1  110.61   15.10
  -1 -15   0   42.26   10.09
   1 -15   0   54.07   11.43
  -1 -15  -1   97.80   14.42
   1 -15   1   71.26   12.06
  -1 -15  -2  169.36   18.33
   1 -15   2  165.43   18.66
   1 -15   3  131.12   16.94
  -1 -15  -3  169.51   18.51
   1 -15   4  109.92   16.16
  -1 -15  -4  133.39   16.86
  -1 -15  -4  112.48   15.92
  -1 -15  -5  386.72   28.05
   1 -15   5  436.81   30.45
  -1 -15  -5  453.90   29.74
  -1 -15  -6   96.25   14.97
   1 -15   6  101.78   16.38
  -1 -15  -6  110.28   15.34
  -1 -15  -7  276.07   25.21
   1 -15   7  292.72   25.82
  -1 -15  -8  138.67   18.62
   1 -15   8  121.69   17.69
  -1 -15  -9  265.10   25.80
   1 -15   9  246.38   24.22
  -1 -15 -10   37.44   11.71
   1 -15  10   32.15   10.70
  -1 -15 -11  209.67   24.00
   1 -15  11  159.82   20.12
  -1 -15 -12   65.29   14.68
   1 -15  12   85.86   15.21
  -1 -15 -13  172.16   23.20
   1 -15  13  181.73   22.57
  -1 -15 -14  115.33   19.22
   1 -15  14  112.74   18.28
  -1 -15 -15   65.11   15.40
   1 -15  15   79.27   15.61
  -1 -15 -16   38.46   11.82
   1 -15  16   26.20   10.61
  -1 -15 -17   54.49   15.36
   1 -15  17   83.53   17.00
  -1 -15 -18   36.32   15.03
   1 -15  18   65.43   16.45
  -1 -15 -19   55.86   17.16
   1 -15  19   48.69   15.25
  -1 -15 -20    9.22    9.35
   1 -15  20    2.73    9.45
  -1 -15 -21   74.48   20.00
   1 -15  21   81.52   18.86
  -1 -15 -22   48.92   14.89
   1 -15  22   36.54   13.48
  -1 -15 -23   28.43   14.22
   1 -15  23   26.70   12.93
  -1 -15 -24   25.89   15.69
   1 -15  24   36.22   13.80
   1 -15  25   22.30   10.41
   1 -15  26   14.53   10.74
   1 -15  27   72.40   17.83
  -2 -15  25    4.58    8.05
  -2 -15  24   42.93   14.97
  -2 -15  23   -0.02    9.54
  -2 -15  22   75.65   16.87
  -2 -15  21   56.69   14.59
  -2 -15  20  106.05   18.72
  -2 -15  19   63.35   15.53
  -2 -15  18  122.74   19.63
  -2 -15  17   16.66    7.64
  -2 -15  16  139.86   19.85
  -2 -15  15   45.31   11.72
   2 -15 -14   44.77   10.15
  -2 -15  14   30.48    9.98
   2 -15 -13   17.51    7.32
  -2 -15  13   11.78    8.38
   2 -15 -12    5.22    6.52
  -2 -15  12    3.00    8.13
   2 -15 -11   -3.82    6.29
  -2 -15  11    9.71    7.59
   2 -15 -10  160.44   17.67
  -2 -15  10  132.66   17.81
  -2 -15   9  168.56   19.75
   2 -15  -9  199.79   19.30
   2 -15  -8   94.74   13.91
  -2 -15   8   92.76   14.50
   2 -15  -7  111.53   15.46
  -2 -15   7   71.83   13.26
  -2 -15   6  528.94   33.35
   2 -15  -6  541.53   32.27
  -2 -15   5   59.41   12.12
   2 -15  -5   71.76   12.77
   2 -15  -4  480.67   30.20
  -2 -15   4  516.84   32.50
  -2 -15   3   27.06    8.62
   2 -15  -3   68.63   12.75
   2 -15  -2  125.39   16.41
  -2 -15   2  119.27   16.57
   2 -15  -1   16.66    7.55
  -2 -15   1   13.68    7.91
  -2 -15   0   48.79   10.55
   2 -15   0   53.91   11.71
  -2 -15  -1   23.97    7.45
  -2 -15  -1   29.87    9.78
   2 -15   1   19.84    8.42
  -2 -15  -2  139.46   15.17
  -2 -15  -2  104.47   14.93
   2 -15   2   89.58   14.30
  -2 -15  -3   54.57   10.31
   2 -15   3   47.96   11.07
  -2 -15  -3   38.88   10.98
  -2 -15  -4  505.09   30.99
   2 -15   4  520.51   33.08
  -2 -15  -4  415.02   30.84
  -2 -15  -5   91.62   13.80
   2 -15   5   67.66   14.28
  -2 -15  -6  459.09   31.34
   2 -15   6  477.91   32.87
  -2 -15  -7  110.05   16.66
   2 -15   7  120.29   16.97
  -2 -15  -8  155.97   19.99
   2 -15   8  170.24   19.63
  -2 -15  -9  227.73   24.33
   2 -15   9  223.43   23.60
  -2 -15 -10  132.19   18.94
   2 -15  10  102.60   16.46
  -2 -15 -11    9.47    8.93
   2 -15  11   27.09   10.55
  -2 -15 -12    3.56    8.31
   2 -15  12    8.20    8.87
  -2 -15 -13   18.37   10.86
   2 -15  13    7.25    7.45
  -2 -15 -14   46.76   14.05
   2 -15  14   47.86   13.57
  -2 -15 -15   21.69    9.42
   2 -15  15   29.80   10.57
  -2 -15 -16  131.50   21.18
   2 -15  16  143.12   22.27
  -2 -15 -17    5.57    9.48
   2 -15  17   29.38   12.81
  -2 -15 -18  114.00   21.09
   2 -15  18   98.41   19.41
  -2 -15 -19   56.88   15.50
   2 -15  19   70.40   17.90
  -2 -15 -20  103.74   20.97
   2 -15  20  109.16   20.06
  -2 -15 -21   79.11   19.66
   2 -15  21   80.48   17.98
  -2 -15 -22  122.45   24.03
   2 -15  22  133.55   23.51
  -2 -15 -23   49.41   17.43
   2 -15  23   -3.12    9.31
  -2 -15 -24   49.29   17.38
   2 -15  24   28.75   13.00
   2 -15  25  -26.24   14.68
   2 -15  26   -5.38   11.78
  -3 -15  24   -9.11    8.83
  -3 -15  23   30.08   11.71
  -3 -15  22   21.76    9.52
  -3 -15  21  174.78   24.50
   3 -15 -20   27.82    8.60
  -3 -15  20   26.59   11.18
   3 -15 -19  226.29   21.26
  -3 -15  19  239.10   26.50
   3 -15 -18   18.61    7.87
  -3 -15  18   39.91   12.64
   3 -15 -17  180.39   18.85
  -3 -15  17  242.12   25.88
   3 -15 -16    5.03    5.41
  -3 -15  16   18.31    9.94
   3 -15 -15    4.77    6.06
  -3 -15  15   -6.72    7.81
   3 -15 -14   31.86    9.51
  -3 -15  14   13.16    8.70
   3 -15 -13   15.10    7.98
  -3 -15  13    5.62    7.00
   3 -15 -12    4.75    6.00
  -3 -15  12   -3.29    6.93
   3 -15 -11    0.17    5.56
  -3 -15  11    6.21    7.58
   3 -15 -10   80.78   13.48
  -3 -15  10   70.91   13.79
  -3 -15   9  252.11   23.41
   3 -15  -9  251.48   21.86
   3 -15  -8   16.44    8.25
  -3 -15   8   18.42    9.95
   3 -15  -7  403.96   27.59
  -3 -15   7  402.80   29.01
  -3 -15   6   32.60    8.98
   3 -15  -6   32.41    9.32
  -3 -15   5  351.88   26.98
   3 -15  -5  314.54   24.26
  -3 -15   4  228.47   21.77
   3 -15  -4  229.73   21.05
   3 -15  -3  208.01   20.37
  -3 -15   3  204.13   20.35
  -3 -15   2   32.51   11.28
   3 -15  -2   10.67    7.92
  -3 -15   1    4.19    5.79
  -3 -15   1   48.24   11.70
   3 -15  -1   42.65   10.34
  -3 -15   0    0.45    3.97
  -3 -15   0   11.59    8.98
   3 -15   0    2.43    7.33
  -3 -15  -1   41.13    8.15
   3 -15   1   46.63   11.00
  -3 -15  -1   48.28   10.91
  -3 -15  -2    7.47    5.34
  -3 -15  -2    8.00    6.95
   3 -15   2   11.27    7.71
  -3 -15  -3  287.57   22.57
   3 -15   3  224.94   22.10
  -3 -15  -4  207.65   20.12
   3 -15   4  174.74   19.80
  -3 -15  -5  344.97   25.95
   3 -15   5  329.87   27.31
  -3 -15  -6   27.33    8.86
   3 -15   6   35.98   11.73
  -3 -15  -7  390.62   29.24
   3 -15   7  361.44   29.19
  -3 -15  -8   11.98    8.44
   3 -15   8    3.75    8.40
  -3 -15  -9  292.88   26.80
   3 -15   9  283.73   27.12
  -3 -15 -10   98.93   16.85
   3 -15  10   81.21   15.73
  -3 -15 -11    1.19    6.66
   3 -15  11   -1.58    8.88
  -3 -15 -12   19.17    9.40
   3 -15  12   11.03    9.78
  -3 -15 -13    3.27    7.78
   3 -15  13    0.64    8.03
  -3 -15 -14   32.04   12.98
   3 -15  14    4.02    7.04
  -3 -15 -15   -4.73    9.84
   3 -15  15    5.39    8.41
  -3 -15 -16    5.59    7.45
   3 -15  16   -7.70    8.48
  -3 -15 -17  207.00   26.82
   3 -15  17  198.45   25.36
  -3 -15 -18   19.26    9.82
   3 -15  18   48.89   14.37
  -3 -15 -19  237.02   30.40
   3 -15  19  256.95   29.83
  -3 -15 -20   17.67    9.95
   3 -15  20    4.15    8.80
  -3 -15 -21  139.84   24.86
   3 -15  21  131.77   24.73
  -3 -15 -22   44.18   17.10
   3 -15  22    7.76    9.83
  -3 -15 -23   16.07   10.22
   3 -15  23   27.52   12.98
  -3 -15 -24  -10.92   10.81
   3 -15  24   10.26    9.51
   3 -15  25    7.30    9.44
   3 -15  26    5.36   11.76
  -4 -15  23    2.12    6.96
  -4 -15  22   62.33   14.81
  -4 -15  21   40.70   13.03
  -4 -15  20  191.27   23.57
   4 -15 -19   61.53   11.56
  -4 -15  19   54.06   13.73
   4 -15 -18  186.75   19.12
  -4 -15  18  164.55   21.58
   4 -15 -17  110.97   15.04
  -4 -15  17  164.00   21.16
   4 -15 -16  114.11   15.03
  -4 -15  16  105.58   17.57
   4 -15 -15   24.65    8.30
  -4 -15  15   -0.78    6.39
   4 -15 -14   79.31   13.22
  -4 -15  14   88.35   15.24
   4 -15 -13  105.68   14.73
  -4 -15  13  127.20   18.05
   4 -15 -12   89.74   13.25
  -4 -15  12   92.13   15.57
   4 -15 -11   48.74   10.77
  -4 -15  11   36.30   10.79
  -4 -15  10   69.23   13.57
   4 -15 -10   50.59   10.36
   4 -15  -9   81.41   13.27
  -4 -15   9   67.23   12.99
   4 -15  -8  323.71   24.51
  -4 -15   8  293.19   24.89
   4 -15  -7  144.28   16.85
  -4 -15   7  124.32   16.60
   4 -15  -6  173.90   18.40
  -4 -15   6  169.57   18.77
   4 -15  -5  111.03   14.71
  -4 -15   5  104.11   14.66
  -4 -15   4  115.22   15.73
   4 -15  -4  133.98   15.96
   4 -15  -3   28.91    8.97
  -4 -15   3   35.21   10.49
  -4 -15   2  167.39   13.91
  -4 -15   2  157.36   18.33
   4 -15  -2  125.19   16.05
  -4 -15   1   27.44    6.64
  -4 -15   1   36.05   10.02
   4 -15  -1   46.01   11.53
  -4 -15   0   21.98    6.44
  -4 -15   0   32.43   10.72
   4 -15   0   17.76    7.95
  -4 -15  -1   29.25    7.26
  -4 -15  -1   59.37   13.60
   4 -15   1   43.28   12.06
  -4 -15  -2  183.71   17.34
   4 -15   2  202.77   21.09
  -4 -15  -3   31.58    8.33
   4 -15   3   60.35   12.67
  -4 -15  -4  146.56   16.79
   4 -15   4  146.48   19.38
  -4 -15  -5   98.84   14.45
   4 -15   5   91.26   14.97
  -4 -15  -6  213.63   20.82
   4 -15   6  176.78   20.74
  -4 -15  -7  118.42   16.95
   4 -15   7   97.76   15.98
  -4 -15  -8  269.96   25.16
   4 -15   8  285.03   26.47
  -4 -15  -9   46.89   12.76
   4 -15   9   57.06   15.10
  -4 -15 -10   57.39   13.69
   4 -15  10   92.81   16.84
  -4 -15 -11   51.10   13.44
   4 -15  11   71.77   15.47
  -4 -15 -12   84.43   16.09
   4 -15  12   75.09   15.99
  -4 -15 -13  141.25   20.46
   4 -15  13  145.19   22.05
  -4 -15 -14   82.14   17.39
   4 -15  14   63.22   15.56
  -4 -15 -15   25.51   12.90
   4 -15  15   46.27   14.30
  -4 -15 -16  111.03   19.34
   4 -15  16  118.98   19.86
  -4 -15 -17  113.80   20.51
   4 -15  17  106.56   19.89
  -4 -15 -18  166.47   24.87
   4 -15  18  172.99   24.83
  -4 -15 -19   47.39   14.60
   4 -15  19   33.77   13.45
  -4 -15 -20  188.97   27.35
   4 -15  20  173.98   26.80
  -4 -15 -21    9.08   10.77
   4 -15  21    1.39    9.52
  -4 -15 -22   88.49   20.44
   4 -15  22   67.96   17.72
  -4 -15 -23   20.08   11.98
   4 -15  23    5.94    9.72
  -4 -15 -24   24.08   14.62
   4 -15  24   47.45   16.44
   4 -15  25    1.79    9.11
  -5 -15  22   23.48   10.91
  -5 -15  21   30.13   10.61
  -5 -15  20    4.13    7.66
  -5 -15  19  151.88   20.51
  -5 -15  18   18.95    8.81
   5 -15 -17   56.60   10.46
  -5 -15  17   81.32   15.52
   5 -15 -16  124.23   15.34
  -5 -15  16  135.07   18.77
   5 -15 -15   44.58    9.77
  -5 -15  15   52.56   12.83
   5 -15 -14   89.97   13.53
  -5 -15  14   56.12   13.17
   5 -15 -13  302.19   23.68
  -5 -15  13  313.49   27.55
  -5 -15  12   32.77   10.28
   5 -15 -12   48.22   10.11
  -5 -15  11  144.21   18.48
   5 -15 -11  123.71   15.08
   5 -15 -10   17.66    7.86
  -5 -15  10   20.71    8.40
   5 -15  -9    6.68    5.75
  -5 -15   9    4.26    6.86
  -5 -15   8   91.63   14.30
   5 -15  -8   93.78   14.34
   5 -15  -7  123.65   15.74
  -5 -15   7  161.25   18.30
   5 -15  -6    5.72    6.50
  -5 -15   6    9.16    8.71
   5 -15  -5  184.38   19.04
  -5 -15   5  225.34   21.72
  -5 -15   4  190.58   20.84
   5 -15  -4  160.37   17.81
  -5 -15   3   83.19   13.53
   5 -15  -3   82.80   13.14
  -5 -15   2  156.14   13.35
  -5 -15   2  142.13   17.18
   5 -15  -2  136.03   17.19
  -5 -15   1  354.28   21.44
   5 -15  -1  335.64   26.38
  -5 -15   1  366.50   27.86
  -5 -15   0    2.77    4.21
  -5 -15   0    4.76    7.05
   5 -15   0    4.83    7.94
  -5 -15  -1  341.39   22.94
   5 -15   1  382.48   28.90
  -5 -15  -2  185.98   17.82
   5 -15   2  170.22   20.12
  -5 -15  -3  124.90   14.84
   5 -15   3  112.86   16.73
  -5 -15  -4  184.97   18.35
   5 -15   4  185.11   21.15
  -5 -15  -5  200.48   20.14
   5 -15   5  204.32   22.12
  -5 -15  -6   19.95    9.29
   5 -15   6   27.38   11.41
  -5 -15  -7  155.75   18.62
   5 -15   7  121.43   18.01
  -5 -15  -8  113.69   17.09
   5 -15   8  103.62   17.28
  -5 -15  -9    2.87    7.11
   5 -15   9   25.61   11.22
  -5 -15 -10   16.66    7.71
   5 -15  10   -0.13    8.05
  -5 -15 -11  138.72   19.49
   5 -15  11  151.07   21.50
  -5 -15 -12   31.24   10.47
   5 -15  12   41.07   13.74
  -5 -15 -13  235.50   26.18
   5 -15  13  269.22   28.87
  -5 -15 -14  108.04   18.15
   5 -15  14   92.77   19.50
  -5 -15 -15   55.38   14.49
   5 -15  15   39.30   12.51
  -5 -15 -16  114.01   20.39
   5 -15  16  124.17   21.28
  -5 -15 -17   45.22   13.58
   5 -15  17   77.13   18.08
  -5 -15 -18   21.92   12.68
   5 -15  18   27.38   12.63
  -5 -15 -19  138.95   23.27
   5 -15  19  168.06   25.92
  -5 -15 -20   -4.84    9.40
   5 -15  20   27.71   11.50
  -5 -15 -21   33.36   15.06
   5 -15  21   28.22   12.92
  -5 -15 -22   -1.15    8.41
   5 -15  22   -2.41   10.32
  -5 -15 -23   21.17   12.64
   5 -15  23    9.67   10.77
   5 -15  24   42.19   16.06
  -6 -15  21   -4.28    7.16
  -6 -15  20  117.55   18.84
  -6 -15  19   34.96   11.43
  -6 -15  18   59.19   13.35
  -6 -15  17   12.29    7.74
   6 -15 -16   17.72    7.57
  -6 -15  16   12.47    7.62
   6 -15 -15   93.82   13.22
  -6 -15  15   98.52   16.18
   6 -15 -14   15.05    7.71
  -6 -15  14    7.52    8.36
  -6 -15  13  236.92   23.53
   6 -15 -13  236.84   20.93
  -6 -15  12   37.55   10.43
   6 -15 -12   32.93    9.55
  -6 -15  11   53.16   12.05
   6 -15 -11   49.13   10.38
  -6 -15  10   46.65   11.66
   6 -15 -10   38.21    9.06
   6 -15  -9   11.85    7.01
  -6 -15   9   16.72    9.64
  -6 -15   8  304.06   25.36
   6 -15  -8  242.58   21.40
  15  -6   7   46.59   13.15
  -6 -15   7   33.84    9.82
   6 -15  -7   34.93    9.03
  15  -6   6  253.93   24.13
   6 -15  -6  206.58   20.30
  -6 -15   6  268.14   23.66
  15  -6   5   55.36   13.31
  -6 -15   5   47.80   12.25
   6 -15  -5   39.44    9.56
  15  -6   4   81.85   14.16
  -6 -15   4   77.28   14.10
   6 -15  -4   56.40   12.57
  15  -6   3  243.86   22.88
   6 -15  -3  237.49   22.08
  -6 -15   3  224.43   21.99
  15  -6   2   62.12   12.80
  -6 -15   2   43.08    8.07
  -6 -15   2   32.32   10.60
   6 -15  -2   62.24   12.22
  15  -6   1  541.85   31.89
  -6 -15   1  522.97   26.84
   6 -15  -1  516.32   33.39
  -6 -15   0  177.68   16.28
  15  -6   0  124.30   16.09
   6 -15   0  129.07   17.36
  -6 -15  -1  521.40   28.78
   6 -15   1  497.91   33.53
  -6 -15  -2   68.14   10.81
   6 -15   2   45.31   12.21
  -6 -15  -3  204.09   19.08
   6 -15   3  224.31   22.93
  -6 -15  -4   52.90   10.72
   6 -15   4   55.62   12.69
  -6 -15  -5   59.27   11.39
   6 -15   5   56.05   12.69
  -6 -15  -6  224.56   22.06
   6 -15   6  246.15   25.54
  -6 -15  -7   16.34    7.60
   6 -15   7    5.87    8.64
  -6 -15  -8  272.57   25.35
   6 -15   8  279.20   27.71
  -6 -15  -9    5.94    7.21
   6 -15   9   13.00    8.52
  -6 -15 -10   34.41   11.09
   6 -15  10   42.58   13.12
  -6 -15 -11   24.27    8.45
   6 -15  11   33.91   12.38
  -6 -15 -12   41.36   12.41
   6 -15  12   32.50   12.45
  -6 -15 -13  207.33   24.48
   6 -15  13  220.89   27.25
  -6 -15 -14    0.27    8.60
   6 -15  14    6.27   10.06
  -6 -15 -15   90.99   17.24
   6 -15  15   53.68   15.01
  -6 -15 -16    6.88    9.78
   6 -15  16    5.16    8.96
  -6 -15 -17   14.88   10.75
   6 -15  17  -21.61   14.54
  -6 -15 -18   35.17   12.44
   6 -15  18   56.41   15.56
  -6 -15 -19   51.93   16.92
   6 -15  19    1.89   12.23
  -6 -15 -20   89.62   19.05
   6 -15  20  125.60   23.27
  -6 -15 -21   -9.97   11.61
   6 -15  21   -3.18   10.32
  -6 -15 -22   86.26   20.19
   6 -15  22   58.80   19.78
  -6 -15 -23    8.41   11.58
   6 -15  23   20.90   11.99
  -7 -15  20    4.78    6.61
  -7 -15  19  123.27   18.55
  -7 -15  18   11.61    6.58
  -7 -15  17   11.91    7.55
  -7 -15  16   87.94   15.63
   7 -15 -15   59.66   10.75
  -7 -15  15   47.91   12.35
   7 -15 -14    8.80    7.39
  -7 -15  14   17.31    8.05
  15  -7  13   57.55   15.74
   7 -15 -13   29.54    8.28
  -7 -15  13   50.10   12.95
  15  -7  12   29.24   11.23
  -7 -15  12   25.28    8.32
   7 -15 -12   27.08    7.99
  15  -7  11   21.82   10.87
  -7 -15  11   14.74    7.70
   7 -15 -11   12.83    6.08
  15  -7  10   88.66   16.56
   7 -15 -10   81.14   12.37
  -7 -15  10   63.85   12.83
  15  -7   9  101.08   17.96
   7 -15  -9   72.86   12.41
  -7 -15   9   88.49   14.71
  15  -7   8  130.74   19.17
   7 -15  -8  131.05   16.29
  -7 -15   8  143.98   18.30
  15  -7   7  263.42   26.20
   7 -15  -7  218.99   20.80
  -7 -15   7  239.05   22.77
  15  -7   6    0.39    8.13
  -7 -15   6    4.92    7.22
   7 -15  -6    2.64    5.87
  15  -7   5   54.58   11.35
  -7 -15   5   86.00   14.74
   7 -15  -5   55.25   11.24
  15  -7   4   67.20   13.85
  -7 -15   4   77.78   13.85
   7 -15  -4   64.17   12.35
  15  -7   3   50.96   12.06
  -7 -15   3   31.52   10.70
   7 -15  -3   59.30   11.85
  15  -7   2   12.80    8.13
   7 -15  -2   12.31    7.33
  15  -7   1  414.50   28.95
  -7 -15   1  433.40   25.05
   7 -15  -1  462.73   32.25
  -7 -15   0  148.08   15.40
  15  -7   0  167.76   18.12
   7 -15   0  199.07   21.66
  -7 -15  -1  447.07   27.42
  15  -7  -1  436.10   29.15
   7 -15   1  496.70   33.68
  -7 -15  -2   24.37    7.63
  15  -7  -2   23.45    8.06
   7 -15   2   11.34    9.07
  -7 -15  -3   57.62   10.85
  15  -7  -3   43.61   10.16
   7 -15   3   61.82   13.53
  -7 -15  -4   57.17   11.18
  15  -7  -4   64.66   10.62
   7 -15   4   69.17   14.04
  -7 -15  -5   75.10   13.38
  15  -7  -5   76.50   11.06
   7 -15   5   69.35   15.02
  -7 -15  -6   -4.12    7.47
   7 -15   6   -6.38    8.81
  -7 -15  -7  242.64   23.50
   7 -15   7  222.40   25.04
  -7 -15  -8  132.35   18.08
   7 -15   8  131.73   20.03
  -7 -15  -9   43.20   11.66
   7 -15   9   50.46   14.26
  -7 -15 -10   64.10   14.14
   7 -15  10   69.09   16.28
  -7 -15 -11   39.66   11.39
   7 -15  11   22.07   11.26
  -7 -15 -12   28.73   11.74
   7 -15  12   16.96    9.48
  -7 -15 -13   49.60   13.26
   7 -15  13   47.33   14.95
  -7 -15 -14    7.53    8.55
   7 -15  14    6.73    7.81
  -7 -15 -15   41.83   12.86
   7 -15  15   29.37   13.60
  -7 -15 -16   69.71   15.72
   7 -15  16   45.29   14.09
  -7 -15 -17    3.77    6.96
   7 -15  17    1.68   11.24
  -7 -15 -18   15.79   10.06
   7 -15  18   16.00   10.06
  -7 -15 -19  124.44   22.57
   7 -15  19  116.97   23.78
  -7 -15 -20   -2.93    8.70
   7 -15  20   36.79   15.23
  -7 -15 -21  105.70   20.89
   7 -15  21  112.29   22.76
  -7 -15 -22   31.80   14.62
   7 -15  22   -2.33   11.21
  -8 -15  18   60.48   13.29
  -8 -15  17   84.82   15.47
  15  -8  16   55.14   15.50
  -8 -15  16   59.38   13.17
  15  -8  15   13.01   10.15
  -8 -15  15    0.73    5.83
  15  -8  14   17.48   10.47
  -8 -15  14   17.11    8.59
  15  -8  13    4.74   10.24
  -8 -15  13   15.94    7.90
   8 -15 -13   15.29    7.11
  15  -8  12   -4.16    9.30
  -8 -15  12    8.15    7.26
   8 -15 -12    1.65    5.19
  15  -8  11    2.18    7.41
  -8 -15  11   12.62    7.71
   8 -15 -11   -8.49    7.53
  15  -8  10   42.50   12.51
  -8 -15  10   54.46   11.51
   8 -15 -10   67.38   11.97
  15  -8   9   28.15   10.18
  -8 -15   9    5.55    6.71
   8 -15  -9   22.67    8.33
  15  -8   8  255.46   26.38
   8 -15  -8  196.86   19.95
  -8 -15   8  224.08   22.57
  15  -8   7  217.07   24.71
   8 -15  -7  228.27   21.54
  -8 -15   7  244.96   23.88
  15  -8   6  295.82   27.90
   8 -15  -6  315.58   25.71
  -8 -15   6  290.07   25.42
  15  -8   5   65.26   13.08
  -8 -15   5  122.04   17.34
   8 -15  -5  118.73   16.60
  15  -8   4  150.40   19.01
  -8 -15   4  118.30   16.93
   8 -15  -4  126.33   17.06
  15  -8   3   53.17   12.75
  -8 -15   3   28.84    9.56
   8 -15  -3   19.45    8.68
  15  -8   2  126.15   17.75
   8 -15  -2  133.71   17.56
  15  -8   1   25.44    9.66
   8 -15  -1   48.15   11.59
  15  -8   0    4.82    6.18
   8 -15   0   17.61    9.29
  15  -8  -1   35.01   10.13
   8 -15   1   48.33   13.32
  15  -8  -2  147.51   17.23
   8 -15   2  160.37   20.49
  15  -8  -3   33.02    8.57
   8 -15   3   17.51    8.67
  15  -8  -4  145.33   16.22
   8 -15   4  164.27   20.99
  15  -8  -5  117.93   14.25
   8 -15   5  122.86   19.52
  15  -8  -6  266.93   20.08
   8 -15   6  261.64   26.98
   8 -15   7  270.86   27.84
   8 -15   8  211.94   25.55
   8 -15   9   51.73   15.81
  -8 -15 -10   41.49   12.90
   8 -15  10   50.71   13.70
  -8 -15 -11   -5.74    9.30
   8 -15  11   -5.67    9.19
  -8 -15 -12  -13.39    8.65
   8 -15  12  -14.18   11.96
  -8 -15 -13   18.76    9.09
   8 -15  13   23.43   11.95
  -8 -15 -14    0.59    7.50
   8 -15  14   11.26   10.51
  -8 -15 -15    3.97    7.43
   8 -15  15   -0.28    9.47
  -8 -15 -16   42.23   13.25
   8 -15  16   72.28   18.04
  -8 -15 -17  110.13   20.17
   8 -15  17   81.81   19.10
  -8 -15 -18   69.89   17.72
   8 -15  18  118.70   23.06
  -8 -15 -19   45.27   15.27
   8 -15  19   48.92   15.83
  -8 -15 -20  131.58   22.45
   8 -15  20  142.32   25.66
  -8 -15 -21   25.42   13.19
   8 -15  21   44.28   15.95
  -8 -15 -22   48.18   15.28
  15  -9  19  222.72   29.86
  15  -9  18   38.73   13.96
  15  -9  17  164.27   25.27
  -9 -15  17  106.84   16.50
  15  -9  16   51.33   16.99
  -9 -15  16   19.23    8.57
  15  -9  15   12.48   11.77
  -9 -15  15   -5.78    7.80
  15  -9  14   25.98   11.88
  -9 -15  14   10.38    7.02
  15  -9  13   32.06   11.69
  -9 -15  13   16.15    8.28
  15  -9  12   -4.70   10.08
  -9 -15  12   13.07    8.52
   9 -15 -12    3.17    5.21
  15  -9  11   -7.86   11.57
  -9 -15  11    8.58    8.20
   9 -15 -11   -6.20    6.57
  15  -9  10   29.13   10.51
  -9 -15  10   19.52    8.54
   9 -15 -10   39.48   10.43
  15  -9   9   99.71   18.68
  -9 -15   9  108.68   16.89
   9 -15  -9  105.27   14.83
  15  -9   8    9.68    9.05
  -9 -15   8   -1.14    6.22
   9 -15  -8   -4.92    6.96
  15  -9   7  373.33   32.58
  -9 -15   7  364.16   28.94
   9 -15  -7  356.63   27.00
  15  -9   6   18.71    9.68
  -9 -15   6   36.22   10.76
   9 -15  -6   26.41    9.06
  15  -9   5  383.91   32.23
  -9 -15   5  422.85   31.24
   9 -15  -5  371.40   28.25
  15  -9   4   53.20   12.24
  -9 -15   4   75.74   14.64
   9 -15  -4   64.14   13.36
  15  -9   3   65.80   13.54
   9 -15  -3   44.33   12.02
  15  -9   2  166.43   20.83
   9 -15  -2  107.68   16.14
  15  -9   1   46.19   12.30
   9 -15  -1   53.17   12.59
  15  -9   0   -3.83    6.86
   9 -15   0   -6.72    8.42
  15  -9  -1   61.64   12.79
   9 -15   1   76.38   14.86
  15  -9  -2  134.31   17.42
   9 -15   2  102.90   16.66
  15  -9  -3   62.79   12.09
   9 -15   3   64.99   14.37
  15  -9  -4   52.57   10.96
   9 -15   4   43.77   12.89
  15  -9  -5  358.42   25.46
   9 -15   5  337.76   30.79
  15  -9  -6   41.38    9.19
   9 -15   6   22.27   10.87
   9 -15   7  366.34   33.11
   9 -15   8   -2.69    8.74
   9 -15   9  133.72   21.47
   9 -15  10   25.03   12.83
   9 -15  11  -12.62   11.98
   9 -15  12   16.17    9.35
  -9 -15 -13   16.17   10.44
   9 -15  13   33.48   14.30
  -9 -15 -14   32.20   10.58
   9 -15  14   18.00   12.83
  -9 -15 -15    1.80    8.47
   9 -15  15    4.60    8.16
  -9 -15 -16    9.18   10.21
   9 -15  16    5.84   11.56
  -9 -15 -17  140.58   22.53
   9 -15  17  135.39   24.37
  -9 -15 -18   38.66   15.20
   9 -15  18   34.18   15.70
  -9 -15 -19  160.06   24.66
   9 -15  19  216.05   30.97
  -9 -15 -20    4.31    9.06
   9 -15  20   10.37   13.18
  -9 -15 -21  115.10   21.61
  15 -10  19  141.19   23.72
  15 -10  18  228.06   30.33
  15 -10  17   35.76   13.71
  15 -10  16  106.30   21.30
 -10 -15  16   46.60   11.51
  15 -10  15   37.72   15.44
 -10 -15  15   29.38   10.09
  15 -10  14   11.84   11.82
 -10 -15  14   30.35   10.15
  15 -10  13    4.05    8.74
 -10 -15  13    3.33    5.88
  15 -10  12   61.97   16.16
 -10 -15  12   90.34   15.45
  15 -10  11   48.02   15.05
 -10 -15  11   42.22   11.32
  10 -15 -11   46.82   10.50
  15 -10  10   81.01   16.54
 -10 -15  10   82.94   14.80
  10 -15 -10   95.49   14.04
  15 -10   9   42.20   14.13
 -10 -15   9   73.32   14.30
  10 -15  -9   68.31   12.64
  15 -10   8  210.70   25.91
 -10 -15   8  179.86   20.72
  10 -15  -8  162.66   18.75
  15 -10   7   76.21   16.11
 -10 -15   7   97.10   16.47
  10 -15  -7   59.41   12.26
  15 -10   6  218.49   25.60
 -10 -15   6  232.66   23.89
  10 -15  -6  207.76   21.72
  15 -10   5   61.31   13.74
 -10 -15   5   57.74   13.19
  10 -15  -5   48.62   11.68
  15 -10   4   91.78   16.84
  10 -15  -4   75.20   13.81
  15 -10   3  121.53   17.69
  10 -15  -3  104.82   16.37
  15 -10   2  212.31   24.24
  10 -15  -2  212.72   22.37
  15 -10   1   29.81   11.04
  10 -15  -1   24.98    9.39
  15 -10   0   42.50   11.16
  10 -15   0   75.23   14.85
  15 -10  -1   38.98   11.00
  10 -15   1   43.59   12.02
  15 -10  -2  221.31   22.39
  10 -15   2  196.71   23.50
  15 -10  -3  102.99   15.62
  10 -15   3  100.35   17.54
  15 -10  -4   73.22   12.60
  10 -15   4   72.53   15.88
  15 -10  -5   39.24    9.88
  10 -15   5   74.79   16.04
  10 -15   6  182.35   23.81
  10 -15   7   56.48   14.24
  10 -15   8  176.55   23.85
  10 -15   9   69.82   16.14
  10 -15  10  107.15   19.41
  10 -15  11   39.41   14.15
  10 -15  12   64.18   17.70
  10 -15  13   -4.99   11.95
  10 -15  14   45.23   15.12
  10 -15  15   17.73   11.84
  10 -15  16  108.79   22.83
 -10 -15 -16   88.95   18.16
  10 -15  17   20.85   13.04
 -10 -15 -17   24.97   12.69
  10 -15  18  211.04   29.92
 -10 -15 -18  161.23   24.74
  10 -15  19  140.28   25.60
 -10 -15 -19  113.81   21.42
 -10 -15 -20  132.48   23.54
  15 -11  18   22.55   14.40
  15 -11  17   47.71   16.49
  15 -11  16   50.80   14.11
  15 -11  15   43.71   15.17
  15 -11  14    5.37    8.47
 -11 -15  14    4.30    6.49
  15 -11  13  179.92   26.15
 -11 -15  13  178.98   20.59
  15 -11  12   -2.15   10.90
 -11 -15  12    9.56    6.98
  15 -11  11   55.32   14.31
 -11 -15  11   75.07   14.18
  15 -11  10   26.85   10.57
 -11 -15  10   30.99    9.65
  15 -11   9   27.22   12.49
 -11 -15   9   63.38   13.64
  11 -15  -9   46.23   10.49
  15 -11   8   19.36   11.46
 -11 -15   8   10.45    7.75
  11 -15  -8   36.50    9.31
  15 -11   7  225.21   27.46
 -11 -15   7  260.51   25.39
  11 -15  -7  182.33   20.40
  15 -11   6   15.59    9.60
 -11 -15   6   32.03   10.29
  11 -15  -6   16.95    7.95
  15 -11   5  189.38   24.27
  11 -15  -5  156.11   19.16
  15 -11   4   74.73   15.80
  11 -15  -4   81.78   14.90
  15 -11   3    0.72    7.44
  11 -15  -3   28.31    9.58
  15 -11   2   19.27   10.68
  11 -15  -2   35.13   10.74
  15 -11   1  135.80   19.92
  11 -15  -1   90.42   15.80
  15 -11   0   72.67   14.68
  11 -15   0   62.80   13.72
  15 -11  -1   91.04   15.40
  11 -15   1   80.35   15.84
  15 -11  -2   13.79    7.99
  11 -15   2   23.43   10.37
  15 -11  -3    7.33    7.07
  11 -15   3    2.41    8.16
  15 -11  -4   76.34   13.69
  11 -15   4   50.04   13.77
  15 -11  -5  150.57   17.87
  11 -15   5  105.43   19.16
  11 -15   6   22.70   11.87
  11 -15   7  142.58   22.13
  11 -15   8   10.92    9.93
  11 -15   9   57.93   16.00
  11 -15  10   34.52   13.53
  11 -15  11   63.19   16.18
  11 -15  12    9.58    9.41
  11 -15  13  170.52   25.64
  11 -15  14   -8.28   11.66
  11 -15  15   40.91   13.92
  11 -15  16   22.53   13.24
  11 -15  17   66.24   18.51
  11 -15  18   29.21   13.11
 -11 -15 -18  -12.48   13.11
 -11 -15 -19  128.01   23.36
  15 -12  17   16.11   11.75
  15 -12  16   46.61   16.58
  15 -12  15   91.48   21.14
  15 -12  14   24.37   14.08
  15 -12  13  115.72   22.49
 -12 -15  13  111.25   16.67
  15 -12  12   12.41   13.12
 -12 -15  12   24.10    9.84
  15 -12  11  121.22   21.90
 -12 -15  11  126.67   17.71
  15 -12  10  -10.06   12.30
 -12 -15  10    8.30    8.55
  15 -12   9   -0.80    9.67
 -12 -15   9   21.21    9.77
  15 -12   8   74.62   16.71
 -12 -15   8  106.08   17.17
  12 -15  -8  110.04   16.18
  15 -12   7   42.42   13.98
 -12 -15   7   29.00    9.86
  12 -15  -7   10.15    7.39
  15 -12   6  298.99   31.42
 -12 -15   6  348.64   30.57
  12 -15  -6  289.08   26.25
  15 -12   5   10.86    8.88
  12 -15  -5   43.13   11.40
  15 -12   4   -6.26   10.23
  12 -15  -4   14.61    8.22
  15 -12   3   11.07    9.20
  12 -15  -3    2.74    6.67
  15 -12   2   -3.50    8.74
  12 -15  -2    6.13    7.78
  15 -12   1  182.32   22.16
  12 -15  -1  150.09   20.40
  15 -12   0   12.35    8.23
  12 -15   0   -7.03    9.43
  15 -12  -1  141.23   19.96
  12 -15   1  158.33   21.67
  15 -12  -2    6.47    8.02
  12 -15   2   -4.32    7.74
  15 -12  -3   -4.74    6.29
  12 -15   3   -9.03   11.39
  15 -12  -4   37.82   11.04
  12 -15   4   25.17   11.28
  12 -15   5   35.41   13.30
  12 -15   6  312.94   32.02
  12 -15   7   39.23   13.00
  12 -15   8   73.51   16.90
  12 -15   9   21.39   12.04
 -15 -12   9    0.30    5.76
  12 -15  10    7.17   12.06
  12 -15  11  105.53   21.23
  12 -15  12   15.64   11.91
  12 -15  13  147.25   25.06
  12 -15  14   13.30   13.12
  12 -15  15   59.99   17.15
  12 -15  16   37.10   16.13
  12 -15  17   36.21   14.96
  15 -13  16   82.83   18.81
  15 -13  15    2.03   11.17
  15 -13  14    0.43   10.97
  15 -13  13   93.80   19.68
  15 -13  12    6.15   10.54
 -13 -15  12   -1.16    6.21
  15 -13  11   19.29   12.47
 -13 -15  11   17.17    7.84
  15 -13  10   56.45   15.17
 -13 -15  10   85.82   16.08
  15 -13   9   77.67   17.82
 -13 -15   9   85.09   15.53
  15 -13   8   32.24   13.10
 -13 -15   8   34.25   11.66
  15 -13   7  294.61   31.98
 -13 -15   7  307.80   28.91
  15 -13   6   -3.66   10.61
 -13 -15   6   14.27    9.72
  13 -15  -6    4.54    8.07
  15 -13   5   95.49   18.55
  13 -15  -5  103.65   16.73
  15 -13   4   43.30   13.26
  13 -15  -4   12.08    8.39
  15 -13   3    4.83    7.82
  13 -15  -3   18.60    8.28
  15 -13   2   67.01   14.61
  13 -15  -2   82.74   15.73
  15 -13   1   31.38   11.87
  13 -15  -1   23.84    8.91
  15 -13   0   -4.11    8.54
  13 -15   0   -0.98    8.37
  15 -13  -1   20.50    9.80
  13 -15   1   -0.02    9.34
  15 -13  -2   48.37   11.93
  13 -15   2   54.46   14.04
  15 -13  -3   -1.66    8.79
  13 -15   3    9.36    8.40
  15 -13  -4    5.31    7.36
  13 -15   4   -2.92   10.52
  13 -15   5   68.63   17.58
  13 -15   6   -9.06   12.75
  13 -15   7  215.77   27.72
  13 -15   8   33.91   12.84
  13 -15   9   82.42   19.56
 -15 -13   9   60.48   13.32
  13 -15  10   81.44   18.26
  13 -15  11   13.28   11.33
  13 -15  12    6.26    9.19
  13 -15  13   81.57   18.96
  13 -15  14   16.92   10.79
  13 -15  15   40.27   15.74
  15 -14  14   42.53   16.44
  15 -14  13  -28.73   15.71
  15 -14  12    0.26    9.59
  15 -14  11    1.06   11.28
  15 -14  10   21.08   11.45
 -14 -15  10   49.85   13.16
  15 -14   9   33.34   13.02
 -14 -15   9   33.92   11.42
  15 -14   8  122.24   21.59
 -14 -15   8  156.92   21.47
  15 -14   7   88.13   19.86
 -14 -15   7   80.95   16.41
  15 -14   6   81.78   18.50
  15 -14   5   21.75   10.81
  14 -15  -5   48.19   12.55
  15 -14   4   -0.68    9.47
  14 -15  -4   15.70    8.84
  15 -14   3   81.34   16.79
  14 -15  -3   63.88   13.65
  15 -14   2   23.47   11.91
  14 -15  -2   -3.10    8.88
  15 -14   1    9.14    8.85
  14 -15  -1   20.58    9.64
  15 -14   0    9.69    9.00
  14 -15   0    4.38    7.90
  15 -14  -1   29.30   11.70
  14 -15   1   24.59   10.45
  14 -15   2  -10.25   11.33
  15 -14  -2  -19.37   10.85
  14 -15   3   58.04   13.95
  15 -14  -3   75.62   15.16
  14 -15   4   16.78   10.94
  15 -14  -4   14.00    7.11
  14 -15   5   50.49   15.52
  14 -15   6  106.48   20.59
  14 -15   7   83.04   19.66
  14 -15   8  150.51   24.19
 -15 -14   8  186.88   23.01
  14 -15   9   47.51   15.18
 -15 -14   9   57.03   13.45
  14 -15  10    4.18   11.55
  14 -15  11   16.57   14.55
  14 -15  12   10.82   11.84
  14 -15  13   -5.30   10.57
  14 -15  14   -0.94   10.31
  15 -15   0   10.27    7.74
  15 -15  -1   -1.90    7.95
  15 -15   1    3.81    9.91
  15 -15  -2    4.70    7.97
  15 -15   2   41.04   13.37
  15 -15  -3    8.35    8.53
  15 -15   3   -1.43   10.50
  15 -15   4  -24.99   13.05
  15 -15   5  236.82   29.32
  15 -15   6   -6.28    9.44
  15 -15   7  236.91   30.12
 -15 -15   7  238.01   26.72
  15 -15   8    0.86    9.83
 -15 -15   8   -3.93    7.62
  15 -15   9   71.78   18.95
  15 -15  10   -3.27   10.70
  15 -15  11  -20.09   11.66
  15 -15  12   -6.42   10.41
   0 -16   0  668.74   37.22
   0 -16   1    4.28    7.69
   0 -16  -1   -0.25    7.44
   0 -16   2   68.78   12.49
   0 -16  -2   75.38   13.78
   0 -16  -3    9.70    6.79
   0 -16   3    9.49    7.23
   0 -16  -4  159.52   18.69
   0 -16   4  145.93   18.46
   0 -16  -5   52.04   11.23
   0 -16   5   45.37   12.05
   0 -16  -6  137.03   17.17
   0 -16   6  120.57   17.05
   0 -16  -7   20.25    8.59
   0 -16   7   21.37    9.06
   0 -16  -8   14.09    8.52
   0 -16   8   10.72    8.56
   0 -16  -9   63.70   13.24
   0 -16   9   72.95   13.99
   0 -16 -10    7.69    7.36
   0 -16  10    0.74    8.30
   0 -16 -11   -1.83    9.60
   0 -16  11  -18.17   11.35
   0 -16 -12  339.90   33.10
   0 -16  12  387.83   32.23
   0 -16 -13  -12.20   11.41
   0 -16  13    7.41    9.67
   0 -16 -14  115.93   20.33
   0 -16  14  101.67   19.23
   0 -16 -15  100.19   19.21
   0 -16  15   66.96   16.08
   0 -16 -16   21.47   12.35
   0 -16  16   21.60    9.58
   0 -16 -17   94.93   19.81
   0 -16  17   99.27   19.17
   0 -16 -18  125.78   22.40
   0 -16  18  141.69   21.93
   0 -16 -19   21.08    9.02
   0 -16  19   24.58   12.90
   0 -16 -20   12.64   12.46
   0 -16  20    7.85   10.34
   0 -16 -21   28.41   16.37
   0 -16  21   14.00   10.80
   0 -16 -22  -10.81   15.36
   0 -16  22   17.62    9.89
   0 -16 -23   12.64   12.40
   0 -16  23   -4.05    8.23
   0 -16  24   38.18   13.65
   0 -16  25   29.93   12.29
   0 -16  26   32.85   12.66
  -1 -16  26    8.45    7.86
  -1 -16  25   19.19   10.65
  -1 -16  24   21.46   11.43
  -1 -16  23   67.69   17.06
  -1 -16  22   83.82   18.09
  -1 -16  21    5.24   10.32
  -1 -16  20   36.71   15.02
  -1 -16  19    4.90    8.44
  -1 -16  18   63.29   15.75
  -1 -16  17  172.98   23.46
  -1 -16  16  116.66   19.47
  -1 -16  15   31.22   12.45
  -1 -16  14   65.74   14.84
   1 -16 -13    7.47    7.21
  -1 -16  13   22.12    8.46
   1 -16 -12   67.78   12.73
  -1 -16  12   69.84   14.61
   1 -16 -11  176.33   19.31
  -1 -16  11  135.14   19.50
   1 -16 -10  158.83   18.55
  -1 -16  10  134.95   18.67
   1 -16  -9   -2.86    6.50
  -1 -16   9  -11.04    9.37
   1 -16  -8   34.41   10.63
  -1 -16   8   30.30   10.03
  -1 -16   7   70.19   13.98
   1 -16  -7   54.75   12.00
   1 -16  -6   17.25    8.76
  -1 -16   6   -1.18    7.81
  -1 -16   5  208.33   22.32
   1 -16  -5  229.74   22.24
  -1 -16   4  199.76   21.59
   1 -16  -4  185.33   20.71
  -1 -16   3   20.19    7.89
   1 -16  -3   26.28    8.88
  -1 -16   2  111.88   16.18
   1 -16  -2  138.68   17.46
   1 -16  -1   47.51   11.06
  -1 -16   1   57.40   12.24
   1 -16   0  164.00   18.97
  -1 -16   0  165.88   19.05
  -1 -16  -1   49.42   11.77
   1 -16   1   63.71   12.36
  -1 -16  -2  111.58   15.92
   1 -16   2  106.57   16.14
  -1 -16  -3   15.06    8.59
   1 -16   3   35.16   10.91
  -1 -16  -4  170.68   19.60
   1 -16   4  178.55   19.92
   1 -16   5  219.39   23.34
  -1 -16  -5  234.49   22.96
  -1 -16  -6   15.13    8.95
  -1 -16  -6   18.77    8.81
   1 -16   6    6.49    7.80
  -1 -16  -7   61.94   15.80
  -1 -16  -7  112.41   15.85
   1 -16   7   86.37   14.63
  -1 -16  -8   19.08   10.57
   1 -16   8   21.05    9.29
  -1 -16  -9   14.90    8.99
   1 -16   9    8.98    7.25
  -1 -16 -10  185.93   22.91
   1 -16  10  168.38   21.30
  -1 -16 -11  118.11   19.07
   1 -16  11  129.71   19.42
  -1 -16 -12   91.89   17.64
   1 -16  12   74.15   15.43
  -1 -16 -13   24.46    9.87
   1 -16  13   30.93   12.32
  -1 -16 -14   64.56   15.86
   1 -16  14   69.88   15.13
  -1 -16 -15   36.23   13.61
   1 -16  15   31.84   11.52
  -1 -16 -16  147.58   23.94
   1 -16  16  157.00   22.18
  -1 -16 -17  172.17   25.81
   1 -16  17  132.78   20.95
  -1 -16 -18   19.31   11.17
   1 -16  18   22.08   11.61
  -1 -16 -19   26.47   13.39
   1 -16  19   35.44   12.03
  -1 -16 -20   29.84   14.70
   1 -16  20   31.80   15.28
  -1 -16 -21    3.52    9.13
   1 -16  21    4.55   10.26
  -1 -16 -22   48.52   16.73
   1 -16  22   70.90   17.98
  -1 -16 -23   58.40   18.68
   1 -16  23   75.49   18.93
   1 -16  24   10.32   11.44
   1 -16  25   29.26   11.91
  -2 -16  25    2.32    7.46
  -2 -16  24   24.75   11.50
  -2 -16  23   56.42   16.30
  -2 -16  22  191.91   26.40
  -2 -16  21   67.17   16.78
  -2 -16  20   18.78   10.39
  -2 -16  19    3.28    6.81
   2 -16 -18  118.05   16.28
  -2 -16  18  108.08   18.46
   2 -16 -17  163.88   18.60
  -2 -16  17  194.81   24.16
   2 -16 -16    7.06    7.12
  -2 -16  16   -3.82    8.44
   2 -16 -15   66.00   13.12
  -2 -16  15   60.81   14.90
   2 -16 -14   54.66   11.60
  -2 -16  14   29.87   11.76
   2 -16 -13   30.64    9.20
  -2 -16  13   39.11   12.10
   2 -16 -12   23.28    9.09
  -2 -16  12   15.87    8.11
  -2 -16  11  261.57   24.97
   2 -16 -11  250.73   22.60
   2 -16 -10   30.27    9.80
  -2 -16  10   36.13   11.39
  -2 -16   9  311.96   27.41
   2 -16  -9  310.87   25.64
   2 -16  -8    7.43    8.15
  -2 -16   8   -3.34    7.39
  -2 -16   7   23.30    9.16
   2 -16  -7   35.55   10.74
  -2 -16   6  466.84   32.09
   2 -16  -6  393.98   28.51
  -2 -16   5  102.78   16.42
   2 -16  -5   90.44   14.61
  -2 -16   4   37.95   10.80
   2 -16  -4   43.39   11.55
   2 -16  -3  137.49   16.98
  -2 -16   3  174.44   19.22
   2 -16  -2   67.47   13.67
  -2 -16   2   30.48    8.88
   2 -16  -1   92.81   14.53
  -2 -16   1   76.59   13.90
  -2 -16   0   -8.04    8.97
   2 -16   0    0.61    6.97
   2 -16   1   70.93   13.12
  -2 -16  -1   82.95   13.83
  -2 -16  -2   38.13   11.06
   2 -16   2   42.57   11.29
  -2 -16  -3  165.82   18.17
  -2 -16  -3  158.36   18.78
   2 -16   3  157.34   19.17
  -2 -16  -4   21.72    8.26
   2 -16   4   22.65   10.34
  -2 -16  -4   39.91   11.13
  -2 -16  -5   92.77   15.42
  -2 -16  -5  114.50   16.65
   2 -16   5   93.93   15.68
  -2 -16  -6  520.37   34.11
   2 -16   6  491.19   34.92
  -2 -16  -7   18.33    9.57
   2 -16   7   27.92    9.47
  -2 -16  -8    9.01    7.96
   2 -16   8    0.10    8.05
  -2 -16  -9  354.53   30.26
   2 -16   9  350.21   30.25
  -2 -16 -10   71.22   15.58
   2 -16  10   56.16   13.70
  -2 -16 -11  227.91   25.67
   2 -16  11  222.77   24.88
  -2 -16 -12   20.91    9.98
   2 -16  12   19.67   10.56
  -2 -16 -13   31.43   12.67
   2 -16  13   30.73   11.31
  -2 -16 -14   38.20   11.87
   2 -16  14   22.83   10.72
  -2 -16 -15   81.70   17.41
   2 -16  15  105.05   18.76
  -2 -16 -16   21.15   11.76
   2 -16  16   11.85    7.37
  -2 -16 -17  143.79   23.06
   2 -16  17  169.83   23.90
  -2 -16 -18  138.68   24.29
   2 -16  18  105.82   20.12
  -2 -16 -19    5.84   10.28
   2 -16  19    7.91   10.13
  -2 -16 -20    3.77    8.55
   2 -16  20    9.84   11.08
  -2 -16 -21   62.16   19.86
   2 -16  21   26.69   13.20
  -2 -16 -22  181.46   28.88
   2 -16  22  140.52   23.95
  -2 -16 -23   67.23   18.59
   2 -16  23   48.92   15.91
   2 -16  24   25.09   14.33
   2 -16  25  -11.72   13.53
  -3 -16  24   41.19   15.29
  -3 -16  23   38.97   12.85
  -3 -16  22  131.02   21.66
  -3 -16  21   36.50   12.53
  -3 -16  20  148.46   22.25
   3 -16 -19   44.81   10.93
  -3 -16  19   27.10   12.01
   3 -16 -18  155.76   18.08
  -3 -16  18  140.65   21.34
   3 -16 -17   37.39   10.02
  -3 -16  17   20.17    8.90
   3 -16 -16  166.85   18.69
  -3 -16  16  150.18   20.86
   3 -16 -15   23.74    8.38
  -3 -16  15   29.23   10.47
   3 -16 -14   -6.85    7.58
  -3 -16  14   -4.24    9.06
   3 -16 -13    8.72    5.68
  -3 -16  13   14.96    9.82
   3 -16 -12  172.24   18.94
  -3 -16  12  171.75   21.16
   3 -16 -11   21.33    9.19
  -3 -16  11   19.64    9.24
  -3 -16  10  156.94   20.16
   3 -16 -10  176.29   18.90
   3 -16  -9   88.48   14.29
  -3 -16   9   50.92   12.06
   3 -16  -8  462.25   30.54
  -3 -16   8  443.27   32.22
  -3 -16   7   76.89   14.17
   3 -16  -7   70.35   12.97
   3 -16  -6  252.89   22.73
  -3 -16   6  215.09   22.60
  -3 -16   5   66.09   13.36
   3 -16  -5   74.28   13.46
  -3 -16   4  290.82   25.54
   3 -16  -4  301.68   24.97
   3 -16  -3   80.09   13.99
  -3 -16   3   75.84   14.04
  -3 -16   2   37.91   11.67
   3 -16  -2   26.33    8.90
   3 -16  -1   16.21    8.34
  -3 -16   1   14.78    6.99
  -3 -16   0   75.07   10.43
  -3 -16   0   81.55   14.53
   3 -16   0   95.39   15.60
  -3 -16  -1   20.81    8.65
  -3 -16  -1    8.14    7.34
   3 -16   1   15.62    7.58
  -3 -16  -2   38.50    9.20
   3 -16   2   24.93    9.04
  -3 -16  -2   57.13   12.27
  -3 -16  -3   99.32   13.97
  -3 -16  -3  119.93   17.04
   3 -16   3  107.54   17.15
  -3 -16  -4  265.14   22.94
  -3 -16  -4  232.46   22.49
   3 -16   4  232.43   23.59
  -3 -16  -5   55.17   11.18
   3 -16   5   80.47   15.15
  -3 -16  -6  265.02   24.62
   3 -16   6  280.01   26.26
  -3 -16  -7   67.92   13.75
   3 -16   7   72.69   15.39
  -3 -16  -8  501.42   35.12
   3 -16   8  515.66   37.00
  -3 -16  -9   70.00   14.85
   3 -16   9   66.40   14.21
  -3 -16 -10  140.24   20.14
   3 -16  10  143.10   20.76
  -3 -16 -11   29.32   12.12
   3 -16  11   32.06   12.52
  -3 -16 -12  172.54   23.64
   3 -16  12  134.37   20.31
  -3 -16 -13   -2.42    9.71
   3 -16  13    3.34    8.58
  -3 -16 -14   -1.58    9.36
   3 -16  14   -9.23    9.47
  -3 -16 -15    4.59    8.90
   3 -16  15   57.68   15.56
  -3 -16 -16  103.39   20.00
   3 -16  16  145.38   22.47
  -3 -16 -17   43.22   15.44
   3 -16  17   29.61   12.11
  -3 -16 -18  148.23   24.29
   3 -16  18  126.12   21.97
  -3 -16 -19   57.88   16.16
   3 -16  19   33.42   14.69
  -3 -16 -20  130.06   24.40
   3 -16  20  158.05   24.94
  -3 -16 -21   21.18   12.79
   3 -16  21   21.19   12.90
  -3 -16 -22  195.87   30.75
   3 -16  22  182.84   27.37
  -3 -16 -23   29.21   13.93
   3 -16  23   24.68   14.89
   3 -16  24    1.17    8.85
  -4 -16  23   76.05   16.92
  -4 -16  22   18.69   10.84
  -4 -16  21   81.02   17.43
  -4 -16  20  294.39   30.67
  -4 -16  19   26.11    9.86
   4 -16 -18    4.14    5.76
  -4 -16  18   -4.75    7.82
   4 -16 -17  117.99   16.00
  -4 -16  17   78.72   16.39
   4 -16 -16  149.64   17.83
  -4 -16  16  155.39   20.72
   4 -16 -15  172.77   19.07
  -4 -16  15  183.76   22.39
   4 -16 -14    5.16    7.15
  -4 -16  14   -2.63    7.13
   4 -16 -13   65.79   12.77
  -4 -16  13   47.95   12.53
   4 -16 -12   25.57    8.48
  -4 -16  12   41.38   12.13
  -4 -16  11   93.17   15.91
   4 -16 -11   87.35   13.77
   4 -16 -10    8.31    7.34
  -4 -16  10   12.78    6.41
  -4 -16   9   70.73   13.63
   4 -16  -9   82.42   13.49
   4 -16  -8  516.01   32.30
  -4 -16   8  522.61   34.54
   4 -16  -7   30.37   10.30
  -4 -16   7    8.84    6.86
  -4 -16   6    8.44    5.78
   4 -16  -6   16.57    8.23
   4 -16  -5  144.93   17.37
  -4 -16   5  137.51   17.52
  -4 -16   4  166.46   19.27
   4 -16  -4  146.24   17.48
   4 -16  -3  389.99   28.60
  -4 -16   3  369.15   28.94
  -4 -16   2   39.00   11.03
   4 -16  -2   50.73   12.19
  -4 -16   1   -0.41    6.98
   4 -16  -1   -0.78    6.05
  -4 -16   0   18.32    6.30
  -4 -16   0    8.36    7.08
   4 -16   0    7.80    8.25
  -4 -16  -1   -1.02    4.74
  -4 -16  -1   -1.83    7.02
   4 -16   1   -7.92    7.76
  -4 -16  -2   42.54    9.43
  -4 -16  -2   41.70   11.85
   4 -16   2   31.41   10.62
  -4 -16  -3  337.57   24.70
   4 -16   3  277.32   26.03
  -4 -16  -4  132.29   15.92
   4 -16   4  175.72   21.36
  -4 -16  -5  137.19   17.43
   4 -16   5  124.98   17.90
  -4 -16  -6   22.25    8.43
   4 -16   6   -1.36    9.96
  -4 -16  -7   15.14    8.54
   4 -16   7   10.26    7.89
  -4 -16  -8  525.99   35.91
   4 -16   8  518.87   37.49
  -4 -16  -9  110.04   17.26
   4 -16   9  124.34   19.82
  -4 -16 -10    4.56    9.10
   4 -16  10    7.06    8.66
  -4 -16 -11  111.54   18.61
   4 -16  11  121.58   20.22
  -4 -16 -12   23.51    9.13
   4 -16  12   11.19    8.54
  -4 -16 -13   58.91   15.59
   4 -16  13   61.72   14.53
  -4 -16 -14    8.73    9.40
   4 -16  14   -4.26    9.31
  -4 -16 -15  179.06   25.48
   4 -16  15  208.89   27.29
  -4 -16 -16  123.39   21.33
   4 -16  16  131.79   21.71
  -4 -16 -17  154.92   24.07
   4 -16  17  141.34   22.06
  -4 -16 -18   -8.27    8.98
   4 -16  18  -20.80   13.31
  -4 -16 -19   15.29   11.78
   4 -16  19   42.72   14.34
  -4 -16 -20  237.08   31.03
   4 -16  20  227.91   29.65
  -4 -16 -21   73.59   18.81
   4 -16  21   58.47   17.52
  -4 -16 -22   15.57   11.07
   4 -16  22    7.47    9.01
  -4 -16 -23   52.82   18.60
   4 -16  23   43.07   15.44
  -5 -16  22   45.26   13.05
  -5 -16  21   74.36   16.19
  -5 -16  20   22.58    9.81
  -5 -16  19   73.05   15.66
  -5 -16  18   14.21    8.57
   5 -16 -17   -4.55    6.77
  -5 -16  17    1.25    7.64
   5 -16 -16   35.51    9.17
  -5 -16  16   39.91   11.73
   5 -16 -15  175.84   18.93
  -5 -16  15  174.98   21.92
   5 -16 -14  175.49   19.00
  -5 -16  14  179.39   21.68
   5 -16 -13   90.98   13.90
  -5 -16  13  103.31   16.75
  -5 -16  12   75.86   14.98
   5 -16 -12   76.05   13.55
  -5 -16  11   -6.49    8.52
   5 -16 -11   -7.07    6.26
  -5 -16  10  187.12   21.29
   5 -16 -10  162.77   18.26
   5 -16  -9  143.08   17.19
  -5 -16   9  139.07   18.86
  -5 -16   8  121.95   17.34
   5 -16  -8  122.37   16.32
  -5 -16   7   11.08    7.15
   5 -16  -7   21.70    8.94
   5 -16  -6    3.03    5.61
  -5 -16   6    7.90    7.35
   5 -16  -5    7.17    6.15
  -5 -16   5   22.14    8.95
   5 -16  -4  121.94   16.98
  -5 -16   4  116.00   16.72
   5 -16  -3  359.15   27.62
  -5 -16   3  380.47   29.81
  -5 -16   2  167.77   19.70
   5 -16  -2  180.26   19.90
  -5 -16   1   17.33    7.95
   5 -16  -1   21.62    8.50
  -5 -16   0   36.01    8.22
  -5 -16   0   38.61   11.09
   5 -16   0   44.30   11.21
  -5 -16  -1   18.48    7.16
  -5 -16  -1   33.67   11.53
   5 -16   1   12.85    8.78
  -5 -16  -2  147.35   16.53
   5 -16   2  133.37   18.62
  -5 -16  -3  351.61   25.84
   5 -16   3  337.22   28.58
  -5 -16  -4  129.59   16.35
   5 -16   4  130.48   18.66
  -5 -16  -5    9.79    5.94
   5 -16   5    1.19    7.69
  -5 -16  -6    3.09    6.57
   5 -16   6    4.41    9.60
  -5 -16  -7   12.54    7.18
   5 -16   7   35.31   11.96
  -5 -16  -8  126.90   17.97
   5 -16   8  167.45   22.31
  -5 -16  -9  134.59   19.11
   5 -16   9  160.86   22.29
  -5 -16 -10  136.90   19.89
   5 -16  10  197.33   24.94
  -5 -16 -11   -1.25    6.84
   5 -16  11    6.11    7.83
  -5 -16 -12   44.89   11.90
   5 -16  12   46.11   14.10
  -5 -16 -13  124.98   20.16
   5 -16  13  111.38   19.86
  -5 -16 -14  232.98   27.89
   5 -16  14  215.59   27.25
  -5 -16 -15  192.01   25.62
   5 -16  15  169.54   24.80
  -5 -16 -16   51.23   15.18
   5 -16  16   32.59   12.25
  -5 -16 -17    6.43    8.55
   5 -16  17  -20.56   13.24
  -5 -16 -18   11.55   10.45
   5 -16  18   32.39   13.09
  -5 -16 -19   82.81   18.35
   5 -16  19  107.20   20.89
  -5 -16 -20    0.05   10.34
   5 -16  20   24.03   13.85
  -5 -16 -21   51.54   15.95
   5 -16  21  102.51   21.47
  -5 -16 -22   45.90   16.83
   5 -16  22   55.02   15.53
  -6 -16  21   15.15    9.33
  -6 -16  20   37.72   11.82
  -6 -16  19   -1.27    7.46
  -6 -16  18   24.02    9.62
  -6 -16  17   -0.47    8.38
   6 -16 -16   -1.63    5.77
  -6 -16  16   11.78    9.44
   6 -16 -15   46.51   10.71
  -6 -16  15   54.24   12.82
   6 -16 -14  339.25   25.98
  -6 -16  14  322.32   29.57
  -6 -16  13   20.90    9.87
   6 -16 -13   19.35    7.62
  -6 -16  12  131.00   18.33
   6 -16 -12  108.71   15.23
  -6 -16  11  129.75   17.92
   6 -16 -11  121.20   16.21
  -6 -16  10  100.35   16.66
   6 -16 -10   68.08   12.49
   6 -16  -9   53.94   11.51
  -6 -16   9   88.02   15.28
  -6 -16   8  136.75   18.56
   6 -16  -8  138.07   17.08
   6 -16  -7   -3.85    7.71
  -6 -16   7   16.35    9.47
  -6 -16   6   53.82   12.82
   6 -16  -6   57.21   11.21
   6 -16  -5  102.05   15.46
  -6 -16   5  107.13   16.10
  -6 -16   4   59.90   13.35
   6 -16  -4   48.78   11.08
  -6 -16   3   74.39   14.36
   6 -16  -3   31.34   10.52
   6 -16  -2  295.24   26.08
  -6 -16   2  302.10   27.35
  -6 -16   1   15.68    9.40
   6 -16  -1   15.79    7.21
  -6 -16   0  171.48   20.66
   6 -16   0  140.89   18.70
  -6 -16  -1   34.06    8.52
   6 -16   1   23.22    9.11
  -6 -16  -2  306.24   23.46
   6 -16   2  285.41   26.36
  -6 -16  -3   51.93   10.55
   6 -16   3   45.20   11.39
  -6 -16  -4   38.67    9.62
   6 -16   4   57.14   13.70
  -6 -16  -5   87.55   13.68
   6 -16   5   80.23   15.67
  -6 -16  -6   52.40   11.12
   6 -16   6   37.59   12.11
  -6 -16  -7    3.08    6.64
   6 -16   7    8.45    8.43
  -6 -16  -8  153.89   19.86
   6 -16   8  142.37   21.10
  -6 -16  -9   55.57   12.57
   6 -16   9   57.59   14.51
  -6 -16 -10   91.35   16.19
   6 -16  10   98.89   18.37
  -6 -16 -11  130.53   19.30
   6 -16  11  147.74   22.74
  -6 -16 -12  104.25   17.86
   6 -16  12  137.36   21.25
  -6 -16 -13   16.46    9.71
   6 -16  13   16.11   12.96
  -6 -16 -14  356.14   33.29
   6 -16  14  328.91   33.36
  -6 -16 -15   55.73   15.27
   6 -16  15   61.38   16.39
  -6 -16 -16    5.05    7.71
   6 -16  16  -18.14   10.47
  -6 -16 -17   -4.40    8.92
   6 -16  17    0.03   10.38
  -6 -16 -18   34.51   14.56
   6 -16  18    7.09    8.21
  -6 -16 -19   -8.19   10.97
   6 -16  19  -18.74   14.02
  -6 -16 -20   37.13   12.42
   6 -16  20   46.52   15.32
  -6 -16 -21   24.18   12.32
   6 -16  21    6.76   14.05
  -6 -16 -22   41.29   16.92
  -7 -16  20    1.78    6.52
  -7 -16  19   35.20   11.82
  -7 -16  18   -1.09    7.74
  -7 -16  17   46.64   12.58
  -7 -16  16  118.13   18.17
  -7 -16  15  128.51   18.77
   7 -16 -14   96.83   14.08
  -7 -16  14  121.89   17.63
   7 -16 -13    2.62    5.72
  -7 -16  13   15.62    8.61
  -7 -16  12   86.15   15.84
   7 -16 -12   67.95   12.30
   7 -16 -11   -4.48    7.62
  -7 -16  11   18.62    9.60
  -7 -16  10  117.44   18.06
   7 -16 -10  123.44   15.59
  -7 -16   9  215.47   22.63
   7 -16  -9  195.44   20.49
  16  -7   8   16.65    9.43
  -7 -16   8   17.63    9.09
   7 -16  -8    2.28    6.79
  16  -7   7   41.90   12.37
  -7 -16   7   12.87    8.54
   7 -16  -7   27.09    9.46
  16  -7   6   -0.85    6.86
  -7 -16   6    1.20    7.40
   7 -16  -6   -3.37    7.64
  16  -7   5   17.09    8.80
  -7 -16   5   14.62    8.55
   7 -16  -5    1.37    6.70
  16  -7   4   87.70   14.98
  -7 -16   4   83.98   15.55
   7 -16  -4   88.58   14.71
  16  -7   3  213.07   22.45
  -7 -16   3  221.95   23.69
   7 -16  -3  202.47   21.22
  16  -7   2  114.85   16.59
  -7 -16   2  108.88   16.50
   7 -16  -2  126.60   17.55
  16  -7   1   13.43    7.85
   7 -16  -1    2.87    6.69
  16  -7   0  351.86   26.24
   7 -16   0  261.11   25.28
  -7 -16  -1    3.88    4.47
  16  -7  -1   23.09    9.17
   7 -16   1    5.66    8.87
  -7 -16  -2   63.13   11.19
   7 -16   2   62.32   12.46
  -7 -16  -3  211.09   20.33
   7 -16   3  213.26   23.82
  -7 -16  -4   89.86   13.77
   7 -16   4   78.65   16.08
  -7 -16  -5    6.46    6.93
   7 -16   5    5.05    8.43
  -7 -16  -6    5.10    6.28
   7 -16   6    4.44    7.37
  -7 -16  -7   32.31   10.07
   7 -16   7   45.58   14.34
  -7 -16  -8   11.73    7.52
   7 -16   8   27.19   12.65
  -7 -16  -9  184.33   21.74
   7 -16   9  193.44   24.81
  -7 -16 -10  150.84   20.47
   7 -16  10  134.48   21.49
  -7 -16 -11   -0.27    8.37
   7 -16  11    4.53    9.47
  -7 -16 -12   79.82   15.87
   7 -16  12   59.96   15.64
  -7 -16 -13   20.45    9.99
   7 -16  13   -6.12   10.37
  -7 -16 -14  100.10   18.78
   7 -16  14  122.42   21.86
  -7 -16 -15  133.17   20.70
   7 -16  15  134.75   22.66
  -7 -16 -16  113.09   20.02
   7 -16  16  110.82   20.79
  -7 -16 -17   24.62   10.23
   7 -16  17   44.18   15.25
  -7 -16 -18    1.62    9.29
   7 -16  18    0.53    8.19
  -7 -16 -19   41.50   14.51
   7 -16  19    2.86   12.18
  -7 -16 -20    5.71    8.18
   7 -16  20   19.46   12.11
  -7 -16 -21  110.48   21.41
   7 -16  21  105.98   22.19
  -8 -16  18   13.34    8.84
  -8 -16  17  182.55   22.25
  -8 -16  16   41.09   11.47
  -8 -16  15  129.11   18.74
  -8 -16  14   13.29    8.20
  16  -8  13   -1.45    8.97
  -8 -16  13   10.28    7.84
   8 -16 -13    3.05    5.90
  16  -8  12    4.54    8.38
  -8 -16  12   13.86    7.43
   8 -16 -12   23.54    8.01
  16  -8  11  102.59   18.97
  -8 -16  11   68.85   13.80
   8 -16 -11   69.31   12.30
  16  -8  10   10.51   10.02
  -8 -16  10    1.19    7.24
   8 -16 -10    0.44    7.52
  16  -8   9  122.71   19.95
  -8 -16   9  122.42   17.66
   8 -16  -9  122.77   16.25
  16  -8   8  377.36   32.64
  -8 -16   8  301.95   26.72
   8 -16  -8  330.56   26.57
  16  -8   7   31.61   12.23
  -8 -16   7   51.13   11.76
   8 -16  -7   37.96   10.94
  16  -8   6    6.21    8.43
  -8 -16   6    3.65    6.82
   8 -16  -6   -3.26    6.52
  16  -8   5   69.06   13.86
  -8 -16   5   61.67   14.25
   8 -16  -5   39.66   10.70
  16  -8   4  180.77   21.67
  -8 -16   4  197.51   22.23
   8 -16  -4  186.21   21.35
  16  -8   3  276.80   25.80
  -8 -16   3  274.19   26.11
   8 -16  -3  268.59   25.49
  16  -8   2   93.54   15.98
  -8 -16   2   98.52   17.90
   8 -16  -2   89.96   16.14
  16  -8   1   53.64   11.72
   8 -16  -1   42.14   11.25
  16  -8   0   40.95   10.63
   8 -16   0   49.60   13.31
  -8 -16  -1   75.08   11.95
  16  -8  -1   77.01   13.91
   8 -16   1   71.99   14.94
  -8 -16  -2   84.43   12.99
  16  -8  -2   81.21   13.86
   8 -16   2   77.73   15.27
  -8 -16  -3  231.16   21.85
  16  -8  -3  260.54   22.32
   8 -16   3  257.33   26.89
  -8 -16  -4  198.23   20.53
  16  -8  -4  203.00   19.07
   8 -16   4  213.96   25.32
  -8 -16  -5   35.14    9.54
   8 -16   5   60.15   15.14
  -8 -16  -6   -4.05    6.25
   8 -16   6   -5.17    8.40
  -8 -16  -7   37.26   10.89
   8 -16   7   43.62   14.48
  -8 -16  -8  323.20   28.51
   8 -16   8  355.53   33.19
  -8 -16  -9  109.25   17.22
   8 -16   9  121.40   20.45
  -8 -16 -10  -10.05   10.11
   8 -16  10   11.57   10.34
  -8 -16 -11   57.80   13.51
   8 -16  11   78.51   18.15
  -8 -16 -12    7.07    7.91
   8 -16  12   -5.06   13.05
  -8 -16 -13   15.52    9.40
   8 -16  13    3.12    8.73
  -8 -16 -14   10.60    9.55
   8 -16  14  -17.11   14.48
  -8 -16 -15  115.60   19.99
   8 -16  15  112.36   21.30
  -8 -16 -16   44.45   13.40
   8 -16  16   73.02   20.47
  -8 -16 -17  166.50   24.56
   8 -16  17  154.10   26.02
  -8 -16 -18   20.76   12.86
   8 -16  18    9.80   10.47
  -8 -16 -19    4.78    8.93
   8 -16  19   12.16   12.58
  -8 -16 -20  112.27   21.09
   8 -16  20  113.50   22.35
  -8 -16 -21   81.24   18.85
  -9 -16  17   34.15   11.01
  16  -9  16  108.12   21.76
  -9 -16  16   57.19   12.76
  16  -9  15   24.58   12.26
  -9 -16  15   14.51    8.80
  16  -9  14   14.39    9.35
  -9 -16  14    4.79    6.70
  16  -9  13   18.12   11.78
  -9 -16  13    8.03    6.84
  16  -9  12    3.42    8.95
  -9 -16  12   10.98    9.15
   9 -16 -12   -2.17    5.76
  16  -9  11   26.81   11.44
  -9 -16  11    5.61    6.16
   9 -16 -11   11.76    6.94
  16  -9  10   80.54   17.21
  -9 -16  10   84.36   15.00
   9 -16 -10   97.14   14.69
  16  -9   9   72.50   16.54
  -9 -16   9  106.51   16.56
   9 -16  -9   72.03   12.80
  16  -9   8  146.14   21.96
  -9 -16   8  125.57   19.27
   9 -16  -8  129.79   17.08
  16  -9   7   90.99   18.10
  -9 -16   7  102.85   16.99
   9 -16  -7   61.63   12.64
  16  -9   6  204.80   25.04
  -9 -16   6  204.24   23.63
   9 -16  -6  181.27   20.22
  16  -9   5   82.11   15.99
  -9 -16   5   85.01   15.90
   9 -16  -5   93.02   15.93
  16  -9   4  321.28   29.51
  -9 -16   4  302.51   27.92
   9 -16  -4  292.27   26.42
  16  -9   3    8.23    8.67
  -9 -16   3   21.89   10.86
   9 -16  -3    2.68    7.67
  16  -9   2  239.19   24.21
   9 -16  -2  281.88   26.57
  16  -9   1   53.67   12.46
   9 -16  -1   40.71   11.83
  16  -9   0  116.91   16.64
   9 -16   0  112.07   18.29
  16  -9  -1   52.52   11.43
   9 -16   1   56.10   12.54
  16  -9  -2  289.40   25.23
   9 -16   2  246.65   26.16
  16  -9  -3    3.80    5.84
   9 -16   3    8.37    9.35
  16  -9  -4  304.56   24.52
   9 -16   4  343.11   31.48
   9 -16   5   59.68   15.08
   9 -16   6  192.67   24.88
   9 -16   7  105.06   18.78
   9 -16   8  162.30   23.35
  -9 -16  -9   81.19   16.50
   9 -16   9   81.81   17.91
  -9 -16 -10  100.54   17.53
   9 -16  10  154.96   24.24
  -9 -16 -11    5.12    7.56
   9 -16  11   -0.07    8.66
  -9 -16 -12   -2.86    7.80
   9 -16  12  -21.91   14.54
  -9 -16 -13   -4.40    7.35
   9 -16  13  -11.99   13.60
  -9 -16 -14   12.93    9.42
   9 -16  14   30.01   12.01
  -9 -16 -15   -2.75    9.70
   9 -16  15   -3.80    8.31
  -9 -16 -16   98.35   18.63
   9 -16  16   77.66   19.19
  -9 -16 -17   49.78   15.62
   9 -16  17   59.45   18.18
  -9 -16 -18  134.53   23.18
   9 -16  18  102.33   21.50
  -9 -16 -19   -2.48    9.00
  -9 -16 -20   84.42   19.13
  16 -10  18  166.89   26.10
  16 -10  17  174.94   27.78
  16 -10  16   24.84   14.12
 -10 -16  16   18.79    8.98
  16 -10  15   38.83   13.89
 -10 -16  15   42.94   11.52
  16 -10  14   29.60   12.19
 -10 -16  14   17.58    8.54
  16 -10  13   19.05   11.43
 -10 -16  13   19.47    9.17
  16 -10  12    9.02    8.72
 -10 -16  12   -3.73    7.73
  16 -10  11   86.03   17.49
 -10 -16  11  105.53   16.77
  16 -10  10   76.98   17.98
 -10 -16  10  125.47   18.51
  10 -16 -10   90.15   14.59
  16 -10   9   38.60   12.68
 -10 -16   9   49.03   13.01
  10 -16  -9   71.51   13.31
  16 -10   8   -7.42   11.25
 -10 -16   8    0.50    7.93
  10 -16  -8   10.51    8.94
  16 -10   7   33.89   11.59
 -10 -16   7   62.29   14.01
  10 -16  -7   70.93   13.41
  16 -10   6  380.01   33.89
 -10 -16   6  406.14   32.38
  10 -16  -6  374.56   29.53
  16 -10   5  139.37   20.81
 -10 -16   5  159.51   21.33
  10 -16  -5  118.62   17.39
  16 -10   4   39.62   11.71
 -10 -16   4   48.61   12.74
  10 -16  -4   40.51   11.64
  16 -10   3  105.45   18.46
  10 -16  -3  124.36   18.02
  16 -10   2   89.66   16.53
  10 -16  -2   83.21   15.77
  16 -10   1  121.76   17.83
  10 -16  -1  175.10   21.95
  16 -10   0   27.54   12.94
  10 -16   0   48.60   13.79
  16 -10  -1  127.08   17.67
  10 -16   1  151.39   21.06
  16 -10  -2   78.56   13.98
  10 -16   2   98.79   18.13
  16 -10  -3  121.66   16.93
  10 -16   3  155.87   22.30
  16 -10  -4   42.18   10.27
  10 -16   4   27.67   12.67
  10 -16   5  137.31   21.10
  10 -16   6  353.09   33.45
  10 -16   7   51.03   14.67
  10 -16   8    2.30    7.99
  10 -16   9   62.27   16.15
  10 -16  10  118.07   21.35
  10 -16  11   97.90   20.32
  10 -16  12    2.73   10.00
  10 -16  13    4.66   10.50
 -10 -16 -13    5.13    8.77
  10 -16  14   15.10   11.82
 -10 -16 -14   29.25   12.45
  10 -16  15   27.71   13.81
 -10 -16 -15   27.54   11.86
  10 -16  16   11.70   12.86
 -10 -16 -16   15.49    9.49
  10 -16  17  138.58   25.17
 -10 -16 -17  122.38   21.56
 -10 -16 -18  106.91   21.39
 -10 -16 -19   13.35   10.68
  16 -11  17   97.09   22.26
  16 -11  16   54.97   16.87
  16 -11  15   20.83   13.40
  16 -11  14   74.08   18.56
 -11 -16  14   35.10   10.90
  16 -11  13   19.79   11.92
 -11 -16  13   10.99    7.98
  16 -11  12  133.81   21.99
 -11 -16  12  137.05   20.22
  16 -11  11   63.69   17.14
 -11 -16  11   72.39   14.06
  16 -11  10   93.88   19.82
 -11 -16  10   70.73   14.51
  16 -11   9   21.67   10.66
 -11 -16   9    5.48    8.16
  11 -16  -9   -3.53    7.51
  16 -11   8   70.67   16.96
 -11 -16   8   78.57   15.80
  11 -16  -8   49.52   11.58
  16 -11   7   93.99   17.90
 -11 -16   7   89.85   15.79
  11 -16  -7   89.26   15.15
  16 -11   6   45.55   13.46
 -11 -16   6   31.64   10.56
  11 -16  -6   32.84   10.26
  16 -11   5   72.62   15.98
 -11 -16   5   71.98   15.00
  11 -16  -5   80.57   14.88
  16 -11   4   85.13   17.00
  11 -16  -4   88.20   15.53
  16 -11   3   55.36   13.58
  11 -16  -3   53.97   13.60
  16 -11   2   35.01   10.88
  11 -16  -2   45.87   12.57
  16 -11   1   15.99    9.05
  11 -16  -1   18.01   10.54
  16 -11   0  148.07   20.46
  11 -16   0  220.66   24.86
  16 -11  -1   12.07    8.13
  11 -16   1   13.90    9.69
  16 -11  -2   53.68   12.60
  11 -16   2   33.37   11.87
  16 -11  -3  100.94   16.49
  11 -16   3   62.46   16.19
  11 -16   4   79.71   17.55
  11 -16   5   62.17   15.80
  11 -16   6   45.41   14.74
  11 -16   7  113.83   20.87
  11 -16   8   46.12   15.49
  11 -16   9    0.22    9.72
  11 -16  10   82.51   18.65
  11 -16  11   69.88   16.65
  11 -16  12  121.60   22.78
  11 -16  13   10.17   10.97
  11 -16  14   60.22   17.20
  11 -16  15   15.19   13.30
 -11 -16 -15   24.02   11.72
  11 -16  16   48.70   16.11
 -11 -16 -16   67.36   16.06
 -11 -16 -17   57.49   15.70
 -11 -16 -18   17.57   10.76
  16 -12  15   47.45   16.37
  16 -12  14   28.84   14.93
  16 -12  13    0.41    7.81
 -12 -16  13   -3.08    6.53
  16 -12  12   94.20   20.97
 -12 -16  12   76.13   15.19
  16 -12  11   24.14   13.06
 -12 -16  11    2.58    5.91
  16 -12  10   14.45   10.87
 -12 -16  10    4.18    7.25
  16 -12   9  138.62   22.85
 -12 -16   9  156.55   21.07
  16 -12   8  -15.67   12.45
 -12 -16   8    7.53    6.30
  16 -12   7   -2.95    8.39
 -12 -16   7   -4.93    7.58
  12 -16  -7   -0.77    6.86
  16 -12   6  197.52   26.15
 -12 -16   6  157.35   21.46
  12 -16  -6  185.88   21.74
  16 -12   5   29.45   11.74
 -12 -16   5   12.31    9.61
  12 -16  -5   24.66   10.39
  16 -12   4   19.56   11.12
  12 -16  -4   -6.54    8.56
  16 -12   3   44.27   12.24
  12 -16  -3   55.11   11.79
  16 -12   2   33.58   11.09
  12 -16  -2   58.53   14.25
  16 -12   1   33.33   12.21
  12 -16  -1   23.51   10.56
  16 -12   0  270.40   27.40
  12 -16   0  246.03   26.71
  16 -12  -1   41.82   12.22
  12 -16   1   21.32   10.65
  16 -12  -2   33.45   10.70
  12 -16   2   18.91    9.20
  16 -12  -3   75.20   15.34
  12 -16   3   54.12   15.54
  12 -16   4   -9.59   11.60
  12 -16   5    3.15   10.53
  12 -16   6   90.84   19.19
  12 -16   7   -2.34   10.28
  12 -16   8   -6.38   10.66
  12 -16   9  168.03   25.30
  12 -16  10   -5.73   12.05
  12 -16  11   -2.75   10.68
  12 -16  12  156.21   25.92
  12 -16  13   -9.60   12.50
  12 -16  14   35.10   15.26
  12 -16  15   57.37   18.20
 -12 -16 -17   65.32   17.35
  16 -13  14   71.61   19.88
  16 -13  13   -9.38   12.74
  16 -13  12   48.78   16.94
  16 -13  11   87.85   19.33
 -13 -16  11  102.20   17.28
  16 -13  10   32.86   13.04
 -13 -16  10   36.31   11.79
  16 -13   9   -1.65   10.69
 -13 -16   9  -16.59   11.25
  16 -13   8   42.81   14.44
 -13 -16   8   45.85   14.33
  16 -13   7   57.64   16.48
 -13 -16   7  100.99   17.74
  16 -13   6   14.78   10.04
 -13 -16   6    5.30    6.44
  13 -16  -6   10.43    9.00
  16 -13   5   87.79   18.75
  13 -16  -5   62.84   14.26
  16 -13   4  120.68   20.88
  13 -16  -4   88.03   16.71
  16 -13   3   40.23   13.86
  13 -16  -3   40.63   12.37
  16 -13   2   41.67   12.96
  13 -16  -2   68.83   15.61
  16 -13   1   15.74    9.53
  13 -16  -1   42.28   11.82
  13 -16   0   17.04    8.93
  16 -13   0    8.61    8.82
  16 -13  -1   28.44   10.99
  13 -16   1   21.88   11.52
  16 -13  -2   39.46   11.62
  13 -16   2   55.89   14.87
  13 -16   3   22.85   11.19
  13 -16   4   81.29   17.70
  13 -16   5   51.42   15.16
  13 -16   6    0.89    9.74
  13 -16   7  124.26   22.84
  13 -16   8   16.86   10.36
  13 -16   9    2.25    8.61
  13 -16  10   36.81   13.92
  13 -16  11   96.88   20.47
  13 -16  12   13.19   11.70
  13 -16  13   -1.39   10.64
  16 -14  13   -7.78   12.24
  16 -14  12  -29.64   16.53
  16 -14  11   50.22   16.16
  16 -14  10   19.18   11.66
 -14 -16  10   25.38   11.61
  16 -14   9  125.37   23.50
 -14 -16   9  142.99   20.91
  16 -14   8   -2.98   10.15
 -14 -16   8   11.95   10.03
  16 -14   7   22.36   13.21
 -14 -16   7   28.65   12.57
  16 -14   6  161.70   25.43
 -14 -16   6  113.12   20.53
  16 -14   5   38.51   14.30
  16 -14   4   11.43   10.83
  14 -16  -4   -2.95    7.73
  16 -14   3  105.47   19.25
  14 -16  -3   65.44   14.54
  16 -14   2    6.06   10.04
  14 -16  -2   10.96    8.45
  16 -14   1    7.35    7.59
  14 -16  -1   -1.29    8.58
  16 -14   0    9.67    7.85
  14 -16   0    8.32    8.52
  16 -14  -1   -3.94    8.27
  14 -16   1   -9.56   11.36
  16 -14  -2   -8.17    8.52
  14 -16   2   10.74   10.15
  14 -16   3   77.55   17.96
  14 -16   4    0.61    7.97
  14 -16   5   10.53   10.31
  14 -16   6   85.56   19.27
  14 -16   7   19.83   12.48
  14 -16   8    2.57    9.05
  14 -16   9  124.65   23.08
  14 -16  10   10.34   12.61
  14 -16  11   72.77   19.10
  14 -16  12   12.80   12.77
  16 -15  11  -20.54   15.89
  16 -15  10   36.83   13.19
  16 -15   9   35.25   16.38
  16 -15   8  103.76   21.55
 -15 -16   8  115.05   19.74
  16 -15   7   67.47   17.65
 -15 -16   7   67.37   15.70
  16 -15   6   85.79   19.95
 -15 -16   6  147.72   22.23
  16 -15   5   14.73   11.09
  16 -15   4   64.11   16.10
  16 -15   3  -11.07    9.89
  15 -16  -3   -9.72   10.06
  15 -16  -2   14.81    9.97
  16 -15   2   40.75   13.02
  15 -16  -1    8.64    9.40
  16 -15   1   12.93   10.42
  15 -16   0   50.35   13.94
  16 -15   0    4.51    8.36
  15 -16   1   19.20   10.27
  16 -15  -1   35.79   12.41
  15 -16   2   35.20   14.73
  15 -16   3    4.21    9.55
  15 -16   4   63.08   15.68
  15 -16   5    1.87   10.18
  15 -16   6   52.22   16.11
  15 -16   7   35.87   14.55
 -16 -15   7   74.74   17.19
  15 -16   8  105.99   22.07
  15 -16   9   27.29   12.83
  15 -16  10   36.13   15.12
  16 -16   0   22.23   10.59
  16 -16  -1    4.62    7.64
  16 -16   1    0.68    8.61
  16 -16   2   24.58   12.26
  16 -16   3  166.83   25.66
  16 -16   4   57.38   16.77
  16 -16   5   -5.30   10.47
  16 -16   6   10.57    9.35
 -16 -16   6    5.19    8.53
  16 -16   7   11.97    9.27
 -16 -16   7   29.37   12.89
  16 -16   8  158.76   27.17
  16 -16   9   48.92   16.39
   0 -17   0   -8.44    7.46
   0 -17   1   54.58   12.32
   0 -17  -1   82.02   14.78
   0 -17   2   85.43   15.03
   0 -17  -2   84.95   14.28
   0 -17  -3   87.85   16.19
   0 -17   3   82.36   14.23
   0 -17   4   34.56   12.24
   0 -17  -4   25.07    9.56
   0 -17   5  175.01   20.85
   0 -17  -5  199.62   21.70
   0 -17  -6    4.08    7.30
   0 -17   6   -5.36    8.61
   0 -17   7  295.77   27.76
   0 -17  -7  286.06   25.84
   0 -17  -8  137.78   18.03
   0 -17   8  144.82   19.31
   0 -17  -9   38.83   11.18
   0 -17   9   28.73   10.06
   0 -17 -10  123.50   17.35
   0 -17  10  114.18   18.23
   0 -17 -11   -0.19    6.62
   0 -17  11  -11.14   10.53
   0 -17 -12   49.85   12.85
   0 -17  12   32.82   12.54
   0 -17  13  155.18   21.99
   0 -17  14  132.28   20.89
   0 -17  15  101.12   18.81
   0 -17  16    2.49    7.70
   0 -17  17   47.53   14.15
   0 -17  18   20.14   10.73
   0 -17  19   48.77   14.67
   0 -17  20   13.61   12.03
   0 -17  21   -5.04    9.20
   0 -17  22   15.95    9.70
   0 -17  23   -3.15    9.97
   0 -17  24   17.60   10.32
  -1 -17  25   52.83   15.76
  -1 -17  24   65.20   17.40
  -1 -17  23   11.42    8.19
  -1 -17  22   28.72   11.73
  -1 -17  21   -5.31    8.65
  -1 -17  20    1.59    8.70
  -1 -17  19   32.84   11.92
  -1 -17  18  -12.92   10.43
  -1 -17  17    7.79    8.07
   1 -17 -16  324.76   27.93
  -1 -17  16  334.48   32.38
   1 -17 -15   41.02   11.21
  -1 -17  15   41.40   13.90
   1 -17 -14   25.00    9.45
  -1 -17  14   -1.81    8.25
   1 -17 -13  200.47   21.30
  -1 -17  13  154.87   22.14
   1 -17 -12   65.78   13.70
  -1 -17  12   64.59   14.67
   1 -17 -11  128.81   16.75
  -1 -17  11  105.07   18.17
   1 -17 -10    5.43    7.04
  -1 -17  10    3.98    8.17
   1 -17  -9   -0.14    6.78
  -1 -17   9    4.56    7.76
  -1 -17   8  258.80   25.91
   1 -17  -8  313.28   26.37
   1 -17  -7  197.78   21.34
  -1 -17   7  139.86   19.31
   1 -17  -6    1.92    7.47
  -1 -17   6    1.85    7.36
  -1 -17   5   -0.13    8.45
   1 -17  -5    3.59    7.44
   1 -17  -4  318.09   26.63
  -1 -17   4  363.85   29.51
  -1 -17   3   66.95   14.01
   1 -17  -3   78.32   14.42
  -1 -17   2   -7.31    8.98
   1 -17  -2    2.48    7.44
   1 -17  -1  152.59   18.76
  -1 -17   1  144.04   18.86
   1 -17   0   11.61    8.43
  -1 -17   0   12.59    8.05
  -1 -17  -1  114.73   16.85
   1 -17   1  117.07   16.92
  -1 -17  -2    3.97    7.62
   1 -17   2   -7.11    8.55
  -1 -17  -3   96.93   15.79
   1 -17   3  121.94   17.99
   1 -17   4  372.66   29.75
  -1 -17  -4  383.59   29.68
  -1 -17  -5    7.83    7.85
   1 -17   5   -7.40    9.68
  -1 -17  -6   13.39    9.56
   1 -17   6   -4.37    7.16
  -1 -17  -7  177.49   20.67
   1 -17   7  157.33   20.46
  -1 -17  -8  273.34   26.56
  -1 -17  -8  289.56   25.44
   1 -17   8  211.66   23.76
  -1 -17  -9  -11.95   10.83
  -1 -17  -9    9.10    8.40
   1 -17   9    6.94    7.81
  -1 -17 -10   16.97   10.26
   1 -17  10   -5.13    9.18
  -1 -17 -11  106.19   20.45
   1 -17  11  126.69   19.80
  -1 -17 -12   81.23   17.30
   1 -17  12   55.58   14.30
  -1 -17 -13  255.66   29.68
   1 -17  13  227.66   27.25
  -1 -17 -14   32.38   12.64
   1 -17  14   -1.20    7.81
  -1 -17 -15   63.01   16.25
   1 -17  15   72.01   16.23
  -1 -17 -16  293.60   33.27
   1 -17  16  324.39   33.12
  -1 -17 -17   23.73   14.00
   1 -17  17   -7.06   11.27
  -1 -17 -18   -6.06   12.07
   1 -17  18   -2.14    9.34
  -1 -17 -19   15.63   12.07
   1 -17  19   12.69    9.35
  -1 -17 -20   -4.87   10.37
   1 -17  20   10.46    9.52
  -1 -17 -21    4.29   10.81
   1 -17  21   -1.24    8.02
  -1 -17 -22   -2.37   12.26
   1 -17  22    5.84    8.98
   1 -17  23    1.67   10.71
  -2 -17  25    0.63    8.29
  -2 -17  24   48.44   15.27
  -2 -17  23   46.41   14.15
  -2 -17  22   22.37   11.29
  -2 -17  21    8.50    8.66
   2 -17 -20   11.33    7.37
  -2 -17  20    4.04    8.94
   2 -17 -19   73.23   13.55
  -2 -17  19   64.75   15.84
   2 -17 -18   25.47    9.44
  -2 -17  18   21.08   11.39
   2 -17 -17   83.91   14.10
  -2 -17  17  102.85   19.04
   2 -17 -16   78.06   14.58
  -2 -17  16   90.82   17.15
   2 -17 -15   26.61    8.62
  -2 -17  15   38.78   12.48
   2 -17 -14  123.62   16.63
  -2 -17  14   94.15   17.38
   2 -17 -13   -1.37    7.21
  -2 -17  13    0.02    8.46
   2 -17 -12  173.02   20.24
  -2 -17  12  161.49   21.99
   2 -17 -11   96.65   15.08
  -2 -17  11   89.55   16.70
   2 -17 -10  115.06   17.06
  -2 -17  10   85.38   15.95
  -2 -17   9   79.91   15.60
   2 -17  -9   65.44   12.46
  -2 -17   8   78.15   15.90
   2 -17  -8   57.49   12.42
  -2 -17   7  100.82   16.14
   2 -17  -7  126.77   16.80
   2 -17  -6   55.60   11.66
  -2 -17   6   55.98   12.91
   2 -17  -5  256.80   24.23
  -2 -17   5  289.72   26.44
  -2 -17   4   27.00   10.81
   2 -17  -4   23.04    9.47
  -2 -17   3    3.30    6.57
   2 -17  -3    0.48    5.84
  -2 -17   2   68.90   14.20
   2 -17  -2   87.48   15.11
   2 -17  -1   10.66    8.04
  -2 -17   1    1.49    7.98
  -2 -17   0  162.14   19.49
   2 -17   0  151.83   19.38
   2 -17   1   19.51    9.64
  -2 -17  -1   30.91   11.50
  -2 -17  -2   67.55   13.38
   2 -17   2   70.55   13.99
  -2 -17  -3   -6.07    8.81
   2 -17   3   -4.54    7.57
  -2 -17  -4   15.13    7.43
  -2 -17  -4   26.88   10.65
   2 -17   4   23.10   11.30
  -2 -17  -5  268.77   24.59
  -2 -17  -5  279.92   25.60
   2 -17   5  217.53   23.66
  -2 -17  -6   63.38   14.57
  -2 -17  -6   48.93   12.39
   2 -17   6   27.55   10.84
  -2 -17  -7   90.20   15.63
  -2 -17  -7   77.85   15.98
   2 -17   7   73.83   14.62
  -2 -17  -8   63.86   13.89
   2 -17   8   78.08   15.58
  -2 -17  -9   75.39   14.68
   2 -17   9   58.16   14.12
  -2 -17 -10   93.44   16.34
   2 -17  10   71.76   15.05
  -2 -17 -11  108.38   18.39
   2 -17  11   94.76   17.55
  -2 -17 -12  161.03   22.93
   2 -17  12  165.77   23.20
  -2 -17 -13    4.56   10.38
   2 -17  13   -2.15    8.65
  -2 -17 -14  141.17   22.34
   2 -17  14  110.37   19.43
  -2 -17 -15   62.51   16.83
   2 -17  15   37.07   12.69
  -2 -17 -16  100.27   19.60
   2 -17  16   49.36   15.31
  -2 -17 -17   75.14   17.62
   2 -17  17   73.24   17.09
  -2 -17 -18   43.29   15.00
   2 -17  18   46.78   14.27
  -2 -17 -19   92.58   20.24
   2 -17  19   68.81   16.47
  -2 -17 -20   -7.55   11.89
   2 -17  20  -11.73   13.62
  -2 -17 -21   10.71   11.92
   2 -17  21   30.96   14.29
  -2 -17 -22   15.82   12.65
   2 -17  22   51.78   15.82
   2 -17  23   31.53   12.88
  -3 -17  24   -2.98    8.54
  -3 -17  23   52.16   15.72
  -3 -17  22   46.34   16.25
  -3 -17  21   84.18   18.23
  -3 -17  20   40.94   12.85
   3 -17 -19  199.85   21.38
  -3 -17  19  182.38   25.07
   3 -17 -18  -10.56    7.94
  -3 -17  18   -1.43    7.81
   3 -17 -17   43.60   10.69
  -3 -17  17   42.97   13.43
   3 -17 -16   36.37   10.40
  -3 -17  16   75.32   15.42
   3 -17 -15   59.50   11.84
  -3 -17  15   35.52   12.60
   3 -17 -14   14.00    8.06
  -3 -17  14   40.98   12.62
   3 -17 -13   64.56   12.73
  -3 -17  13  121.74   18.87
   3 -17 -12   43.60   11.11
  -3 -17  12   36.53   12.22
   3 -17 -11  101.33   15.73
  -3 -17  11  105.54   17.25
  -3 -17  10  154.59   20.85
   3 -17 -10  103.10   15.45
  -3 -17   9   36.40   11.69
   3 -17  -9   19.79    9.05
  -3 -17   8   48.06   12.54
   3 -17  -8   83.26   14.29
   3 -17  -7  240.14   23.07
  -3 -17   7  276.22   25.90
   3 -17  -6   13.02    8.33
  -3 -17   6    4.72    7.80
  -3 -17   5  309.75   27.41
   3 -17  -5  278.18   25.33
   3 -17  -4  195.12   20.44
  -3 -17   4  154.65   19.67
   3 -17  -3  107.26   16.01
  -3 -17   3  140.76   18.27
  -3 -17   2    1.09    7.01
   3 -17  -2    5.07    8.25
   3 -17  -1   59.50   13.14
  -3 -17   1   49.40   11.91
  -3 -17   0    6.32    7.27
   3 -17   0    0.62    6.66
  -3 -17  -1   61.93   13.38
   3 -17   1   45.53   11.90
  -3 -17  -2   -7.82    6.70
  -3 -17  -2   11.44    8.31
   3 -17   2   13.43    8.25
  -3 -17  -3  128.04   16.09
  -3 -17  -3  144.96   19.42
   3 -17   3  131.06   18.28
  -3 -17  -4  204.97   20.86
  -3 -17  -4  197.59   22.15
   3 -17   4  191.14   22.15
  -3 -17  -5  294.24   25.70
   3 -17   5  286.02   27.71
  -3 -17  -5  310.58   26.92
  -3 -17  -6   17.87    9.27
   3 -17   6   12.16    8.42
  -3 -17  -7  279.96   26.49
   3 -17   7  292.72   27.82
  -3 -17  -8   73.14   14.97
   3 -17   8   48.39   12.77
  -3 -17  -9   20.42    8.85
   3 -17   9   17.96    8.73
  -3 -17 -10  114.47   18.41
   3 -17  10  124.44   20.56
  -3 -17 -11  122.32   19.54
   3 -17  11  124.80   20.10
  -3 -17 -12   28.57   11.34
   3 -17  12   58.73   15.85
  -3 -17 -13   72.01   16.36
   3 -17  13  103.49   19.65
  -3 -17 -14    8.41    8.72
   3 -17  14   26.40   12.83
  -3 -17 -15   55.69   15.66
   3 -17  15   39.31   12.90
  -3 -17 -16   35.22   13.07
   3 -17  16   36.38   14.86
  -3 -17 -17   48.20   15.70
   3 -17  17   55.27   15.28
  -3 -17 -18   -8.65   10.59
   3 -17  18   11.11    9.76
  -3 -17 -19  202.94   29.24
   3 -17  19  223.73   29.94
  -3 -17 -20   16.94   11.97
   3 -17  20   57.71   18.51
  -3 -17 -21   76.48   19.74
   3 -17  21   81.27   19.54
  -3 -17 -22   39.24   15.51
   3 -17  22   39.18   15.31
  -4 -17  23    7.18    9.41
  -4 -17  22   35.07   13.39
  -4 -17  21  164.33   24.18
  -4 -17  20   12.65    8.38
  -4 -17  19   68.34   16.07
   4 -17 -18   11.34    6.86
  -4 -17  18   38.51   13.71
   4 -17 -17   -7.96    8.34
  -4 -17  17   10.17    8.65
   4 -17 -16   86.31   14.33
  -4 -17  16   89.59   16.77
   4 -17 -15   65.63   12.55
  -4 -17  15   96.83   17.54
   4 -17 -14  203.73   21.17
  -4 -17  14  222.36   24.99
   4 -17 -13   15.16    8.56
  -4 -17  13    8.00    8.33
   4 -17 -12  218.26   22.05
  -4 -17  12  168.81   21.70
  -4 -17  11   -3.99    8.25
   4 -17 -11    9.41    8.49
  -4 -17  10  121.55   18.84
   4 -17 -10  123.43   16.88
   4 -17  -9  205.47   21.75
  -4 -17   9  159.01   20.70
   4 -17  -8   70.28   13.81
  -4 -17   8   47.70   12.90
   4 -17  -7  220.97   22.59
  -4 -17   7  184.72   21.32
  -4 -17   6    7.48    6.15
   4 -17  -6   33.55   10.86
   4 -17  -5   59.28   12.38
  -4 -17   5   47.98   11.82
   4 -17  -4  178.51   20.43
  -4 -17   4  157.02   19.79
   4 -17  -3  300.03   26.21
  -4 -17   3  256.12   24.82
   4 -17  -2  309.85   26.89
  -4 -17   2  298.16   26.62
  -4 -17   1   15.11    8.90
   4 -17  -1   15.32    7.84
  -4 -17   0   59.73   13.23
   4 -17   0   83.33   15.26
  -4 -17  -1   35.31   11.10
   4 -17   1   18.37    9.54
  -4 -17  -2  353.22   25.40
  -4 -17  -2  326.07   28.75
   4 -17   2  315.14   28.27
  -4 -17  -3  329.73   25.38
   4 -17   3  254.04   25.55
  -4 -17  -3  343.62   29.72
  -4 -17  -4  176.51   19.23
   4 -17   4  184.29   22.56
  -4 -17  -5   72.99   13.50
   4 -17   5   48.33   12.47
  -4 -17  -6   21.23    8.86
   4 -17   6   21.55    9.56
  -4 -17  -7  198.34   22.38
   4 -17   7  241.87   25.58
  -4 -17  -8   45.18   10.95
   4 -17   8   60.31   13.79
  -4 -17  -9  154.99   20.83
   4 -17   9  187.69   23.97
  -4 -17 -10  107.01   17.88
   4 -17  10  109.73   19.33
  -4 -17 -11  -13.73   10.29
   4 -17  11  -11.91    9.42
  -4 -17 -12  217.32   26.36
   4 -17  12  190.25   25.04
  -4 -17 -13   -1.36    9.24
   4 -17  13   -0.30    9.30
  -4 -17 -14  182.00   24.91
   4 -17  14  205.18   26.89
  -4 -17 -15   65.86   15.80
   4 -17  15  113.28   20.83
  -4 -17 -16  129.05   22.67
   4 -17  16  119.48   22.15
  -4 -17 -17    0.36   10.62
   4 -17  17   -3.73    8.64
  -4 -17 -18   11.63   10.69
   4 -17  18   16.93   11.46
  -4 -17 -19   72.26   18.55
   4 -17  19   75.57   18.79
  -4 -17 -20   -2.56   10.49
   4 -17  20    7.21    8.02
  -4 -17 -21  180.76   28.23
   4 -17  21  187.64   29.37
  -4 -17 -22   -9.82   11.97
  -5 -17  22   84.30   17.68
  -5 -17  21    9.06    6.82
  -5 -17  20  -14.71   10.35
  -5 -17  19   -1.98    8.15
  -5 -17  18   50.11   14.08
  -5 -17  17   36.57   11.87
   5 -17 -16    9.44    7.38
  -5 -17  16   13.14    8.57
   5 -17 -15  106.92   15.68
  -5 -17  15  128.09   19.52
   5 -17 -14   58.22   12.05
  -5 -17  14   56.66   13.54
   5 -17 -13  655.68   38.30
  -5 -17  13  669.43   42.97
   5 -17 -12   57.56   12.49
  -5 -17  12   39.71   12.53
   5 -17 -11  195.49   21.09
  -5 -17  11  180.74   22.46
   5 -17 -10  220.22   22.02
  -5 -17  10  195.27   23.11
   5 -17  -9   39.25   10.25
  -5 -17   9   50.12   11.76
  -5 -17   8   -4.45    7.25
   5 -17  -8    6.21    6.14
   5 -17  -7   33.46   10.69
  -5 -17   7    5.33    7.00
   5 -17  -6   -4.42    7.19
  -5 -17   6    9.42    8.07
   5 -17  -5    9.23    6.68
  -5 -17   5   30.13   10.47
   5 -17  -4    0.81    6.99
  -5 -17   4   -8.96    9.62
  -5 -17   3  179.58   21.41
   5 -17  -3  191.24   21.58
  -5 -17   2  207.13   22.39
   5 -17  -2  173.30   21.42
   5 -17  -1  424.13   31.91
  -5 -17   1  449.73   33.12
  -5 -17   0   80.59   15.18
   5 -17   0   76.24   14.45
   5 -17   1  462.03   34.30
  -5 -17  -1  555.50   37.06
  -5 -17  -2  224.72   23.94
   5 -17   2  198.27   23.47
  -5 -17  -3  170.85   18.33
   5 -17   3  214.44   23.76
  -5 -17  -4    1.44    5.47
   5 -17   4  -17.06   11.50
  -5 -17  -5   16.69    8.53
   5 -17   5   33.18   10.42
  -5 -17  -6    0.59    6.58
   5 -17   6    7.74   10.16
  -5 -17  -7   36.97   10.85
   5 -17   7   15.50    9.10
  -5 -17  -8  -17.38    9.70
   5 -17   8   10.34   10.58
  -5 -17  -9   31.23   10.85
   5 -17   9   69.28   17.01
  -5 -17 -10  200.60   24.04
   5 -17  10  174.71   23.98
  -5 -17 -11  208.80   25.00
   5 -17  11  218.68   27.03
  -5 -17 -12   67.49   16.21
   5 -17  12   62.07   16.53
  -5 -17 -13  660.84   45.98
   5 -17  13  635.59   46.78
  -5 -17 -14   56.13   14.71
   5 -17  14   52.13   15.76
  -5 -17 -15  139.18   22.38
   5 -17  15  106.42   20.31
  -5 -17 -16   -4.01   10.06
   5 -17  16    4.57   10.11
  -5 -17 -17   27.99   12.54
   5 -17  17   28.82   12.89
  -5 -17 -18   52.74   15.86
   5 -17  18   66.36   17.69
  -5 -17 -19   22.73   12.25
   5 -17  19  -14.76   11.37
  -5 -17 -20   28.38   15.50
   5 -17  20    0.73   10.03
  -5 -17 -21    4.30    9.29
  -6 -17  21   13.04    8.58
  -6 -17  20    2.25    7.81
  -6 -17  19   35.88   12.93
  -6 -17  18   11.04    8.28
  -6 -17  17   89.32   16.66
  -6 -17  16    1.12    9.00
   6 -17 -15   23.79    8.31
  -6 -17  15   33.16   11.42
   6 -17 -14  148.55   18.02
  -6 -17  14  107.32   17.78
  -6 -17  13  405.73   33.59
   6 -17 -13  402.30   29.72
  -6 -17  12  301.23   28.57
   6 -17 -12  329.09   26.89
   6 -17 -11  413.77   30.15
  -6 -17  11  425.32   33.62
   6 -17 -10   12.30    7.75
  -6 -17  10   17.15   10.75
  -6 -17   9   21.90    9.83
   6 -17  -9   10.50    7.87
  -6 -17   8    5.63    7.86
   6 -17  -8  -13.45    9.02
   6 -17  -7    3.91    7.07
  -6 -17   7    2.19    7.15
   6 -17  -6    1.10    7.75
  -6 -17   6   17.03    9.26
  -6 -17   5   44.74   12.31
   6 -17  -5   27.17    9.86
  -6 -17   4   81.03   14.47
   6 -17  -4   84.84   14.91
  -6 -17   3   18.61    9.35
   6 -17  -3   14.35    8.16
  -6 -17   2  195.52   22.48
   6 -17  -2  210.58   23.00
   6 -17  -1  344.98   29.36
  -6 -17   1  363.85   30.76
   6 -17   0  533.83   36.86
  -6 -17   0  511.35   36.20
   6 -17   1  402.84   32.30
  -6 -17  -1  423.30   33.79
   6 -17   2  184.80   22.24
  -6 -17  -3   21.25    7.75
   6 -17   3   22.53    9.61
  -6 -17  -4   74.14   12.93
   6 -17   4   91.42   17.24
  -6 -17  -5   25.54    8.30
   6 -17   5   52.21   14.47
  -6 -17  -6   10.79    7.55
   6 -17   6   11.30    8.60
  -6 -17  -7   -0.98    5.94
   6 -17   7   17.47   11.39
  -6 -17  -8   -0.31    6.49
   6 -17   8    4.14    7.18
  -6 -17  -9   11.80    5.99
   6 -17   9   21.34   11.59
  -6 -17 -10    5.87    8.42
   6 -17  10   17.68   11.05
  -6 -17 -11  380.59   33.18
   6 -17  11  456.36   38.76
  -6 -17 -12  362.48   33.26
   6 -17  12  307.17   32.57
  -6 -17 -13  353.94   33.31
   6 -17  13  355.64   35.27
  -6 -17 -14  144.05   22.02
   6 -17  14  102.48   21.12
  -6 -17 -15   34.96   11.86
   6 -17  15   20.82   10.70
  -6 -17 -16   13.67   10.18
   6 -17  16   26.21   13.63
  -6 -17 -17   76.61   18.67
   6 -17  17   61.12   16.62
  -6 -17 -18    2.03    8.17
   6 -17  18   -1.05   11.11
  -6 -17 -19   13.28   11.68
   6 -17  19   20.89   12.03
  -6 -17 -20  -18.77   12.22
  -6 -17 -21    5.40    9.90
  -7 -17  19   10.16    6.60
  -7 -17  18   83.18   15.98
  -7 -17  17    9.75    9.19
  -7 -17  16   -3.27    7.35
  -7 -17  15  138.67   20.40
   7 -17 -14   72.54   13.22
  -7 -17  14   84.09   16.23
  -7 -17  13  250.44   26.04
   7 -17 -13  253.35   23.31
   7 -17 -12   -0.01    6.07
  -7 -17  12    4.96    7.01
   7 -17 -11  200.50   20.81
  -7 -17  11  227.17   24.41
   7 -17 -10  338.05   27.28
  -7 -17  10  329.21   29.66
   7 -17  -9   29.12    9.72
  -7 -17   9   42.90   12.65
  -7 -17   8  -11.16   10.21
   7 -17  -8    5.53    6.09
  -7 -17   7   -0.26    8.57
   7 -17  -7   11.01    7.41
  -7 -17   6   92.18   16.36
   7 -17  -6   86.49   14.96
  -7 -17   5   32.53   10.87
   7 -17  -5   33.86    9.59
  -7 -17   4    1.88    7.12
   7 -17  -4   21.49    8.60
  -7 -17   3   53.95   12.93
   7 -17  -3   39.63   11.76
  -7 -17   2  123.41   18.92
   7 -17  -2  112.56   17.13
   7 -17  -1  275.38   26.58
  -7 -17   1  268.87   26.21
  -7 -17   0   11.13   10.67
   7 -17   0   -2.98    9.24
   7 -17   1  284.95   28.24
   7 -17   2  130.88   19.54
   7 -17   3   60.60   14.53
  -7 -17  -4   21.02    7.67
   7 -17   4   24.61   11.11
  -7 -17  -5   24.84    8.13
   7 -17   5   56.29   14.31
  -7 -17  -6   75.08   14.20
   7 -17   6   89.90   17.63
  -7 -17  -7   -1.70    6.21
   7 -17   7  -10.65   10.26
  -7 -17  -8    8.47    7.90
   7 -17   8   21.46   11.97
  -7 -17  -9   47.25   12.46
   7 -17   9   21.51   10.40
  -7 -17 -10  270.54   27.15
   7 -17  10  346.70   33.61
  -7 -17 -11  197.96   24.57
   7 -17  11  229.17   28.58
  -7 -17 -12   -4.54    9.12
   7 -17  12   32.13   13.30
  -7 -17 -13  257.91   28.60
   7 -17  13  238.75   29.04
  -7 -17 -14   70.16   16.07
   7 -17  14   92.85   20.53
  -7 -17 -15  124.24   20.46
   7 -17  15  121.57   21.62
  -7 -17 -16    2.16    8.67
   7 -17  16   -4.27   11.82
  -7 -17 -17    8.01    9.01
   7 -17  17   -1.68   12.25
  -7 -17 -18   60.67   15.69
   7 -17  18   75.54   19.37
  -7 -17 -19  -27.65   14.30
   7 -17  19   -6.99   10.26
  -7 -17 -20    4.63    8.56
  -8 -17  18   53.53   13.81
  -8 -17  17   -0.02    7.33
  -8 -17  16   46.43   12.03
  -8 -17  15  103.11   18.02
  -8 -17  14   92.83   16.96
  -8 -17  13    9.48    6.74
  -8 -17  12  101.14   16.83
   8 -17 -12  106.72   15.43
  -8 -17  11    3.05    7.47
   8 -17 -11  -14.48    8.89
  -8 -17  10  154.15   21.12
   8 -17 -10  111.56   16.05
   8 -17  -9  298.39   26.35
  -8 -17   9  298.60   28.14
  17  -8   8   55.81   14.70
  -8 -17   8   36.52   11.09
   8 -17  -8   25.60    8.83
  17  -8   7   76.20   16.24
  -8 -17   7   45.16   12.09
   8 -17  -7   72.58   13.63
  17  -8   6   31.03   11.72
  -8 -17   6   36.34   11.92
   8 -17  -6   39.25   11.72
  -8 -17   5    9.90    7.79
   8 -17  -5    8.12    7.57
  17  -8   4   75.20   15.39
  -8 -17   4   71.70   15.50
   8 -17  -4   65.06   13.67
  17  -8   3   78.20   14.96
  -8 -17   3   85.14   16.02
   8 -17  -3   77.92   15.50
  17  -8   2   95.35   15.59
  -8 -17   2  110.98   18.16
   8 -17  -2  111.85   18.07
  17  -8   1   32.10   11.29
  -8 -17   1   58.95   14.79
   8 -17  -1   73.22   15.94
  17  -8   0  132.03   17.22
   8 -17   0  157.96   21.40
   8 -17   1   38.15   12.08
   8 -17   2  103.13   17.60
   8 -17   3   94.96   17.04
  -8 -17  -4   61.55   11.76
   8 -17   4   49.15   14.31
  -8 -17  -5   15.14    7.82
   8 -17   5   20.32   11.85
  -8 -17  -6   49.86   11.66
   8 -17   6    6.78    9.43
  -8 -17  -7   43.38   11.81
   8 -17   7   59.06   16.30
  -8 -17  -8   68.99   14.71
   8 -17   8   49.01   14.59
  -8 -17  -9  235.46   25.24
   8 -17   9  262.29   29.46
  -8 -17 -10  100.72   17.39
   8 -17  10  135.79   23.04
  -8 -17 -11   -2.12    8.30
   8 -17  11   10.19    9.64
  -8 -17 -12   96.75   18.11
   8 -17  12   75.06   16.49
  -8 -17 -13   19.19   10.15
   8 -17  13  -17.70   14.15
  -8 -17 -14  151.93   22.38
   8 -17  14  161.78   24.86
  -8 -17 -15   98.16   18.57
   8 -17  15  104.77   20.97
  -8 -17 -16   36.07   13.92
   8 -17  16   29.02   14.00
  -8 -17 -17   -7.97    8.17
   8 -17  17   11.85    9.28
  -8 -17 -18   13.74   10.51
   8 -17  18   38.59   16.00
  -8 -17 -19   21.31   11.04
  -8 -17 -20   -4.29    8.32
  -9 -17  17  -11.20    8.43
  -9 -17  16   58.28   13.60
  -9 -17  15   32.24   12.14
  -9 -17  14   39.66   12.08
  17  -9  13  100.68   19.25
  -9 -17  13   86.64   16.54
  17  -9  12   27.57   13.83
  -9 -17  12    2.65    7.85
  17  -9  11   90.88   19.33
  -9 -17  11   74.56   14.93
   9 -17 -11   82.80   13.98
  17  -9  10   66.53   15.89
  -9 -17  10   45.72   12.03
   9 -17 -10   32.63    9.99
  17  -9   9   76.39   16.72
  -9 -17   9   89.98   15.98
   9 -17  -9   63.19   12.90
  17  -9   8   28.93   12.61
  -9 -17   8   33.33   11.01
   9 -17  -8   18.01    7.30
  17  -9   7  188.17   24.06
  -9 -17   7  149.11   20.04
   9 -17  -7  115.83   17.08
  17  -9   6   25.00   10.77
  -9 -17   6    7.50    7.35
   9 -17  -6   15.12    7.88
  17  -9   5   82.74   16.36
  -9 -17   5   77.03   14.85
   9 -17  -5   98.71   16.54
  17  -9   4   40.30   12.22
  -9 -17   4   73.37   16.09
   9 -17  -4   49.36   12.67
  17  -9   3   43.70   12.44
  -9 -17   3   33.80   11.93
   9 -17  -3   27.15   10.00
  17  -9   2  100.64   16.80
  -9 -17   2  111.07   18.34
   9 -17  -2   97.82   17.12
  17  -9   1  201.62   22.58
   9 -17  -1  200.16   23.49
  17  -9   0  125.94   18.24
   9 -17   0  117.04   19.44
  17  -9  -1  250.79   24.25
   9 -17   1  222.27   25.44
  17  -9  -2   95.88   14.23
   9 -17   2   82.31   16.42
  17  -9  -3   18.93    7.87
   9 -17   3   39.12   11.92
   9 -17   4   55.63   15.12
  -9 -17  -5   87.91   14.69
   9 -17   5   81.05   17.36
  -9 -17  -6    4.52    6.66
   9 -17   6   57.15   15.74
  -9 -17  -7  159.41   20.22
   9 -17   7  170.17   24.62
  -9 -17  -8   75.37   15.07
   9 -17   8   29.80   11.89
  -9 -17  -9   68.50   14.83
   9 -17   9  104.09   19.67
  -9 -17 -10   63.50   14.47
   9 -17  10   64.30   16.27
  -9 -17 -11   44.27   12.28
   9 -17  11   54.73   16.23
   9 -17  12   -6.37   11.78
  -9 -17 -12    0.60    7.10
   9 -17  13   50.50   15.14
  -9 -17 -13   50.47   14.28
   9 -17  14   62.04   17.13
  -9 -17 -14   45.37   12.99
   9 -17  15   25.40   12.29
  -9 -17 -15   41.69   13.37
   9 -17  16   99.62   22.64
  -9 -17 -16   94.23   19.08
  -9 -17 -17    3.82    7.89
  -9 -17 -18   47.38   15.99
  -9 -17 -19  101.77   21.20
  17 -10  16   91.35   19.68
  17 -10  15   13.55    9.82
 -10 -17  15    7.72    8.31
  17 -10  14   48.38   17.38
 -10 -17  14   37.86   11.62
  17 -10  13   13.93   10.70
 -10 -17  13   11.72    8.45
  17 -10  12  138.09   23.50
 -10 -17  12  136.46   19.78
  17 -10  11   50.65   15.57
 -10 -17  11   54.75   13.15
  17 -10  10   53.73   15.30
 -10 -17  10   65.33   14.24
  10 -17 -10   65.37   13.45
  17 -10   9   11.93    9.79
 -10 -17   9    9.03    8.21
  10 -17  -9   11.66    8.06
  17 -10   8   36.23   12.80
 -10 -17   8   23.22   10.97
  10 -17  -8   15.88    8.36
  17 -10   7    6.39    8.86
 -10 -17   7   10.80    8.81
  10 -17  -7   26.66   10.20
  17 -10   6   20.04   12.79
 -10 -17   6    4.09    7.10
  10 -17  -6    0.57    6.14
  17 -10   5  212.01   24.95
 -10 -17   5  288.13   28.56
  10 -17  -5  248.90   25.46
  17 -10   4   54.05   13.88
 -10 -17   4   87.67   16.49
  10 -17  -4   75.24   14.69
  17 -10   3   -4.46    9.13
 -10 -17   3   10.49    8.72
  10 -17  -3    5.03    8.46
  17 -10   2  133.73   19.39
  10 -17  -2  115.69   18.95
  17 -10   1   53.03   13.22
  10 -17  -1   68.66   16.15
  17 -10   0  346.06   29.71
  10 -17   0  393.03   33.90
  17 -10  -1   83.83   14.92
  10 -17   1   62.67   15.20
  17 -10  -2   92.45   14.98
  10 -17   2   64.69   15.20
  10 -17   3   12.95    9.08
  10 -17   4   94.62   18.67
  10 -17   5  199.65   25.48
  10 -17   6    4.78   10.76
  10 -17   7   20.40   12.54
 -10 -17  -8   24.18   10.41
  10 -17   8   27.65   12.65
 -10 -17  -9    1.26    7.01
  10 -17   9   12.33   13.10
  10 -17  10   66.86   16.82
 -10 -17 -10   66.12   15.08
  10 -17  11   57.87   18.40
 -10 -17 -11   22.14    9.81
  10 -17  12   80.39   18.97
 -10 -17 -12  100.79   17.98
  10 -17  13    2.44   11.35
 -10 -17 -13   16.04   10.27
  10 -17  14    8.46   11.11
 -10 -17 -14   19.26   10.44
  10 -17  15    0.45   12.25
 -10 -17 -15   23.79   11.95
 -10 -17 -16   92.37   20.29
 -10 -17 -17   60.52   15.57
 -10 -17 -18   11.47    9.91
  17 -11  15   63.99   18.32
  17 -11  14   35.61   15.38
 -11 -17  14    9.82    8.13
  17 -11  13  148.71   23.94
 -11 -17  13  123.84   18.84
  17 -11  12   37.20   14.20
 -11 -17  12   53.99   13.54
  17 -11  11   53.47   14.78
 -11 -17  11   70.12   15.31
  17 -11  10    5.95    8.61
 -11 -17  10   20.07   10.54
  17 -11   9   10.63    9.77
 -11 -17   9    1.82    7.08
  17 -11   8  171.60   24.95
 -11 -17   8  155.44   21.26
  11 -17  -8  136.77   18.93
  17 -11   7    9.00   10.16
 -11 -17   7   -3.59    8.76
  11 -17  -7   15.86    9.15
  17 -11   6   29.74   12.52
 -11 -17   6    8.69    8.63
  11 -17  -6   26.45    9.55
  17 -11   5   12.33    7.58
 -11 -17   5   -1.27    7.08
  11 -17  -5    5.51    8.33
  17 -11   4  188.90   23.29
 -11 -17   4  192.05   24.28
  11 -17  -4  147.48   20.20
  17 -11   3   68.32   15.95
 -11 -17   3  103.91   17.96
  11 -17  -3   88.20   17.02
  17 -11   2   94.53   18.08
  11 -17  -2  105.40   18.39
  17 -11   1  113.72   18.64
  11 -17  -1  122.29   19.64
  17 -11   0   15.61    8.94
  11 -17   0   -9.44    9.92
  17 -11  -1  125.06   18.39
  11 -17   1   87.06   17.24
  17 -11  -2   96.51   15.88
  11 -17   2  111.62   19.61
  11 -17   3  123.14   20.40
  11 -17   4  157.40   23.22
  11 -17   5   -2.22    7.72
  11 -17   6   23.15   11.27
  11 -17   7  -11.59   11.08
  11 -17   8  145.58   23.36
  11 -17   9  -12.79   10.24
  11 -17  10   17.94   10.78
  11 -17  11   87.11   18.86
  11 -17  12   61.19   18.06
 -11 -17 -12   27.30   10.59
  11 -17  13   83.16   20.34
 -11 -17 -13  150.59   23.00
  11 -17  14   16.52   14.77
 -11 -17 -14   17.93    9.40
 -11 -17 -15   61.22   15.70
 -11 -17 -16  131.59   22.66
 -11 -17 -17    9.22    8.34
  17 -12  14   79.21   19.43
  17 -12  13   68.06   20.44
 -12 -17  13   76.58   15.96
  17 -12  12   40.11   15.43
 -12 -17  12   21.27   10.04
  17 -12  11   11.73   10.08
 -12 -17  11   -2.24    7.16
  17 -12  10   44.19   15.33
 -12 -17  10   26.72   10.63
  17 -12   9   28.84   12.54
 -12 -17   9   35.65   12.57
  17 -12   8    9.16   10.53
 -12 -17   8    5.50    8.86
  17 -12   7   57.90   15.41
 -12 -17   7   39.12   13.17
  12 -17  -7   31.29   10.24
  17 -12   6   62.35   17.14
 -12 -17   6   76.50   17.37
  12 -17  -6   69.25   14.51
  17 -12   5   59.20   15.37
 -12 -17   5   48.57   13.72
  12 -17  -5   51.54   12.61
  17 -12   4    6.61    9.12
 -12 -17   4   -4.22    7.34
  12 -17  -4   -2.72    6.68
  17 -12   3   80.21   17.33
  12 -17  -3   93.67   17.27
  17 -12   2   36.96   12.78
  12 -17  -2    8.70    9.29
  17 -12   1   11.64    8.74
  12 -17  -1   15.08    7.22
  17 -12   0   46.54   13.77
  12 -17   0   36.81   12.86
  17 -12  -1   33.04   10.96
  12 -17   1   31.81   11.58
  12 -17   2   43.43   14.01
  12 -17   3   71.35   16.09
  12 -17   4  -13.89   10.59
  12 -17   5   28.46   12.44
  12 -17   6   60.91   17.01
  12 -17   7   17.79   12.35
  12 -17   8  -21.53   13.74
  12 -17   9   27.24   13.63
  12 -17  10   25.07   14.35
  12 -17  11   11.10   12.41
  12 -17  12   36.09   15.95
  12 -17  13   62.09   17.32
 -12 -17 -14   60.18   15.70
 -12 -17 -15  151.61   23.71
 -12 -17 -16   -3.73    9.02
  17 -13  12   41.42   16.51
  17 -13  11   88.94   20.64
 -13 -17  11   86.56   17.09
  17 -13  10   -2.52   10.35
 -13 -17  10    1.07    7.15
  17 -13   9    3.49    9.96
 -13 -17   9    5.75    6.84
  17 -13   8   42.72   14.83
 -13 -17   8   25.77   10.84
  17 -13   7    9.93   10.50
 -13 -17   7   23.32   10.44
  17 -13   6   -3.62   10.18
 -13 -17   6   25.68   11.54
  17 -13   5    1.10    9.23
 -13 -17   5   23.10   10.28
  13 -17  -5    1.65    7.36
  17 -13   4  155.77   23.70
 -13 -17   4  224.62   27.86
  13 -17  -4  166.24   22.10
  17 -13   3   -1.27    9.48
  13 -17  -3   29.38   12.54
  17 -13   2   -3.49    8.94
  13 -17  -2   -0.36    7.59
  17 -13   1   66.51   15.14
  13 -17  -1   49.56   14.42
  17 -13   0   12.23    8.62
  13 -17   0  -17.93   10.09
  17 -13  -1   73.70   15.11
  13 -17   1   56.39   14.85
  13 -17   2   28.05   13.74
  13 -17   3   13.51   10.07
  13 -17   4  145.39   22.75
  13 -17   5    6.13    9.21
  13 -17   6   10.56   11.85
  13 -17   7   -9.06   12.03
  13 -17   8   34.07   14.68
  13 -17   9   19.58   13.58
  13 -17  10   -2.74   10.57
  13 -17  11   98.94   21.62
  17 -14  11   21.31   13.58
  17 -14  10   12.28   12.08
 -14 -17  10   59.54   14.92
  17 -14   9   -1.89   10.89
 -14 -17   9   23.01   10.86
  17 -14   8   -0.99    9.39
 -14 -17   8   32.09   12.20
  17 -14   7   52.40   15.78
 -14 -17   7   58.38   14.97
  17 -14   6   -5.59   10.31
 -14 -17   6   13.40   10.48
  17 -14   5   72.75   17.10
 -14 -17   5  116.59   20.41
  17 -14   4   30.14   13.38
  14 -17  -4   29.39   11.25
  17 -14   3   29.44   12.30
  14 -17  -3   35.80   12.12
  14 -17  -2   83.37   17.87
  17 -14   2   72.35   16.31
  14 -17  -1   -2.01    7.97
  17 -14   1    4.52    8.10
  14 -17   0  190.27   25.79
  17 -14   0  147.88   21.60
  14 -17   1   15.28   10.19
  14 -17   2   65.18   16.90
  14 -17   3    3.04    9.16
  14 -17   4   18.69    9.77
  14 -17   5  115.75   21.88
  14 -17   6    9.12   10.63
  14 -17   7   58.81   16.75
  14 -17   8   -2.27    8.72
  14 -17   9   -6.75   11.57
  14 -17  10   12.76   12.40
  17 -15   9   31.22   13.97
  17 -15   8   11.84   11.22
 -15 -17   8    6.66    8.75
  17 -15   7  114.00   23.42
 -15 -17   7  138.21   22.74
  17 -15   6   11.15   10.62
 -15 -17   6  -15.18   12.55
  17 -15   5   44.60   15.56
 -15 -17   5   66.11   16.24
  17 -15   4   16.17   10.32
  17 -15   3   52.32   15.79
  17 -15   2  -12.64   11.70
  15 -17  -2    3.48    9.43
  17 -15   1   53.53   14.21
  15 -17  -1   73.62   17.40
  15 -17   0    0.97    9.33
  17 -15   0   -7.25    9.73
  15 -17   1   31.85   11.92
  15 -17   2   29.97   13.34
  15 -17   3   19.50   10.69
  15 -17   4   14.16   10.35
  15 -17   5   48.59   16.45
  15 -17   6   -6.04   10.52
  15 -17   7   98.13   20.55
  15 -17   8   15.41   10.09
  17 -16   7   16.26   12.85
  17 -16   6    6.28    9.55
 -16 -17   6    2.51    7.70
  17 -16   5  -12.94   12.64
 -16 -17   5    6.13   11.31
  17 -16   4   29.25   11.74
  17 -16   3   30.02   12.65
  17 -16   2  163.90   25.03
  17 -16   1   16.14   11.57
  16 -17   0   26.56   11.51
  16 -17   1   11.31   11.04
  16 -17   2  159.64   25.02
  16 -17   3   87.52   20.25
  16 -17   4   38.39   14.71
  16 -17   5    1.99   10.18
  16 -17   6   10.07   10.34
  17 -17   2   24.33   11.92
  17 -17   3   18.47   12.33
  17 -17   4    1.14    8.33
  17 -17   5    2.34   10.57
   0 -18   0   -5.26    7.09
   0 -18   1   29.06   11.74
   0 -18  -1   15.74    7.92
   0 -18  -2  276.36   25.98
   0 -18   2  254.30   25.14
   0 -18  -3    8.76    7.55
   0 -18   3   19.18   10.27
   0 -18   4   -8.35    8.96
   0 -18  -4   -5.59    7.52
   0 -18   5   -0.93    8.77
   0 -18  -5    1.28    7.99
   0 -18  -6  157.69   20.31
   0 -18   6  187.54   22.80
   0 -18  -7   -3.32    7.26
   0 -18   7    0.32    7.65
   0 -18  -8   33.11   10.96
   0 -18   8   15.63    9.45
   0 -18  -9   -1.28    8.28
   0 -18   9   12.60    9.44
   0 -18 -10   86.28   15.23
   0 -18  10   86.26   16.31
   0 -18 -11   -4.08    7.60
   0 -18  11   -9.11    8.50
   0 -18 -12   21.73   11.16
   0 -18  12   22.03   11.31
   0 -18 -13    6.51    8.23
   0 -18  13   28.77   12.75
   0 -18 -14  432.84   32.64
   0 -18  14  448.44   38.38
   0 -18 -15    9.30    8.61
   0 -18  15   44.67   13.44
   0 -18  16   28.20   12.37
   0 -18  17   15.91   13.74
   0 -18  18  199.88   27.40
   0 -18  19   20.62   12.29
   0 -18  20   30.99   12.81
   0 -18  21    6.42    9.68
   0 -18  22    0.32    8.45
  -1 -18  22   11.38   10.88
  -1 -18  21    5.23    8.94
   1 -18 -20    0.47    6.13
  -1 -18  20   14.47   11.34
   1 -18 -19    2.83    5.89
  -1 -18  19   15.17   11.79
   1 -18 -18   24.18    9.35
  -1 -18  18   18.77   10.06
   1 -18 -17   84.27   15.57
  -1 -18  17   75.32   16.36
   1 -18 -16   -0.81    6.90
  -1 -18  16   -2.60    8.95
   1 -18 -15  183.75   21.38
  -1 -18  15  218.08   26.92
   1 -18 -14   14.08    7.90
  -1 -18  14   39.18   14.00
   1 -18 -13  134.05   18.65
  -1 -18  13  149.75   22.12
   1 -18 -12  104.17   16.86
  -1 -18  12  125.87   20.09
   1 -18 -11   15.28    8.58
  -1 -18  11   -3.45    8.69
   1 -18 -10   -6.04    6.77
  -1 -18  10  -14.62    8.67
   1 -18  -9   -2.21    6.12
  -1 -18   9   14.50   10.80
   1 -18  -8   17.26    9.45
  -1 -18   8    6.32    8.35
   1 -18  -7  141.84   19.09
  -1 -18   7  128.85   19.32
   1 -18  -6   -3.33    8.01
  -1 -18   6   20.27    9.46
  -1 -18   5  221.55   24.45
   1 -18  -5  182.31   21.02
  -1 -18   4   -0.66    6.87
   1 -18  -4    0.26    8.62
   1 -18  -3  289.32   26.50
  -1 -18   3  274.60   26.81
   1 -18  -2   32.06   11.24
  -1 -18   2   24.16    9.64
  -1 -18   1   77.10   14.99
   1 -18  -1   66.70   14.16
   1 -18   0  108.29   16.79
  -1 -18   0   99.56   15.98
  -1 -18  -1   38.26   11.62
   1 -18   1   61.48   13.28
   1 -18   2   41.60   13.20
  -1 -18  -2   23.79    9.99
  -1 -18  -3  309.19   27.53
   1 -18   3  307.20   28.09
  -1 -18  -4    6.15   10.02
   1 -18   4    7.01    9.74
  -1 -18  -5  170.65   21.16
   1 -18   5  183.13   21.75
  -1 -18  -6    6.28    6.43
   1 -18   6   16.95    9.81
  -1 -18  -7  122.21   18.51
   1 -18   7  130.08   19.41
  -1 -18  -8    1.51    6.61
   1 -18   8    6.05    7.15
  -1 -18  -9   33.32   11.49
   1 -18   9    1.95    8.45
  -1 -18 -10   14.78    8.31
   1 -18  10   -0.08    7.47
  -1 -18 -11   10.09    8.94
   1 -18  11    1.09    8.93
  -1 -18 -12   86.61   18.21
  -1 -18 -12   74.65   15.16
  -1 -18 -13  158.36   24.02
   1 -18  13  167.88   23.96
  -1 -18 -14   21.06   11.74
   1 -18  14   10.16   10.31
  -1 -18 -15  241.07   30.75
   1 -18  15  223.93   28.16
  -1 -18 -16   16.52   12.77
   1 -18  16   17.40   10.46
  -1 -18 -17   82.55   19.39
   1 -18  17   76.86   18.07
  -1 -18 -18   55.94   18.02
   1 -18  18    9.26    9.32
  -1 -18 -19  -17.38   12.66
   1 -18  19   13.99   10.13
  -1 -18 -20    5.08    9.79
   1 -18  20   14.72   10.71
  -1 -18 -21   22.87   13.57
   1 -18  21  -20.05   13.36
  -2 -18  23   20.77   12.58
  -2 -18  22   31.67   12.99
  -2 -18  21    5.92    9.52
  -2 -18  20   28.41   13.54
   2 -18 -19    6.66    7.53
  -2 -18  19   -2.45    9.17
   2 -18 -18   75.36   14.13
  -2 -18  18   63.07   15.98
   2 -18 -17   32.96   10.43
  -2 -18  17   44.33   14.23
   2 -18 -16   23.61   10.25
  -2 -18  16   33.18   13.60
   2 -18 -15   42.97   11.70
  -2 -18  15   65.83   16.33
   2 -18 -14   85.36   14.94
  -2 -18  14   85.69   17.22
   2 -18 -13    3.35    7.05
  -2 -18  13    4.91    7.95
   2 -18 -12  132.17   17.97
  -2 -18  12  114.41   18.89
   2 -18 -11   88.30   14.90
  -2 -18  11  108.77   18.76
   2 -18 -10   17.81    8.96
  -2 -18  10   10.88    8.97
   2 -18  -9    0.08    6.93
  -2 -18   9   -4.74    9.59
   2 -18  -8   12.29    8.89
  -2 -18   8   -5.68    8.86
  -2 -18   7    4.00    7.83
   2 -18  -7    0.02    7.14
   2 -18  -6  265.38   24.73
  -2 -18   6  268.33   26.43
  -2 -18   5  166.47   21.69
   2 -18  -5  127.26   18.26
   2 -18  -4   40.03   11.54
  -2 -18   4   65.58   14.27
  -2 -18   3   58.85   13.41
   2 -18  -3   45.32   12.41
   2 -18  -2   90.02   15.79
  -2 -18   2   70.79   14.26
  -2 -18   1   47.49   11.24
   2 -18  -1   30.87    9.64
   2 -18   0   47.71   11.79
  -2 -18   0   41.78   11.95
  -2 -18  -1   62.85   13.67
   2 -18   1   49.04   12.79
   2 -18   2   98.77   16.87
  -2 -18  -2   95.86   16.06
  -2 -18  -3   62.72   14.63
   2 -18   3   67.42   15.06
  -2 -18  -4   35.37   11.16
   2 -18   4   26.73    9.98
  -2 -18  -5  138.71   19.19
   2 -18   5  127.64   19.41
   2 -18   6  270.68   27.24
  -2 -18  -6  247.44   25.44
  -2 -18  -7   14.25    8.65
  -2 -18  -7    7.20    8.80
   2 -18   7   17.75   10.19
  -2 -18  -8    5.37    7.54
  -2 -18  -8    6.35    8.93
   2 -18   8  -10.10    9.61
  -2 -18  -9    7.50    8.44
  -2 -18  -9   11.21    9.32
   2 -18   9   -3.96   11.18
  -2 -18 -10   -3.37    8.67
   2 -18  10    8.56    8.95
  -2 -18 -11  100.75   18.60
   2 -18  11   90.08   17.42
  -2 -18 -12  168.34   23.99
   2 -18  12  117.84   20.27
  -2 -18 -13    1.97    8.49
   2 -18  13   -6.87    8.34
  -2 -18 -14   93.40   19.37
   2 -18  14  103.33   19.64
  -2 -18 -15   56.61   15.70
   2 -18  15   88.16   18.06
  -2 -18 -16   36.56   14.21
   2 -18  16   16.80   11.05
  -2 -18 -17   48.32   16.08
   2 -18  17   48.49   14.22
  -2 -18 -18  104.46   22.17
   2 -18  18   69.39   17.88
  -2 -18 -19   10.00   10.26
   2 -18  19  -10.01   12.32
  -2 -18 -20   54.45   19.52
   2 -18  20   68.45   18.77
  -2 -18 -21   38.86   16.07
  -3 -18  23   17.92   10.86
  -3 -18  22   29.13   13.12
  -3 -18  21   22.12   10.58
  -3 -18  20  173.56   24.98
  -3 -18  19   18.16    9.52
   3 -18 -18  116.51   17.80
  -3 -18  18  136.97   21.65
   3 -18 -17   21.09    7.91
  -3 -18  17   22.78   10.59
   3 -18 -16    5.58    6.80
  -3 -18  16    8.06    6.59
   3 -18 -15   72.79   13.95
  -3 -18  15   60.10   14.23
   3 -18 -14  -10.61    8.70
  -3 -18  14   -0.64    7.20
   3 -18 -13  143.22   18.84
  -3 -18  13  177.76   23.11
   3 -18 -12   14.54    7.97
  -3 -18  12   -2.85    8.00
   3 -18 -11  164.54   20.38
  -3 -18  11  195.91   23.76
   3 -18 -10   21.93    9.74
  -3 -18  10    7.98    9.57
  -3 -18   9   22.76   10.06
   3 -18  -9   10.17    8.60
  -3 -18   8  129.29   19.21
   3 -18  -8  115.89   17.53
  -3 -18   7   37.08   11.37
   3 -18  -7   32.45   10.72
   3 -18  -6  253.54   25.01
  -3 -18   6  273.91   26.39
  -3 -18   5   19.01    9.59
   3 -18  -5    0.52    8.03
  -3 -18   4   45.73   11.97
   3 -18  -4   33.79    9.84
  -3 -18   3   39.42   11.31
   3 -18  -3   36.93   10.85
   3 -18  -2    6.02    9.72
  -3 -18   2   -1.38    9.04
  -3 -18   1   90.69   15.57
   3 -18  -1   68.61   14.04
   3 -18   0   86.80   15.70
  -3 -18   0  113.05   17.81
  -3 -18  -1  108.98   17.54
   3 -18   1  104.57   17.28
  -3 -18  -2    4.94    9.68
   3 -18   2   -4.15    9.17
  -3 -18  -3   39.41   12.58
   3 -18   3   13.43    8.44
  -3 -18  -4   52.08   11.25
  -3 -18  -4   69.16   14.27
   3 -18   4   13.40   10.26
  -3 -18  -5    3.02    6.43
  -3 -18  -5    7.89    7.91
   3 -18   5   11.82    8.30
  -3 -18  -6  254.50   25.40
   3 -18   6  269.67   27.85
  -3 -18  -6  260.59   25.82
  -3 -18  -7   57.84   13.47
  -3 -18  -7   40.82   11.50
   3 -18   7   51.43   13.82
  -3 -18  -8  116.68   18.41
   3 -18   8   85.91   17.33
  -3 -18  -9   12.16    9.63
   3 -18   9   28.97   11.87
  -3 -18 -10   14.14   10.71
   3 -18  10    4.52    9.59
  -3 -18 -11  229.14   26.76
   3 -18  11  161.17   23.15
  -3 -18 -12    6.15    7.81
   3 -18  12    1.90    9.95
  -3 -18 -13  204.75   26.30
   3 -18  13  201.26   27.02
  -3 -18 -14    1.55    8.44
   3 -18  14   10.17    9.74
  -3 -18 -15   55.66   16.31
   3 -18  15   38.88   14.58
  -3 -18 -16   -2.15   10.66
   3 -18  16    3.86   10.30
  -3 -18 -17   15.88    9.68
   3 -18  17   23.61   12.13
  -3 -18 -18  119.37   22.94
   3 -18  18  108.05   21.56
  -3 -18 -19   38.69   15.78
   3 -18  19    3.75   10.94
  -3 -18 -20  182.95   28.40
   3 -18  20  158.67   25.93
  -3 -18 -21   -2.97    9.88
  -4 -18  23   39.65   13.43
  -4 -18  22   71.59   17.54
  -4 -18  21   16.95   10.12
  -4 -18  20  152.66   24.19
  -4 -18  19   22.06   10.92
  -4 -18  18    9.70    9.52
   4 -18 -17   60.82   12.74
  -4 -18  17   43.63   14.53
   4 -18 -16   -4.08    7.64
  -4 -18  16    9.59    9.96
   4 -18 -15   66.75   13.90
  -4 -18  15   72.67   16.79
   4 -18 -14  335.59   27.79
  -4 -18  14  289.83   29.72
   4 -18 -13   86.77   15.42
  -4 -18  13   53.25   13.85
   4 -18 -12  256.77   24.70
  -4 -18  12  259.32   27.62
   4 -18 -11   13.32    8.14
  -4 -18  11   22.00   10.24
   4 -18 -10  167.76   20.26
  -4 -18  10  172.64   22.78
   4 -18  -9   56.17   12.73
  -4 -18   9   65.82   14.71
  -4 -18   8  103.82   17.38
   4 -18  -8  117.56   17.55
   4 -18  -7    8.11    7.92
  -4 -18   7   25.68   10.50
  -4 -18   6  120.91   18.41
   4 -18  -6  131.89   18.56
   4 -18  -5   44.35   12.68
  -4 -18   5   66.03   14.75
   4 -18  -4   12.76    8.61
  -4 -18   4   41.41   12.11
  -4 -18   3  123.40   17.92
   4 -18  -3  111.62   16.78
   4 -18  -2  136.79   18.94
  -4 -18   2  154.15   20.74
  -4 -18   1   84.15   16.38
   4 -18  -1   73.25   15.49
  -4 -18   0  202.43   23.33
   4 -18   0  138.66   20.01
  -4 -18  -1   90.30   16.04
   4 -18   1   68.90   14.72
  -4 -18  -2  153.51   21.30
   4 -18   2  156.79   21.57
  -4 -18  -3  134.57   19.91
   4 -18   3  131.84   20.03
  -4 -18  -4   18.75    9.83
   4 -18   4   37.11   11.35
  -4 -18  -5   74.56   13.71
  -4 -18  -5   73.99   14.95
   4 -18   5   55.22   13.60
  -4 -18  -6  103.07   15.82
   4 -18   6   90.28   17.12
  -4 -18  -7    9.17    7.22
   4 -18   7   18.11   10.31
  -4 -18  -8  139.02   19.77
   4 -18   8   98.93   17.91
  -4 -18  -9   51.73   13.43
   4 -18   9   59.04   15.91
  -4 -18 -10  161.14   22.04
   4 -18  10  151.01   22.86
  -4 -18 -11   38.72   12.75
   4 -18  11   15.85   10.03
  -4 -18 -12  224.12   27.01
   4 -18  12  209.69   26.30
  -4 -18 -13   62.47   15.44
   4 -18  13   88.68   20.00
  -4 -18 -14  307.54   32.92
   4 -18  14  319.66   33.45
  -4 -18 -15   61.32   15.92
   4 -18  15   75.70   18.71
  -4 -18 -16  -15.13   13.95
   4 -18  16   26.50   11.09
  -4 -18 -17   68.77   18.58
   4 -18  17   95.19   21.33
  -4 -18 -18   19.72   11.71
   4 -18  18    2.78    9.94
  -4 -18 -19   26.66   12.52
   4 -18  19   27.54   12.40
  -4 -18 -20  129.92   24.78
  -5 -18  22   13.30   10.47
  -5 -18  21    4.24    7.77
  -5 -18  20   -6.84   10.18
  -5 -18  19   10.14    9.15
  -5 -18  18    5.69    8.06
  -5 -18  17   48.98   14.31
   5 -18 -16   62.58   12.99
  -5 -18  16   72.54   15.53
   5 -18 -15   26.18    9.28
  -5 -18  15   24.22   10.31
   5 -18 -14   75.39   14.00
  -5 -18  14   73.27   15.43
   5 -18 -13  433.00   31.97
  -5 -18  13  425.53   35.39
   5 -18 -12  180.34   21.30
  -5 -18  12  220.23   25.60
  -5 -18  11  407.64   34.07
   5 -18 -11  393.02   30.92
   5 -18 -10   47.20   12.12
  -5 -18  10   47.26   13.55
  -5 -18   9    1.69    6.45
   5 -18  -9   13.78    8.48
   5 -18  -8   20.83    9.53
  -5 -18   8   22.12    9.36
   5 -18  -7   15.04    8.33
  -5 -18   7   31.33   12.00
  -5 -18   6   78.30   16.33
   5 -18  -6   60.66   13.77
   5 -18  -5   32.31    9.69
  -5 -18   5   55.60   13.58
  -5 -18   4    7.48    7.19
   5 -18  -4   17.47    9.29
   5 -18  -3   -6.81    9.29
  -5 -18   3   11.42    7.52
  -5 -18   2   91.17   15.92
   5 -18  -2  118.80   18.71
  -5 -18   1  360.92   31.00
   5 -18  -1  379.77   31.64
   5 -18   0  396.92   32.67
  -5 -18   0  416.19   33.42
   5 -18   1  356.64   31.06
  -5 -18  -1  393.04   32.30
  -5 -18  -2  110.78   17.75
   5 -18   2   84.11   15.90
  -5 -18  -3   22.52   11.77
   5 -18   3    7.11    8.97
  -5 -18  -4   11.55    7.92
   5 -18   4    5.04    8.43
  -5 -18  -5   53.94   11.87
   5 -18   5   36.94   11.57
  -5 -18  -6   51.42   12.34
   5 -18   6   41.99   12.85
  -5 -18  -7   16.09    8.18
   5 -18   7   24.34   10.59
  -5 -18  -8    7.61    7.31
   5 -18   8   34.34   13.81
  -5 -18  -9   -6.94    8.41
   5 -18   9  -15.44   12.97
  -5 -18 -10   20.67    9.50
   5 -18  10   43.32   12.38
  -5 -18 -11  389.59   34.67
   5 -18  11  442.73   38.63
  -5 -18 -12  202.92   25.85
   5 -18  12  198.01   26.40
  -5 -18 -13  493.47   40.73
   5 -18  13  440.27   39.87
  -5 -18 -14  103.86   19.81
   5 -18  14   75.61   16.92
  -5 -18 -15   37.17   13.78
   5 -18  15   71.31   19.00
  -5 -18 -16   48.07   15.34
   5 -18  16   60.34   16.35
  -5 -18 -17   40.88   14.40
   5 -18  17   40.09   16.37
  -5 -18 -18    4.77   10.08
   5 -18  18  -14.66   11.06
  -5 -18 -19    5.00    8.64
  -5 -18 -20   20.97   13.33
  -6 -18  20  -10.30    9.35
  -6 -18  19   -1.94    7.14
  -6 -18  18   17.41    9.56
  -6 -18  17    2.38    8.47
  -6 -18  16   80.13   16.74
   6 -18 -15    3.94    6.59
  -6 -18  15  -11.11   10.93
   6 -18 -14    3.69    6.74
  -6 -18  14  -11.11    9.90
   6 -18 -13   25.83   10.79
  -6 -18  13   42.30   13.46
  -6 -18  12  831.16   49.42
   6 -18 -12  873.46   46.12
   6 -18 -11   40.27   11.26
  -6 -18  11   42.17   14.41
  -6 -18  10    7.07    9.88
   6 -18 -10  -10.95    8.55
  -6 -18   9   -7.98   10.55
   6 -18  -9    7.05    6.71
  -6 -18   8    4.24    8.54
   6 -18  -8    5.33    6.30
  -6 -18   7    7.85    9.10
   6 -18  -7   10.68    7.81
  -6 -18   6    4.91    7.53
   6 -18  -6    1.18    6.74
  -6 -18   5   15.50    8.37
   6 -18  -5   15.67    8.26
  -6 -18   4   96.44   16.49
   6 -18  -4   85.90   14.95
  -6 -18   3   11.06    9.39
   6 -18  -3   -2.13    6.51
  -6 -18   2    2.10    6.78
   6 -18  -2   11.17    8.08
  -6 -18   1   29.55   11.51
   6 -18  -1   31.06   12.51
   6 -18   0 1535.42   67.12
  -6 -18   0 1629.78   68.60
  -6 -18  -1   38.97   13.70
   6 -18   1   24.26   12.73
  -6 -18  -2   20.62   10.05
   6 -18   2    3.09    7.05
   6 -18   3    9.31    7.99
   6 -18   4  119.35   20.09
   6 -18   5   19.47   10.42
  -6 -18  -6   -2.73    6.79
   6 -18   6    2.15    8.02
  -6 -18  -7    8.71    8.87
   6 -18   7   26.18   12.34
  -6 -18  -8   -3.37    6.59
   6 -18   8    0.78    9.18
  -6 -18  -9    1.99    6.40
   6 -18   9   23.93   12.00
  -6 -18 -10   -3.00    6.61
   6 -18  10    9.56   11.67
  -6 -18 -11   58.42   15.69
   6 -18  11   22.86   11.59
  -6 -18 -12  867.05   53.01
   6 -18  12  923.70   57.81
  -6 -18 -13   55.66   15.69
   6 -18  13   33.40   13.90
  -6 -18 -14   19.70   11.58
   6 -18  14    7.44   10.61
  -6 -18 -15   11.61    9.70
   6 -18  15   12.53   12.03
  -6 -18 -16   76.35   17.72
   6 -18  16   98.79   20.35
  -6 -18 -17    7.31    9.74
   6 -18  17   -6.28   11.27
  -6 -18 -18   11.85    8.86
  -6 -18 -19    6.85   11.18
  -6 -18 -20    7.80    9.10
  -7 -18  19   12.84    8.24
  -7 -18  18   24.74   10.02
  -7 -18  17   98.46   18.57
  -7 -18  16   19.72   10.17
  -7 -18  15   21.47   11.48
  -7 -18  14   60.48   13.96
   7 -18 -13  222.13   22.94
  -7 -18  13  240.84   26.85
  -7 -18  12   74.51   15.92
   7 -18 -12   68.94   13.82
  -7 -18  11  198.94   23.63
   7 -18 -11  206.21   22.20
  -7 -18  10   33.08   10.94
   7 -18 -10   15.67    7.91
  -7 -18   9   20.81    9.90
   7 -18  -9   26.48    9.04
  -7 -18   8    9.50    8.14
   7 -18  -8    5.82    7.88
  -7 -18   7   19.29    9.01
   7 -18  -7   -6.94    8.53
  -7 -18   6   16.77    9.15
   7 -18  -6    3.24    7.50
  -7 -18   5  130.08   19.85
   7 -18  -5  121.11   18.17
  -7 -18   4   24.32    9.38
   7 -18  -4   22.04    9.35
  -7 -18   3   -3.11    6.33
   7 -18  -3  -10.51    8.14
  -7 -18   2  107.39   18.47
   7 -18  -2   74.43   15.39
  -7 -18   1  462.51   35.66
   7 -18  -1  422.19   34.34
  -7 -18   0  132.43   20.38
   7 -18   0  152.54   21.40
  -7 -18  -1  455.94   35.59
   7 -18   1  421.03   34.60
   7 -18   2   78.58   16.00
   7 -18   3    4.19    8.36
   7 -18   4   52.66   13.89
   7 -18   5  121.40   19.55
  -7 -18  -6   10.35    6.81
   7 -18   6   10.07    9.97
  -7 -18  -7    5.84    6.27
   7 -18   7    0.67    9.21
  -7 -18  -8    0.87    6.38
   7 -18   8   -0.34   10.55
  -7 -18  -9   -1.49    7.54
   7 -18   9   22.15   12.78
  -7 -18 -10   24.07   10.23
   7 -18  10   46.75   14.94
  -7 -18 -11  226.36   26.35
   7 -18  11  230.33   29.41
  -7 -18 -12   88.12   17.96
   7 -18  12   58.14   16.64
  -7 -18 -13  254.05   28.73
   7 -18  13  268.35   32.22
  -7 -18 -14   53.88   14.90
   7 -18  14   47.05   15.32
  -7 -18 -15    3.26    8.99
   7 -18  15   -8.23   11.19
  -7 -18 -16   10.28    7.84
   7 -18  16   26.26   12.16
  -7 -18 -17   46.87   15.86
  -7 -18 -18   18.40   10.65
  -7 -18 -19    8.35   11.09
  -8 -18  18   17.96    9.81
  -8 -18  17   20.01   10.89
  -8 -18  16   12.08    7.71
  -8 -18  15   28.58   10.98
  -8 -18  14  103.41   18.31
  -8 -18  13   20.34   10.54
  -8 -18  12  197.83   24.32
   8 -18 -12  213.62   22.61
  -8 -18  11   26.94   11.70
   8 -18 -11   -2.71    7.36
  -8 -18  10   68.03   15.12
   8 -18 -10   65.28   12.99
  -8 -18   9   17.86    9.98
   8 -18  -9   25.91    9.50
  -8 -18   8   59.49   14.05
   8 -18  -8   57.86   11.18
  -8 -18   7   -6.01    9.34
   8 -18  -7   -9.46    8.59
  -8 -18   6   54.04   13.17
   8 -18  -6   26.62   10.06
  -8 -18   5  102.50   17.52
   8 -18  -5   70.54   14.01
  -8 -18   4   15.44    9.80
   8 -18  -4   12.15    9.02
  -8 -18   3   80.77   16.39
   8 -18  -3  104.66   18.03
  -8 -18   2  274.11   27.96
   8 -18  -2  197.73   24.37
  -8 -18   1    8.14    9.70
   8 -18  -1   25.38   11.38
  -8 -18   0  197.85   24.55
   8 -18   0  202.29   24.65
   8 -18   1   -0.98    8.12
   8 -18   2  250.34   27.27
   8 -18   3   83.15   18.64
   8 -18   4   29.14   10.97
   8 -18   5   91.24   18.62
   8 -18   6   54.54   15.58
  -8 -18  -7    7.67    6.91
   8 -18   7    9.49   10.93
  -8 -18  -8   71.31   14.56
   8 -18   8   58.51   16.91
  -8 -18  -9   43.26   12.22
   8 -18   9   58.78   15.72
  -8 -18 -10   91.71   17.03
   8 -18  10  123.87   22.64
  -8 -18 -11   15.46    9.37
   8 -18  11   -9.97   12.41
  -8 -18 -12  192.91   24.82
   8 -18  12  244.11   31.12
  -8 -18 -13   20.81   11.64
   8 -18  13  -16.17   12.44
  -8 -18 -14   79.18   17.34
   8 -18  14   82.43   20.35
  -8 -18 -15   23.02   10.69
   8 -18  15   44.47   17.10
  -8 -18 -16   -5.09    8.78
  -8 -18 -17   35.82   14.51
  -8 -18 -18   32.09   12.44
  -8 -18 -19  -24.26   14.10
  -9 -18  17    0.11    8.22
  -9 -18  16   17.54   11.01
  -9 -18  15   66.51   15.17
  -9 -18  14   25.23   10.87
  -9 -18  13  124.77   19.84
  -9 -18  12   -9.26    8.94
  -9 -18  11  124.26   19.85
  -9 -18  10  -11.64    9.49
   9 -18 -10    6.34    7.84
  -9 -18   9   -3.77    8.29
   9 -18  -9   -6.23    7.99
  -9 -18   8   98.00   17.90
   9 -18  -8   94.48   15.98
  18  -9   7    8.09    9.94
   9 -18  -7   -9.07    8.57
  18  -9   6  253.42   27.90
  -9 -18   6  214.31   25.76
   9 -18  -6  229.85   24.54
  -9 -18   5   14.93    8.69
   9 -18  -5   28.78   10.89
  18  -9   4   39.99   12.34
  -9 -18   4   67.64   15.02
   9 -18  -4   57.92   13.52
  18  -9   3   68.95   15.06
  -9 -18   3   66.90   14.85
   9 -18  -3   64.13   14.45
  18  -9   2   27.08   10.83
  -9 -18   2    9.67   11.98
   9 -18  -2   13.47   10.07
  18  -9   1  248.30   25.15
  -9 -18   1  242.54   27.34
   9 -18  -1  234.24   26.30
   9 -18   0   -7.36    8.40
   9 -18   1  275.71   29.21
   9 -18   2    9.84   10.19
   9 -18   3   69.16   16.60
   9 -18   4   75.73   16.28
   9 -18   5   29.40   11.49
   9 -18   6  247.07   28.92
   9 -18   7   23.06   12.87
  -9 -18  -8  105.19   17.40
   9 -18   8  132.97   23.12
  -9 -18  -9  -23.10   10.93
   9 -18   9    2.08   10.10
  -9 -18 -10   -3.44    6.71
   9 -18  10  -25.52   14.24
  -9 -18 -11   78.14   16.30
   9 -18  11   68.15   17.38
  -9 -18 -12   -2.98    8.18
   9 -18  12   26.08   13.47
  -9 -18 -13  133.76   21.30
   9 -18  13  178.80   28.27
  -9 -18 -14   -1.31    9.25
   9 -18  14   33.81   16.33
  -9 -18 -15   55.85   16.27
  -9 -18 -16   12.26    9.58
  -9 -18 -17   -2.95    9.00
  -9 -18 -18  105.26   20.44
 -10 -18  15   23.46    9.85
 -10 -18  14   62.77   14.27
 -10 -18  13   18.41   10.09
  18 -10  12  188.51   26.88
 -10 -18  12  152.91   21.47
  18 -10  11   14.96   10.69
 -10 -18  11   18.67    9.14
  18 -10  10    1.69    9.94
 -10 -18  10   -9.67    7.67
  18 -10   9   80.04   17.91
 -10 -18   9   71.20   15.41
  10 -18  -9   74.33   14.72
  18 -10   8    2.71    8.47
 -10 -18   8   -0.49    7.38
  10 -18  -8    9.59    6.74
  18 -10   7   36.86   13.65
 -10 -18   7   14.40    9.71
  10 -18  -7   23.53   10.09
  18 -10   6   76.00   16.92
 -10 -18   6   91.66   17.61
  10 -18  -6   67.08   14.46
  18 -10   5   49.02   14.10
 -10 -18   5   65.12   16.11
  10 -18  -5   49.38   12.41
  18 -10   4   70.56   15.43
 -10 -18   4   60.10   15.59
  10 -18  -4   78.84   16.47
  18 -10   3   72.48   14.88
 -10 -18   3   74.38   15.99
  10 -18  -3   95.04   19.13
  18 -10   2   32.72   12.27
 -10 -18   2   57.92   16.21
  10 -18  -2   36.67   13.01
  18 -10   1   -3.45    7.07
  10 -18  -1   29.58   11.52
  18 -10   0  174.03   21.01
  10 -18   0  205.56   25.19
  10 -18   1   21.61   12.09
  10 -18   2   43.11   14.02
  10 -18   3   52.63   14.45
  10 -18   4   75.40   17.57
  10 -18   5   42.41   13.55
  10 -18   6   84.03   17.86
  10 -18   7   15.13    9.75
  10 -18   8    7.76    8.90
 -10 -18  -9   31.76   10.64
  10 -18   9   73.94   17.37
 -10 -18 -10    7.16    8.91
  10 -18  10  -11.37   10.48
  10 -18  11   19.26   12.69
 -10 -18 -11    6.08    8.06
  10 -18  12  119.71   24.54
 -10 -18 -12  133.80   21.39
  10 -18  13   22.13   14.21
 -10 -18 -13   21.50   10.54
 -10 -18 -14   86.00   18.44
 -10 -18 -15   44.98   14.15
 -10 -18 -16    2.83    9.07
 -10 -18 -17    1.07    9.07
 -11 -18  14   45.28   13.05
  18 -11  13  193.05   27.91
 -11 -18  13  128.32   20.23
  18 -11  12   63.18   15.92
 -11 -18  12   60.51   14.98
  18 -11  11   18.72   13.85
 -11 -18  11   32.97   12.35
  18 -11  10   48.75   15.24
 -11 -18  10   32.94   11.35
  18 -11   9   50.92   15.70
 -11 -18   9   16.72    8.99
  18 -11   8    8.27    9.18
 -11 -18   8   -4.25    9.47
  11 -18  -8    6.00    8.24
  18 -11   7   57.97   16.14
 -11 -18   7   79.38   16.33
  11 -18  -7   51.55   11.88
  18 -11   6    3.63    9.40
 -11 -18   6   -4.90    9.93
  11 -18  -6   10.41    9.17
  18 -11   5  100.81   18.83
 -11 -18   5  111.40   19.66
  11 -18  -5  105.75   18.07
  18 -11   4   12.59    9.15
 -11 -18   4    5.05    7.15
  11 -18  -4    6.14    8.25
  18 -11   3  167.65   22.96
 -11 -18   3  217.97   26.41
  11 -18  -3  140.20   21.12
  18 -11   2   71.89   15.64
 -11 -18   2   95.75   18.95
  11 -18  -2   89.02   17.27
  18 -11   1   35.67   11.84
  11 -18  -1   17.10   11.70
  18 -11   0   21.99   10.34
  11 -18   0    0.18    7.12
  11 -18   1   47.04   13.77
  11 -18   2   75.72   15.64
  11 -18   3  156.93   24.25
  11 -18   4    2.24    9.17
  11 -18   5  117.06   21.16
  11 -18   6    2.91   10.11
  11 -18   7   39.18   14.38
  11 -18   8    8.40   12.17
  11 -18   9   17.00   11.20
 -11 -18  -9   31.19   12.34
  11 -18  10    7.56   10.75
 -11 -18 -10   40.81   12.22
  11 -18  11   86.52   21.36
 -11 -18 -11   30.23   12.93
  11 -18  12   48.65   17.07
 -11 -18 -12   23.48   11.15
 -11 -18 -13  108.42   19.49
 -11 -18 -14   34.01   13.14
 -11 -18 -15   86.84   18.52
 -11 -18 -16   -1.84    7.41
  18 -12  12    5.97   10.97
 -12 -18  12   -3.23    8.12
  18 -12  11    7.57    9.88
 -12 -18  11   -1.14    8.54
  18 -12  10   40.82   15.25
 -12 -18  10   73.43   16.14
  18 -12   9    7.03    9.38
 -12 -18   9   22.88   11.58
  18 -12   8   -9.07    9.45
 -12 -18   8    5.18    7.67
  18 -12   7   -0.32    8.37
 -12 -18   7   11.11    9.26
  18 -12   6  128.06   21.47
 -12 -18   6  157.06   23.24
  12 -18  -6  161.29   22.22
  18 -12   5    7.00    9.05
 -12 -18   5   21.08   11.99
  12 -18  -5   -3.60    6.32
  18 -12   4    5.97    9.17
 -12 -18   4   -3.73    9.05
  12 -18  -4    2.71    7.73
 -12 -18   3    6.37   10.24
  12 -18  -3    2.41    7.28
  18 -12   2  109.04   20.09
  12 -18  -2  105.62   18.62
  18 -12   1   21.81   10.29
  12 -18  -1    5.01    8.46
  18 -12   0    6.15    8.16
  12 -18   0  -13.81   11.50
  12 -18   1  -10.31    9.57
  12 -18   2  121.49   20.86
  12 -18   3    9.89   11.31
  12 -18   4   16.32   11.63
  12 -18   5  -29.31   13.34
  12 -18   6  141.83   25.28
  12 -18   7   -4.41   10.93
  12 -18   8    5.72    8.58
  12 -18   9   26.64   13.31
  12 -18  10   16.49   10.25
 -12 -18 -10   49.21   13.82
 -12 -18 -11   13.49   10.35
 -12 -18 -12    1.12    8.72
 -12 -18 -13  -15.01    9.59
 -12 -18 -14  162.02   24.40
 -12 -18 -15    7.40    9.69
  18 -13  11   25.35   13.23
 -13 -18  11   18.55   10.77
  18 -13  10   28.96   15.04
 -13 -18  10   -7.53    9.74
  18 -13   9   48.12   14.85
 -13 -18   9   40.27   14.37
  18 -13   8   15.06   12.16
 -13 -18   8  -26.30   13.74
  18 -13   7   33.41   12.90
 -13 -18   7   55.59   16.17
  18 -13   6   -3.05    8.70
 -13 -18   6    4.74    9.31
  18 -13   5   38.27   14.21
 -13 -18   5   76.83   17.33
  13 -18  -5   78.02   16.62
  18 -13   4   12.92   10.86
 -13 -18   4   -6.93    8.61
  13 -18  -4    8.76    8.41
  18 -13   3   95.79   18.63
 -13 -18   3   70.77   17.07
  13 -18  -3   62.76   15.74
  18 -13   2   -0.62    8.38
  13 -18  -2   -3.31    8.21
  18 -13   1   21.73   11.13
  13 -18  -1   20.17   10.83
  13 -18   0    6.66    9.75
  13 -18   1   24.16   11.57
  13 -18   2  -19.04   11.42
  13 -18   3   90.54   19.70
  13 -18   4  -13.60   11.36
  13 -18   5   60.70   16.10
  13 -18   6   21.65   11.88
  13 -18   7   35.58   13.93
  13 -18   8   16.73   12.30
  13 -18   9   62.18   18.85
 -13 -18 -13   69.59   17.68
 -13 -18 -14    6.35    8.27
  18 -14   9   51.39   17.71
 -14 -18   9   28.31   13.53
  18 -14   8   12.09   10.72
 -14 -18   8   13.07   10.88
  18 -14   7  -31.31   14.33
 -14 -18   7   -9.25   11.20
  18 -14   6   58.66   16.39
 -14 -18   6  101.95   19.80
  18 -14   5   14.86   10.37
 -14 -18   5   31.90   12.28
  18 -14   4   -0.54    9.56
 -14 -18   4    0.89   10.81
  18 -14   3   35.69   13.41
  14 -18  -3   42.88   13.33
  18 -14   2   29.68   11.44
  14 -18  -2   57.61   15.96
  14 -18  -1    5.00    8.14
  14 -18   0   74.75   16.77
  14 -18   1    1.74    9.12
  14 -18   2   30.57   12.95
  14 -18   3   39.87   14.72
  14 -18   4   16.04   10.96
  14 -18   5   24.09   13.47
  14 -18   6   60.67   16.93
  14 -18   7   -8.86   10.88
 -15 -18   8   76.38   17.87
  18 -15   7   19.61   13.03
 -15 -18   7    6.97    9.28
  18 -15   6   35.11   13.30
 -15 -18   6  101.42   20.97
  18 -15   5  -39.30   15.16
 -15 -18   5   -7.81   11.31
  18 -15   4   13.03   10.50
 -15 -18   4   31.72   12.81
  18 -15   3   12.41    9.82
  18 -15   2   -4.66   10.29
  15 -18  -1   70.24   17.19
  15 -18   0    6.20    9.03
  15 -18   1   57.93   16.73
  15 -18   2    3.09    8.49
  15 -18   3   22.48   13.17
  15 -18   4   25.71   13.18
  15 -18   5   -5.87   10.14
  15 -18   6   25.38   13.62
 -16 -18   6   11.37    9.67
  18 -16   5  -21.86   13.04
  18 -16   4   -2.44    9.25
  18 -16   3   33.58   14.02
  16 -18   1    9.55   10.12
  16 -18   2   90.53   19.85
  16 -18   3   24.01   13.46
  16 -18   4    0.09    8.58
   0 -19   0  212.50   23.68
   0 -19  -1  110.28   17.62
   0 -19   1  125.78   19.41
   0 -19   2    1.53    7.80
   0 -19  -2   17.09   11.37
   0 -19   3  123.75   19.07
   0 -19  -3  111.74   18.42
   0 -19  -4    1.88    9.39
   0 -19   4   18.10    9.03
   0 -19  -5   66.32   14.42
   0 -19   5   83.49   16.25
   0 -19  -6   10.09    7.56
   0 -19   6    0.45    8.26
   0 -19  -7  116.82   17.90
   0 -19   7  116.04   19.06
   0 -19  -8   -6.28    7.14
   0 -19   8   -7.07    8.60
   0 -19  -9    1.91    6.38
   0 -19   9   -1.68    8.96
   0 -19 -10    2.46    6.90
   0 -19  10   33.31   13.26
   0 -19 -11   10.03    8.65
   0 -19  11    5.34    9.27
   0 -19 -12   42.85   12.37
   0 -19  12   71.78   17.13
   0 -19 -13   81.57   15.52
   0 -19  13   61.11   17.13
   0 -19 -14   -1.39    8.78
   0 -19  14   32.09   14.62
   0 -19 -15  299.29   28.00
   0 -19  15  262.58   30.47
   0 -19 -16   14.83    8.79
   0 -19  16    4.77    8.82
   0 -19 -17   68.54   14.55
   0 -19  17   62.05   17.48
   0 -19 -18    9.84    7.86
   0 -19  18   -5.63    9.77
   0 -19 -19    6.43    7.42
   0 -19  19   17.54    9.55
   0 -19 -20   -7.30    8.80
   0 -19 -21   -1.15    7.13
   1 -19 -20   -1.23    6.56
   1 -19 -19    1.20    6.79
  -1 -19  19   11.86   10.36
   1 -19 -18   28.88   10.43
  -1 -19  18   33.92   12.48
   1 -19 -17   16.83    9.24
  -1 -19  17    9.40    8.60
   1 -19 -16  201.32   23.23
  -1 -19  16  184.45   25.84
   1 -19 -15   61.10   13.58
  -1 -19  15   59.90   16.55
   1 -19 -14    7.74    6.94
  -1 -19  14   13.87   10.65
   1 -19 -13   76.03   14.91
  -1 -19  13   75.41   16.74
   1 -19 -12   34.36   10.68
  -1 -19  12   39.50   12.55
   1 -19 -11   43.58   11.90
  -1 -19  11   63.42   14.82
   1 -19 -10   -0.71    8.95
  -1 -19  10    9.38    9.41
   1 -19  -9  -12.95    9.99
  -1 -19   9    1.29    7.53
   1 -19  -8   43.61   12.66
  -1 -19   8   67.73   15.45
   1 -19  -7   15.76    8.98
  -1 -19   7   38.68   13.67
  -1 -19   6   -1.77    7.10
   1 -19  -6   -4.52    9.27
  -1 -19   5    4.71    8.07
   1 -19  -5   14.20    9.15
   1 -19  -4  299.60   27.52
  -1 -19   4  272.27   27.20
   1 -19  -3   17.37   10.13
  -1 -19   3   11.68    9.89
   1 -19  -2   26.87   10.71
  -1 -19   2   32.15   11.36
  -1 -19   1  119.80   18.89
   1 -19  -1  129.07   19.53
  -1 -19   0   56.41   13.58
   1 -19   0   44.70   12.59
   1 -19   1  151.41   20.37
  -1 -19  -1  127.71   18.53
   1 -19   2   54.95   13.65
  -1 -19  -2   46.67   12.63
   1 -19   3   16.75    9.24
  -1 -19  -3   14.10    8.70
   1 -19   4  312.75   29.69
  -1 -19  -4  288.91   27.65
  -1 -19  -5   18.13    9.80
   1 -19   5    3.44    8.08
  -1 -19  -6    9.65    9.38
   1 -19   6   19.26   10.02
  -1 -19  -7   34.78   11.99
   1 -19   7   42.22   13.20
  -1 -19  -8   62.81   13.69
   1 -19   8   56.33   13.70
  -1 -19  -9    5.79    8.38
   1 -19   9   12.51    8.88
  -1 -19 -10   20.29    9.20
   1 -19  10    0.96    9.26
  -1 -19 -11   62.69   14.12
   1 -19  11   47.48   13.07
  -1 -19 -12   51.51   13.39
   1 -19  12   57.85   14.77
  -1 -19 -13  103.82   17.69
   1 -19  13   88.66   18.87
  -1 -19 -14   21.83   10.72
   1 -19  14    8.75    8.64
  -1 -19 -15   51.37   14.13
   1 -19  15   80.48   17.99
   1 -19  16  154.52   24.61
   1 -19  17   36.25   13.68
   1 -19  18    8.99    8.49
  -2 -19  20   -8.21   10.50
   2 -19 -19   62.98   13.74
  -2 -19  19   41.99   14.06
   2 -19 -18   40.09   12.60
  -2 -19  18   39.86   15.67
   2 -19 -17   34.45   10.82
  -2 -19  17   46.64   15.43
   2 -19 -16   55.21   13.85
  -2 -19  16   70.76   17.20
   2 -19 -15   36.34   11.23
  -2 -19  15   29.55   11.88
   2 -19 -14   81.49   15.49
  -2 -19  14   44.99   12.97
   2 -19 -13   10.19    7.99
  -2 -19  13   -5.66    8.82
   2 -19 -12   58.32   13.19
  -2 -19  12   41.83   12.30
   2 -19 -11  106.73   17.77
  -2 -19  11  107.07   18.92
   2 -19 -10   74.37   14.79
  -2 -19  10   75.04   15.86
   2 -19  -9   54.14   12.99
  -2 -19   9   51.92   13.40
  -2 -19   8   47.45   14.65
   2 -19  -8   41.92   13.20
  -2 -19   7   60.99   14.85
   2 -19  -7   58.91   13.28
   2 -19  -6   51.14   12.71
  -2 -19   6   24.61   10.32
   2 -19  -5  193.01   22.78
  -2 -19   5  229.42   25.37
   2 -19  -4  110.65   17.38
  -2 -19   4  106.87   18.35
  -2 -19   3   75.53   16.34
   2 -19  -3   40.33   11.67
  -2 -19   2  150.15   20.60
   2 -19  -2  131.08   19.06
   2 -19  -1   -2.17    6.88
  -2 -19   1    8.51    9.65
   2 -19   0   83.84   15.12
  -2 -19   0   63.61   13.60
   2 -19   1   13.75   10.30
  -2 -19  -1   -3.88    8.88
  -2 -19  -2  138.03   19.07
   2 -19   2  127.54   19.12
  -2 -19  -3   58.40   13.77
   2 -19   3   58.20   14.85
  -2 -19  -4  107.75   18.04
   2 -19   4  118.66   19.47
   2 -19   5  256.50   27.68
  -2 -19  -5  210.51   24.19
  -2 -19  -6   36.95   11.64
   2 -19   6   44.66   12.96
  -2 -19  -7   57.16   14.45
   2 -19   7   72.99   16.21
  -2 -19  -8   31.83   12.36
   2 -19   8   45.74   14.09
  -2 -19  -9   44.24   13.49
   2 -19   9   43.12   12.83
  -2 -19 -10   64.99   15.29
  -2 -19 -10   55.16   13.36
   2 -19  10   47.68   12.97
  -2 -19 -11   61.73   16.03
  -2 -19 -11   93.92   17.39
   2 -19  11   71.69   16.73
  -2 -19 -12   65.56   16.30
  -2 -19 -12   78.76   15.28
   2 -19  12   64.89   16.65
  -2 -19 -13    3.39    7.87
   2 -19  13  -17.15   12.35
  -2 -19 -14   13.71   11.43
   2 -19  14   54.50   14.57
  -2 -19 -15   13.35   12.37
   2 -19  15   22.32   12.84
  -2 -19 -16   34.45   15.40
   2 -19  16   44.39   15.53
  -2 -19 -17   34.51   16.72
   2 -19  17   56.39   16.57
  -2 -19 -18   36.24   16.30
   2 -19  18   28.33   13.75
  -2 -19 -19   76.57   20.08
  -2 -19 -20   32.80   15.32
  -3 -19  20    8.83    7.50
  -3 -19  19   68.81   16.31
   3 -19 -18    8.38    7.45
  -3 -19  18   16.88   10.05
   3 -19 -17    9.16    7.38
  -3 -19  17   16.17    9.64
   3 -19 -16   21.09   10.06
  -3 -19  16   18.21   12.05
   3 -19 -15   26.65   10.13
  -3 -19  15   19.14   10.33
   3 -19 -14    5.48    7.04
  -3 -19  14   36.23   13.77
   3 -19 -13   95.76   16.23
  -3 -19  13   54.68   15.34
   3 -19 -12   17.79    9.36
  -3 -19  12   32.70   12.06
   3 -19 -11   73.89   15.11
  -3 -19  11   60.74   15.32
   3 -19 -10  176.90   21.68
  -3 -19  10  187.28   23.85
   3 -19  -9   38.55   11.22
  -3 -19   9   40.17   12.59
  -3 -19   8   45.75   13.90
   3 -19  -8   47.42   12.34
   3 -19  -7  222.68   23.94
  -3 -19   7  246.57   26.92
   3 -19  -6   52.22   13.24
  -3 -19   6   34.07   11.22
  -3 -19   5  111.40   18.45
   3 -19  -5   57.57   12.99
  -3 -19   4   45.95   12.86
   3 -19  -4   28.42   10.80
  -3 -19   3  109.63   18.31
   3 -19  -3   97.71   16.59
   3 -19  -2   28.58    8.82
  -3 -19   2   33.16   12.18
   3 -19  -1   47.66   13.39
  -3 -19   1   44.02   11.68
  -3 -19   0    9.62    6.41
   3 -19   0    9.37    9.13
   3 -19   1   48.07   12.70
  -3 -19  -1   62.84   15.06
  -3 -19  -2   22.24   11.93
   3 -19   2    6.19    8.76
  -3 -19  -3  102.79   17.87
   3 -19   3  123.76   19.85
  -3 -19  -4   33.63   12.25
   3 -19   4   53.12   13.09
  -3 -19  -5   93.26   16.92
   3 -19   5  107.44   19.19
  -3 -19  -6   48.97   14.76
   3 -19   6   53.35   14.69
  -3 -19  -7  169.41   24.87
  -3 -19  -7  290.60   28.32
   3 -19   7  242.48   27.50
  -3 -19  -8   41.03   13.58
  -3 -19  -8   85.67   16.68
   3 -19   8   72.66   15.51
  -3 -19  -9   17.53    8.62
  -3 -19  -9   14.98   10.93
   3 -19   9   15.98   10.99
  -3 -19 -10  143.87   21.70
   3 -19  10  170.89   23.95
  -3 -19 -11   27.41   10.96
   3 -19  11   47.60   15.57
  -3 -19 -12   24.15   11.07
   3 -19  12   23.36   11.26
  -3 -19 -13   60.37   15.59
   3 -19  13   81.69   17.95
  -3 -19 -14   22.62   10.90
   3 -19  14   30.40   13.18
  -3 -19 -15   36.26   14.22
   3 -19  15   22.57   12.33
  -3 -19 -16   20.31   10.41
   3 -19  16    0.24    9.02
  -3 -19 -17    0.40    7.19
   3 -19  17  -14.71   11.96
  -3 -19 -18   22.64   11.40
  -3 -19 -19   65.19   19.15
  -4 -19  20   -4.92   10.11
  -4 -19  19   17.36   10.76
  -4 -19  18   25.77   11.45
  -4 -19  17    8.96    9.12
   4 -19 -16   51.74   13.40
  -4 -19  16    5.65    8.17
   4 -19 -15   36.72   10.95
  -4 -19  15   63.84   15.21
   4 -19 -14   39.42   11.19
  -4 -19  14   38.05   12.53
   4 -19 -13   10.31    8.20
  -4 -19  13   26.48    9.82
   4 -19 -12  169.59   20.98
  -4 -19  12  153.60   22.01
   4 -19 -11   29.89   10.34
  -4 -19  11   20.17   10.82
   4 -19 -10   51.36   13.87
  -4 -19  10   40.03   12.95
  -4 -19   9  230.09   26.49
   4 -19  -9  217.43   24.06
  -4 -19   8    0.46    8.53
   4 -19  -8   10.39    8.30
   4 -19  -7  123.13   18.18
  -4 -19   7   95.79   17.28
   4 -19  -6   21.15   10.24
  -4 -19   6    6.25    8.19
  -4 -19   5   25.05   10.47
   4 -19  -5   17.60    9.91
  -4 -19   4  124.46   18.58
   4 -19  -4  119.54   18.45
   4 -19  -3  168.08   21.17
  -4 -19   3  182.98   22.81
  -4 -19   2   97.58   16.92
   4 -19  -2   97.99   16.54
   4 -19  -1   15.92    8.87
  -4 -19   1   11.89    8.87
  -4 -19   0   54.02   13.47
   4 -19   0   45.94   13.56
  -4 -19  -1    0.87    8.08
   4 -19   1    2.44    8.61
  -4 -19  -2  120.94   19.40
   4 -19   2  125.41   19.46
  -4 -19  -3  165.55   21.85
   4 -19   3  145.62   21.36
  -4 -19  -4  156.45   21.18
   4 -19   4  170.44   23.00
  -4 -19  -5   29.24   14.27
   4 -19   5   29.40   12.54
  -4 -19  -6   23.87   10.94
   4 -19   6    4.63    8.81
  -4 -19  -7   91.26   18.13
   4 -19   7   75.51   17.80
  -4 -19  -8   24.53   10.43
   4 -19   8    9.42    7.85
  -4 -19  -9  267.35   28.05
   4 -19   9  233.70   28.34
  -4 -19 -10   37.86   12.53
   4 -19  10   19.35   10.97
  -4 -19 -11   -2.24   10.80
   4 -19  11   11.61   10.33
  -4 -19 -12  193.57   25.83
   4 -19  12  180.33   25.84
  -4 -19 -13   23.17   11.30
   4 -19  13   17.74   12.53
  -4 -19 -14   42.55   14.63
   4 -19  14   60.97   17.30
  -4 -19 -15   48.99   14.94
   4 -19  15   27.07   15.02
  -4 -19 -16   76.60   19.31
   4 -19  16   24.92   12.02
  -4 -19 -17   -2.28    9.79
  -4 -19 -18   15.46   11.58
  -4 -19 -19   30.95   12.84
  -5 -19  20   -3.61    9.57
  -5 -19  19   30.77   13.14
  -5 -19  18   38.26   14.39
  -5 -19  17   12.05    9.32
  -5 -19  16  -18.77   12.03
   5 -19 -15   55.52   12.85
  -5 -19  15  109.07   19.87
   5 -19 -14   32.23   10.32
  -5 -19  14   31.28   10.64
   5 -19 -13  217.86   23.52
  -5 -19  13  239.83   27.53
   5 -19 -12   27.78   10.49
  -5 -19  12   29.21   12.27
   5 -19 -11  131.26   19.08
  -5 -19  11  147.18   22.36
  -5 -19  10  295.95   30.00
   5 -19 -10  311.11   28.40
   5 -19  -9   66.52   14.50
  -5 -19   9   54.91   13.87
   5 -19  -8   23.10    9.45
  -5 -19   8   10.74    8.92
  -5 -19   7   21.67   10.85
   5 -19  -7   11.66    8.31
   5 -19  -6   22.70    9.66
  -5 -19   6   29.27   12.01
  -5 -19   5   67.46   14.56
   5 -19  -5   42.28   11.54
  -5 -19   4   42.55   12.86
   5 -19  -4   30.45   10.51
  -5 -19   3  119.68   19.52
   5 -19  -3   85.60   16.56
  -5 -19   2  217.05   24.87
   5 -19  -2  222.31   25.09
  -5 -19   1  223.21   25.34
   5 -19  -1  265.24   27.54
  -5 -19   0    4.64   10.82
   5 -19   0    3.16    7.20
   5 -19   1  269.96   28.22
  -5 -19  -1  269.54   27.77
  -5 -19  -2  218.30   25.81
   5 -19   2  259.02   27.85
  -5 -19  -3  157.44   21.54
   5 -19   3   98.74   17.97
  -5 -19  -4   27.25   12.30
   5 -19   4   22.75   10.45
  -5 -19  -5   53.93   13.97
   5 -19   5   36.74   13.57
   5 -19   6   60.32   15.28
   5 -19   7   29.09   12.44
  -5 -19  -8    4.06    7.14
   5 -19   8   19.23   13.14
  -5 -19  -9   81.52   16.34
   5 -19   9   71.00   17.64
  -5 -19 -10  372.69   33.72
   5 -19  10  262.02   30.93
  -5 -19 -11  149.16   22.17
   5 -19  11  162.70   25.42
  -5 -19 -12   28.15   12.40
   5 -19  12   26.68   12.36
  -5 -19 -13  247.30   29.84
   5 -19  13  302.12   33.58
  -5 -19 -14   35.75   13.61
   5 -19  14   48.31   16.81
  -5 -19 -15  103.05   20.27
   5 -19  15  159.26   25.62
  -5 -19 -16    3.73    7.63
   5 -19  16   35.30   13.92
  -5 -19 -17   11.35    9.44
  -5 -19 -18  -17.61   14.50
  -5 -19 -19    4.40    8.76
  -6 -19  20   10.03   10.67
  -6 -19  19   16.57   10.65
  -6 -19  18   34.95   12.36
  -6 -19  17   24.85   10.06
  -6 -19  16    9.60    9.20
  -6 -19  15   -2.33    9.81
   6 -19 -14  155.39   20.10
  -6 -19  14  144.47   21.86
   6 -19 -13  215.66   23.47
  -6 -19  13  223.29   26.76
  -6 -19  12    3.95    7.99
   6 -19 -12    1.29    7.34
  -6 -19  11  258.47   28.76
   6 -19 -11  251.19   25.35
   6 -19 -10  101.30   17.42
  -6 -19  10   82.78   17.19
   6 -19  -9   44.93   11.28
  -6 -19   9   38.16   12.35
  -6 -19   8   32.54   12.64
   6 -19  -8   32.69   11.07
   6 -19  -7    6.07    7.37
  -6 -19   7   12.74    9.46
  -6 -19   6   -3.58    6.79
   6 -19  -6   -0.60    6.54
  -6 -19   5   76.64   16.88
   6 -19  -5   63.48   13.84
  -6 -19   4   24.34   10.73
   6 -19  -4   14.31    8.31
  -6 -19   3   13.75    9.42
   6 -19  -3   -9.52    8.78
  -6 -19   2  142.94   21.35
   6 -19  -2  107.54   18.06
  -6 -19   1  412.15   34.46
   6 -19  -1  356.06   31.90
  -6 -19   0   49.06   13.97
   6 -19   0   61.69   15.61
   6 -19   1  385.94   33.69
  -6 -19  -1  451.79   36.00
  -6 -19  -2  186.84   23.82
   6 -19   2  154.21   22.23
  -6 -19  -3   22.62   12.12
   6 -19   3   -0.23    9.43
  -6 -19  -4   12.32   10.66
   6 -19   4   -0.69    9.79
   6 -19   5   56.65   16.73
   6 -19   6    3.08    7.95
   6 -19   7   11.25   11.10
   6 -19   8   49.84   15.58
  -6 -19  -9   64.38   14.76
   6 -19   9   55.99   15.48
  -6 -19 -10   92.42   17.35
   6 -19  10   64.95   16.17
  -6 -19 -11  246.42   28.02
   6 -19  11  268.69   31.69
  -6 -19 -12    6.43    7.88
   6 -19  12    8.63   10.46
  -6 -19 -13  226.56   28.08
   6 -19  13  289.82   33.77
  -6 -19 -14  105.46   19.63
   6 -19  14  126.45   23.27
  -6 -19 -15   30.16   12.19
   6 -19  15    9.28   10.45
  -6 -19 -16  -21.48   14.39
  -6 -19 -17   17.94   10.82
  -6 -19 -18   29.91   14.19
  -6 -19 -19   14.80   11.82
  -7 -19  19  -12.25    9.28
  -7 -19  18   45.58   14.08
  -7 -19  17   26.26   11.55
  -7 -19  16    9.75    8.05
  -7 -19  15   94.54   18.20
  -7 -19  14   39.58   13.40
   7 -19 -13  204.44   22.74
  -7 -19  13  145.14   22.08
  -7 -19  12   25.93   11.71
   7 -19 -12   23.88   10.12
   7 -19 -11   54.65   12.65
  -7 -19  11   62.06   14.96
  -7 -19  10  164.58   23.12
   7 -19 -10  128.55   18.34
  -7 -19   9   69.13   15.39
   7 -19  -9   79.95   14.91
  -7 -19   8   -1.29    7.58
   7 -19  -8   -9.71   10.22
  -7 -19   7   14.30    9.54
   7 -19  -7   19.08    9.25
  -7 -19   6   17.80   10.38
   7 -19  -6   17.06    8.29
  -7 -19   5    7.79    7.81
   7 -19  -5   -7.92    9.71
  -7 -19   4   -3.92    8.30
   7 -19  -4    7.11    8.86
  -7 -19   3   70.66   15.14
   7 -19  -3   87.55   16.52
  -7 -19   2   88.02   17.30
   7 -19  -2   93.65   16.53
  -7 -19   1  228.84   26.13
   7 -19  -1  167.02   22.49
  -7 -19   0   12.75   11.57
   7 -19   0   10.48    9.00
  -7 -19  -1  195.67   24.64
   7 -19   1  159.63   22.46
  -7 -19  -2  102.37   18.89
   7 -19   2   96.16   18.20
  -7 -19  -3  112.72   18.33
   7 -19   3   78.66   15.89
   7 -19   4    0.53    9.24
   7 -19   5   -5.75   10.03
   7 -19   6   23.87   13.17
   7 -19   7   15.34   10.98
   7 -19   8   12.68    9.26
   7 -19   9   72.90   18.62
  -7 -19 -10  163.78   22.79
   7 -19  10  160.18   24.84
  -7 -19 -11   35.99   11.01
   7 -19  11   32.84   14.97
  -7 -19 -12   29.17   11.83
   7 -19  12   25.42   14.58
  -7 -19 -13  180.11   25.10
   7 -19  13  160.25   26.65
  -7 -19 -14   28.81   11.53
   7 -19  14   57.37   16.66
  -7 -19 -15   84.37   17.77
  -7 -19 -16   23.74   12.98
  -7 -19 -17    2.79   10.85
  -7 -19 -18   53.52   15.66
  -8 -19  18    5.00    7.53
  -8 -19  17   -8.11    8.05
  -8 -19  16   32.51   12.13
  -8 -19  15  113.85   20.25
  -8 -19  14   39.69   14.04
  -8 -19  13  -10.86   10.28
  -8 -19  12  129.75   20.97
  -8 -19  11   15.89   10.38
   8 -19 -11    6.17    6.44
  -8 -19  10   69.04   15.87
   8 -19 -10   62.49   13.70
  -8 -19   9   96.04   18.08
   8 -19  -9  114.92   17.50
  -8 -19   8   39.40   13.42
   8 -19  -8   32.42   10.19
  -8 -19   7   58.98   14.38
   8 -19  -7   33.40   11.33
  -8 -19   6   -5.16   10.80
   8 -19  -6   29.13   10.43
  -8 -19   5   29.33   11.70
   8 -19  -5   16.69    8.29
  -8 -19   4  157.47   22.88
   8 -19  -4  131.89   19.59
  -8 -19   3  121.80   20.26
   8 -19  -3   98.60   17.96
  -8 -19   2   16.21    9.71
   8 -19  -2   13.70    8.75
  -8 -19   1    3.27    8.97
   8 -19  -1    2.13    7.28
  -8 -19   0   82.89   17.39
   8 -19   0   99.44   17.65
  -8 -19  -1   19.10   12.60
   8 -19   1    5.84    9.10
  -8 -19  -2    6.61    9.98
   8 -19   2   13.98   10.13
   8 -19   3   93.49   18.21
   8 -19   4  122.77   21.56
   8 -19   5   -5.83    9.02
   8 -19   6    9.37   10.79
   8 -19   7   30.82   14.33
   8 -19   8   42.37   15.20
   8 -19   9  118.32   22.30
   8 -19  10   51.68   15.11
  -8 -19 -11   14.38   10.16
   8 -19  11   17.41   11.52
  -8 -19 -12  138.13   21.81
   8 -19  12  125.50   23.58
  -8 -19 -13   -2.43    7.41
   8 -19  13   -7.42   13.09
  -8 -19 -14   23.85   11.40
  -8 -19 -15   77.09   18.23
  -8 -19 -16   37.56   13.87
  -8 -19 -17   15.80   12.40
  -9 -19  16   31.71   11.80
  -9 -19  15   17.30   11.40
  -9 -19  14   25.39   11.87
  -9 -19  13   75.48   16.66
  -9 -19  12   13.51    9.58
  -9 -19  11   37.67   12.36
  -9 -19  10   13.35   10.60
   9 -19 -10    1.30    7.20
  -9 -19   9  107.32   19.73
   9 -19  -9   83.95   15.86
  -9 -19   8   13.38    9.79
   9 -19  -8   18.59    9.87
  -9 -19   7  139.38   21.21
   9 -19  -7  130.77   19.14
  -9 -19   6    4.91    7.40
   9 -19  -6  -14.93    9.59
  -9 -19   5  113.17   19.35
   9 -19  -5  119.28   19.07
  -9 -19   4   98.55   20.09
   9 -19  -4  110.39   18.95
  -9 -19   3   43.50   14.52
   9 -19  -3   50.95   13.36
  -9 -19   2   69.01   16.83
   9 -19  -2   77.45   15.53
  -9 -19   1   77.55   16.91
   9 -19  -1   86.48   17.71
  -9 -19   0   16.88   10.88
   9 -19   0   -3.18    7.82
  -9 -19  -1   83.54   18.30
   9 -19   1   68.66   15.29
   9 -19   2  124.64   20.90
   9 -19   3   48.71   16.04
   9 -19   4  104.46   19.49
   9 -19   5  187.08   27.18
   9 -19   6   10.58    9.10
   9 -19   7  109.18   20.80
   9 -19   8   17.70   10.41
   9 -19   9  114.95   21.64
   9 -19  10   23.43   12.84
  -9 -19 -11   14.50    8.01
   9 -19  11   12.02   11.82
  -9 -19 -12    3.40    8.91
   9 -19  12   19.90   12.13
  -9 -19 -13   67.81   16.63
  -9 -19 -14   41.16   12.78
  -9 -19 -15   24.91   13.63
  -9 -19 -16    8.64    9.35
  -9 -19 -17   40.38   15.16
 -10 -19  15   20.77   11.09
 -10 -19  14    9.18    9.26
 -10 -19  13    1.03    8.45
 -10 -19  12   44.95   14.04
 -10 -19  11   78.75   18.28
 -10 -19  10   43.16   13.41
 -10 -19   9    9.01    9.96
 -10 -19   8   -1.28    8.53
  10 -19  -8   11.04    8.14
 -10 -19   7   75.33   17.35
  10 -19  -7   87.42   16.87
 -10 -19   6   25.76   11.13
  10 -19  -6   20.90   10.36
 -10 -19   5  177.60   24.49
  10 -19  -5  157.02   22.03
 -10 -19   4   45.58   15.18
  10 -19  -4  100.91   18.20
 -10 -19   3   20.47   10.88
  10 -19  -3   -5.57    8.33
 -10 -19   2   96.88   19.44
  10 -19  -2   97.82   18.25
 -10 -19   1   35.87   13.53
  10 -19  -1   -5.07    7.34
 -10 -19   0   40.83   14.44
  10 -19   0   16.04   10.54
  10 -19   1   29.08   13.32
  10 -19   2   81.03   18.17
  10 -19   3   27.41   13.35
  10 -19   4   85.05   19.46
  10 -19   5  215.42   28.53
  10 -19   6    7.52   11.49
  10 -19   7   41.68   15.77
  10 -19   8   12.78   11.21
  10 -19   9    7.34   10.13
  10 -19  10   54.60   18.70
 -10 -19 -12   59.69   15.24
 -10 -19 -13   10.33    9.12
 -10 -19 -14   55.70   15.43
 -10 -19 -15   12.38   10.19
 -10 -19 -16    3.52    7.75
 -11 -19  14  -19.93   10.81
 -11 -19  13   40.33   13.17
 -11 -19  12   15.85    9.84
  19 -11  11  117.43   22.32
 -11 -19  11   79.56   16.77
  19 -11  10    6.38    8.68
 -11 -19  10    1.01    8.65
  19 -11   9   -8.08    6.91
 -11 -19   9   15.89    9.87
  19 -11   8   85.94   19.17
 -11 -19   8   76.85   17.59
  19 -11   7   27.31   13.19
 -11 -19   7    5.66    8.45
  11 -19  -7    4.37    7.23
  19 -11   6    0.71    7.38
  11 -19  -6   -0.85    8.60
  19 -11   5   13.59   11.28
 -11 -19   5   -4.96    8.67
  11 -19  -5    6.16    8.44
  19 -11   4  183.68   23.97
 -11 -19   4  172.15   24.97
  11 -19  -4  138.21   20.74
 -11 -19   3    3.68    7.81
  11 -19  -3   11.03    9.68
  19 -11   2    4.25    8.06
 -11 -19   2   19.44   11.63
  11 -19  -2    7.03    8.11
 -11 -19   1   89.84   18.62
  11 -19  -1   74.63   16.44
  11 -19   0   49.80   15.43
  11 -19   1   74.01   16.64
  11 -19   2   -0.32    9.83
  11 -19   3   22.16   12.74
  11 -19   4  158.86   24.47
  11 -19   5    6.08    9.27
  11 -19   6   -4.55    8.34
  11 -19   7    6.89   11.08
  11 -19   8   70.16   17.94
  11 -19   9    1.82   10.57
 -11 -19 -13   23.39   12.12
 -11 -19 -14   -9.77   10.25
 -11 -19 -15   47.23   15.36
 -12 -19  12   17.81   10.19
 -12 -19  11   11.63   10.34
  19 -12  10   -1.31    9.45
 -12 -19  10   14.42   10.05
  19 -12   9   22.07   12.45
 -12 -19   9   20.43   12.09
  19 -12   8    5.51    8.98
 -12 -19   8  -14.73   12.63
  19 -12   7   56.21   16.45
 -12 -19   7   46.82   13.50
  19 -12   6   15.85   10.12
 -12 -19   6   -1.09    8.16
  19 -12   5   92.56   19.10
 -12 -19   5   68.88   17.77
  12 -19  -5   76.80   17.22
 -12 -19   4    1.12    8.50
  12 -19  -4  -21.33   12.39
  19 -12   3   46.34   12.92
 -12 -19   3   68.30   17.01
  12 -19  -3   37.64   12.94
  19 -12   2   10.21    9.26
 -12 -19   2   -1.51    9.87
  12 -19  -2   -1.31    9.75
 -12 -19   1   30.09   12.68
  12 -19  -1   36.22   14.11
  12 -19   0   77.70   17.68
  12 -19   1   14.46   11.91
  12 -19   2   -8.00    9.87
  12 -19   3   49.25   14.77
  12 -19   4   -6.71    9.47
  12 -19   5   48.85   15.08
  12 -19   6   26.37   12.20
  12 -19   7   36.86   15.07
 -13 -19  11   58.92   16.35
 -13 -19  10    9.32    9.89
  19 -13   9   21.72   11.82
 -13 -19   9   17.59    9.27
  19 -13   8   29.30   15.62
 -13 -19   8   43.78   14.47
  19 -13   7   -3.15    8.84
 -13 -19   7    9.74   10.24
  19 -13   6   13.41   10.16
 -13 -19   6   -0.62    8.55
  19 -13   5    1.37    8.58
 -13 -19   5   -2.22   10.71
  19 -13   4  141.10   22.81
 -13 -19   4  173.70   25.54
  13 -19  -4  138.67   21.78
  19 -13   3    7.81    8.94
 -13 -19   3  -17.53   12.89
  13 -19  -3    2.12    8.72
 -13 -19   2    5.63   10.54
  13 -19  -2   19.91   11.08
  13 -19  -1   63.75   17.00
  13 -19   0    7.63    8.17
  13 -19   1   35.09   14.71
  13 -19   2    9.31    9.81
  13 -19   3    3.93    8.67
  13 -19   4  150.94   24.71
  13 -19   5   21.41   13.88
  13 -19   6  -10.39   13.30
 -14 -19   9   38.98   15.01
 -14 -19   8   18.90   12.45
  19 -14   7   29.45   13.23
 -14 -19   7   49.15   16.66
  19 -14   6   17.88   10.72
 -14 -19   6   22.82   13.05
  19 -14   5   67.03   16.91
  19 -14   4   33.51   14.51
  14 -19  -2   25.56   12.47
  14 -19  -1    6.12    9.05
  14 -19   0   -0.99    8.48
  14 -19   1   17.57   11.06
  14 -19   2   24.89   13.09
  14 -19   3   -4.14   10.18
  14 -19   4    8.07   10.30
  19 -15   5   54.01   16.44
  19 -15   4   22.60   12.67
  15 -19   0   19.49   11.16
  15 -19   1   24.50   12.33
  15 -19   2  -19.34   12.78
   0 -20   0  264.46   27.62
   0 -20  -1   98.40   17.89
   0 -20   1   61.26   14.62
   0 -20  -2   75.43   15.61
   0 -20   2   34.67   12.60
   0 -20   3    2.85    8.57
   0 -20  -3   20.37    9.47
   0 -20   4   23.44    9.59
   0 -20  -4   42.47   13.20
   0 -20   5    0.31    8.31
   0 -20  -5    4.38    8.24
   0 -20  -6  179.53   22.72
   0 -20   6  156.42   22.30
   0 -20  -7   -3.28    7.94
   0 -20   7   -8.96   11.68
   0 -20  -8    9.01    8.60
   0 -20   8   -4.98    9.30
   0 -20  -9   11.57    9.65
   0 -20   9   -1.11   10.59
   0 -20 -10    4.53    6.82
   0 -20  10   -3.53    8.87
   0 -20 -11   78.74   15.92
   0 -20  11   54.65   14.81
   0 -20 -12  166.71   22.54
   0 -20  12  154.73   23.47
   0 -20 -13   68.95   16.08
   0 -20  13   26.86   10.99
   0 -20 -14  111.09   18.52
   0 -20  14  120.76   22.26
   0 -20 -15   16.88   10.52
   0 -20  15   13.44   10.44
   0 -20 -16  125.94   19.52
   0 -20  16  107.41   20.74
   0 -20 -17   63.42   14.48
   0 -20 -18   -0.74    7.95
   0 -20 -19   10.31    7.44
   0 -20 -20   18.89    9.96
   1 -20 -19   15.17   10.67
   1 -20 -18   27.82   10.68
   1 -20 -17  123.89   19.35
   1 -20 -16   41.66   13.13
  -1 -20  16   34.14   14.92
   1 -20 -15   27.08    9.42
  -1 -20  15   15.03   12.53
   1 -20 -14   82.87   16.54
  -1 -20  14   65.99   16.87
   1 -20 -13   11.80    8.15
  -1 -20  13    3.65    7.64
   1 -20 -12   36.28   11.19
  -1 -20  12   40.74   14.31
   1 -20 -11   50.94   13.24
  -1 -20  11   67.88   16.17
   1 -20 -10   36.60   11.89
  -1 -20  10   44.17   13.29
   1 -20  -9   25.27   10.57
  -1 -20   9   -9.90   10.73
   1 -20  -8    6.93    7.66
  -1 -20   8   -2.23    7.88
   1 -20  -7  122.14   19.05
  -1 -20   7  104.18   19.08
   1 -20  -6   21.97   10.13
  -1 -20   6   -4.80    8.52
   1 -20  -5  142.08   20.17
  -1 -20   5  199.53   24.54
   1 -20  -4   47.36   13.26
  -1 -20   4   34.81   11.86
   1 -20  -3   61.06   14.70
  -1 -20   3   91.52   17.48
   1 -20  -2   55.10   14.13
  -1 -20   2   68.45   15.23
  -1 -20   1   19.42   10.67
   1 -20  -1   27.78   11.18
   1 -20   0   52.92   13.75
  -1 -20   0   66.09   14.20
  -1 -20  -1   32.25   10.30
   1 -20   1   32.38   10.99
   1 -20   2   48.16   14.08
  -1 -20  -2   54.58   13.26
  -1 -20  -3   75.47   15.59
   1 -20   3   69.51   15.57
   1 -20   4   47.93   12.77
  -1 -20  -4   58.27   15.56
  -1 -20  -5  132.04   20.26
   1 -20   5  186.04   24.64
  -1 -20  -6   22.25   11.34
   1 -20   6   -6.60    8.00
  -1 -20  -7  123.50   19.43
   1 -20   7   59.81   16.01
  -1 -20  -8   -7.99    9.76
   1 -20   8   -1.60    9.64
  -1 -20  -9    7.47    9.34
   1 -20   9   -6.32   10.62
  -1 -20 -10   55.73   14.74
   1 -20  10   41.23   13.17
  -1 -20 -11   62.29   14.76
   1 -20  11   60.03   15.77
  -1 -20 -12   66.08   15.35
   1 -20  12   39.03   13.54
  -1 -20 -13    0.65    7.74
   1 -20  13  -11.54   10.68
  -1 -20 -14   84.62   16.07
   1 -20  14   69.82   17.40
  -1 -20 -15   57.14   14.62
   1 -20  15   21.80   10.86
  -1 -20 -16   50.60   12.96
  -1 -20 -17  110.40   19.69
  -1 -20 -18   11.10    8.41
  -1 -20 -19   -4.09    8.44
  -1 -20 -20    0.02    7.46
   2 -20 -18   76.84   16.03
   2 -20 -17   21.53    9.57
   2 -20 -16    3.80    7.06
  -2 -20  16    2.47    9.16
   2 -20 -15   50.81   13.60
  -2 -20  15   48.94   15.14
   2 -20 -14   -0.25    8.20
  -2 -20  14  -19.59   12.26
   2 -20 -13    6.92    8.86
  -2 -20  13   -2.41    9.78
   2 -20 -12   11.32    8.98
  -2 -20  12   -4.06   10.08
   2 -20 -11   61.79   14.47
  -2 -20  11   80.40   16.51
   2 -20 -10   29.82   10.62
  -2 -20  10   23.85   12.31
   2 -20  -9  128.86   19.50
  -2 -20   9  103.18   19.21
  -2 -20   8    9.20   10.82
   2 -20  -8   -7.08    9.89
   2 -20  -7   23.63   11.51
  -2 -20   7   22.02   11.76
   2 -20  -6  329.44   30.35
  -2 -20   6  339.16   31.91
  -2 -20   5   44.81   13.57
   2 -20  -5   50.37   13.85
   2 -20  -4   -7.61    9.93
  -2 -20   4    5.70    7.19
  -2 -20   3  161.38   22.14
   2 -20  -3  149.86   21.03
   2 -20  -2   16.31   10.49
  -2 -20   2    5.90    8.62
  -2 -20   1   19.14   10.87
   2 -20  -1   26.69   10.80
   2 -20   0    0.47    7.75
  -2 -20   0    2.52    8.18
   2 -20   1   43.19   13.36
  -2 -20  -1   13.46    9.62
   2 -20   2    1.23    8.35
  -2 -20  -2    0.02    7.31
  -2 -20  -3  163.76   22.19
   2 -20   3  135.06   20.76
  -2 -20  -4    5.40    9.13
   2 -20   4   21.83   12.04
  -2 -20  -5   17.93   10.72
   2 -20   5   53.75   15.99
   2 -20   6  347.15   33.09
  -2 -20  -6  335.45   31.56
  -2 -20  -7   14.67   10.46
   2 -20   7    6.32    9.28
  -2 -20  -8   11.40    9.96
   2 -20   8  -10.57    9.21
  -2 -20  -9  101.96   17.85
   2 -20   9  115.95   20.11
  -2 -20 -10   45.59   13.17
   2 -20  10   22.91   10.57
  -2 -20 -11   56.62   13.66
   2 -20  11   63.47   16.52
  -2 -20 -12    3.92    7.49
   2 -20  12   -7.57   10.79
  -2 -20 -13    7.89    8.22
   2 -20  13    4.27   10.04
  -2 -20 -14    1.94    9.18
   2 -20  14   -8.43    9.75
  -2 -20 -15   93.70   17.96
   2 -20  15   75.57   18.72
   3 -20 -17   30.36   11.61
  -3 -20  17   34.89   14.13
   3 -20 -16    0.86    5.86
  -3 -20  16   26.16   13.52
   3 -20 -15   10.96    8.84
  -3 -20  15  -45.63   16.48
   3 -20 -14   21.59    9.49
  -3 -20  14   34.26   13.22
   3 -20 -13    4.21    8.39
  -3 -20  13    5.31    7.36
   3 -20 -12   19.82    9.63
  -3 -20  12    9.87    9.41
   3 -20 -11   14.07    8.73
  -3 -20  11    2.44    9.18
   3 -20 -10   84.71   16.02
  -3 -20  10   53.45   14.90
   3 -20  -9  100.61   17.55
  -3 -20   9  100.37   18.46
   3 -20  -8   92.27   16.63
  -3 -20   8  101.75   19.24
   3 -20  -7  140.52   20.09
  -3 -20   7  124.09   19.91
  -3 -20   6  219.13   25.96
   3 -20  -6  204.70   23.54
  -3 -20   5   93.60   18.40
   3 -20  -5  108.07   17.32
   3 -20  -4   43.00   13.08
  -3 -20   4   65.09   14.71
  -3 -20   3   38.92   13.09
   3 -20  -3   32.78   12.05
  -3 -20   2   19.27   10.38
   3 -20  -2   12.96    9.38
   3 -20  -1   -1.86   10.42
  -3 -20   1   11.37    9.24
  -3 -20   0   46.19   13.60
   3 -20   0   20.57    9.68
  -3 -20  -1    9.91    9.22
   3 -20   1    6.18    7.74
  -3 -20  -2   26.65   11.75
   3 -20   2    6.22    7.13
  -3 -20  -3   22.89   12.26
   3 -20   3   23.88    9.36
  -3 -20  -4   48.70   14.80
   3 -20   4   87.85   18.12
  -3 -20  -5  131.24   20.75
   3 -20   5  137.12   21.63
  -3 -20  -6  226.05   26.43
   3 -20   6  213.71   26.44
  -3 -20  -7  118.92   19.19
   3 -20   7  130.32   22.09
  -3 -20  -8  121.15   20.45
   3 -20   8   70.69   16.48
  -3 -20  -9   77.19   16.29
   3 -20   9  123.23   21.34
  -3 -20 -10   96.64   17.52
   3 -20  10   89.80   18.93
  -3 -20 -11    7.02    8.17
  -3 -20 -11   -8.53    8.12
   3 -20  11    2.35    9.61
  -3 -20 -12   22.36   11.47
  -3 -20 -12   21.79   11.23
   3 -20  12    2.00    9.44
  -3 -20 -13   -8.02    8.48
   3 -20  13    6.16    9.93
  -3 -20 -14   53.79   16.00
   3 -20  14   31.41   13.77
  -3 -20 -15   19.26   11.29
  -3 -20 -16  -16.10   12.27
  -3 -20 -17   22.59   11.99
  -3 -20 -18    7.09    9.47
  -4 -20  17   53.89   15.71
   4 -20 -16   27.20   10.57
  -4 -20  16    8.71    8.23
   4 -20 -15   33.46   11.43
  -4 -20  15   40.75   12.53
   4 -20 -14    4.51    6.74
  -4 -20  14   -1.02   10.32
   4 -20 -13    4.74    8.07
  -4 -20  13    3.52    9.31
   4 -20 -12   -0.97    6.32
  -4 -20  12   -4.45    8.99
   4 -20 -11   39.39   11.83
  -4 -20  11   47.41   13.51
   4 -20 -10   10.70    8.34
  -4 -20  10   -3.08    9.35
  -4 -20   9   82.12   17.48
   4 -20  -9   47.44   12.88
  -4 -20   8  182.77   24.95
   4 -20  -8  204.56   23.89
   4 -20  -7    2.33    6.79
  -4 -20   7   -1.84    8.67
   4 -20  -6   -0.44    8.24
  -4 -20   6   15.39   10.10
  -4 -20   5   37.67   12.62
   4 -20  -5   41.60   12.68
   4 -20  -4   96.28   18.33
  -4 -20   4  129.51   20.22
   4 -20  -3   70.99   14.97
  -4 -20   3   68.42   14.44
   4 -20  -2    6.16    7.86
  -4 -20   2   13.20   10.10
  -4 -20   1    2.97    8.54
   4 -20  -1   15.10    9.23
  -4 -20   0    3.79    8.36
   4 -20   0   -5.98    9.85
  -4 -20  -1   42.72   13.65
   4 -20   1    7.67    8.27
  -4 -20  -2    1.14    7.67
   4 -20   2    0.74    8.74
  -4 -20  -3  100.01   18.30
   4 -20   3   99.19   17.69
  -4 -20  -4  152.46   22.02
   4 -20   4  127.10   20.13
  -4 -20  -5   40.78   13.85
   4 -20   5   28.23   11.90
  -4 -20  -6    6.42    8.86
   4 -20   6   15.39   11.01
  -4 -20  -7    8.88   10.85
   4 -20   7   -1.21    7.20
  -4 -20  -8  276.87   28.95
   4 -20   8  258.47   29.78
  -4 -20  -9   88.11   17.52
   4 -20   9   80.18   18.99
   4 -20  10   -5.63    9.09
  -4 -20 -11   42.52   12.73
   4 -20  11   43.70   15.18
  -4 -20 -12  -21.08   13.08
   4 -20  12    7.82   11.51
  -4 -20 -13    5.77    8.65
   4 -20  13   10.80   11.05
  -4 -20 -14   17.57   10.50
  -4 -20 -15    4.99    9.23
  -4 -20 -16   10.96    9.82
  -4 -20 -17   22.90   14.86
  -4 -20 -18  -25.67   13.17
  -5 -20  17   -7.78   10.29
  -5 -20  16   -0.99    8.69
   5 -20 -15   47.71   12.91
  -5 -20  15   36.63   12.83
   5 -20 -14   49.85   12.65
  -5 -20  14   59.50   15.60
   5 -20 -13   30.18   11.17
  -5 -20  13   -5.62    8.52
   5 -20 -12   55.70   13.04
  -5 -20  12   84.08   16.83
   5 -20 -11   41.21   12.75
  -5 -20  11   30.58   13.00
   5 -20 -10    6.52    8.11
  -5 -20  10    7.61    9.66
   5 -20  -9  219.90   24.75
  -5 -20   9  174.82   24.67
  -5 -20   8   51.88   14.49
   5 -20  -8   48.64   12.47
   5 -20  -7   43.05   13.30
  -5 -20   7   47.22   13.96
  -5 -20   6    4.82    7.61
   5 -20  -6   -6.79    9.81
  -5 -20   5   14.98   10.67
   5 -20  -5   -6.86    9.40
  -5 -20   4   19.21   10.22
   5 -20  -4   11.04    9.91
  -5 -20   3  178.14   23.32
   5 -20  -3  212.33   24.97
  -5 -20   2   95.80   17.45
   5 -20  -2   95.60   18.42
  -5 -20   1   25.77   11.71
   5 -20  -1   19.23   11.24
  -5 -20   0  149.27   21.55
   5 -20   0  184.45   24.53
  -5 -20  -1   20.79   11.64
   5 -20   1   -4.37    8.31
  -5 -20  -2   93.64   18.29
   5 -20   2   53.43   14.22
  -5 -20  -3  198.37   25.51
   5 -20   3  197.68   25.35
  -5 -20  -4   30.22   11.13
   5 -20   4   62.82   16.78
  -5 -20  -5   12.66    8.87
   5 -20   5   19.92   12.52
  -5 -20  -6    9.88    9.21
   5 -20   6    5.09    8.43
  -5 -20  -7   87.47   17.94
   5 -20   7  113.73   19.88
   5 -20   8   23.70   13.39
   5 -20   9  187.95   26.53
   5 -20  10    7.36   10.18
   5 -20  11   29.79   12.89
  -5 -20 -12   91.17   18.78
   5 -20  12   73.65   18.54
  -5 -20 -13    5.51    7.87
   5 -20  13   10.14    9.67
  -5 -20 -14   45.06   14.48
  -5 -20 -15   37.72   13.46
  -5 -20 -16   15.76   10.54
  -5 -20 -17   22.00   14.34
  -5 -20 -18    6.50   10.40
  -6 -20  16    8.07    9.58
  -6 -20  15   11.82    9.88
  -6 -20  14  122.19   21.57
   6 -20 -13   16.10    8.70
  -6 -20  13   16.30    9.96
   6 -20 -12   93.43   16.89
  -6 -20  12  139.68   21.51
   6 -20 -11   13.76    9.16
  -6 -20  11    4.52    7.69
   6 -20 -10   57.26   13.61
  -6 -20  10   60.64   15.92
  -6 -20   9   -7.66   10.10
   6 -20  -9    0.92    7.42
   6 -20  -8  120.95   18.91
  -6 -20   8  133.81   21.76
  -6 -20   7   12.16    8.61
   6 -20  -7   12.80    8.18
  -6 -20   6   81.96   17.57
   6 -20  -6   48.18   13.55
  -6 -20   5    2.09    8.35
   6 -20  -5   -7.29    9.83
  -6 -20   4   -0.28    9.14
   6 -20  -4    2.16    7.94
  -6 -20   3   69.89   16.03
   6 -20  -3   58.92   15.00
  -6 -20   2  120.17   19.79
   6 -20  -2   96.31   17.65
  -6 -20   1   12.15   10.70
   6 -20  -1   -2.53    9.37
  -6 -20   0  203.38   25.88
   6 -20   0  239.44   27.65
  -6 -20  -1    6.30    7.63
   6 -20   1   13.39   12.13
  -6 -20  -2  103.16   18.71
   6 -20   2  131.09   21.12
  -6 -20  -3   94.56   18.90
   6 -20   3   44.29   14.32
  -6 -20  -4   -8.75   10.90
   6 -20   4   -5.47    7.97
  -6 -20  -5   21.24   11.64
   6 -20   5   11.07    9.21
  -6 -20  -6   68.08   17.07
   6 -20   6   75.16   17.98
   6 -20   7   12.86   12.10
   6 -20   8  126.52   22.14
   6 -20   9    3.25    7.56
   6 -20  10   51.98   16.28
   6 -20  11   41.60   16.27
   6 -20  12   94.91   20.06
  -6 -20 -13   21.17   11.83
  -6 -20 -14  105.55   21.07
  -6 -20 -15    1.62   10.19
  -6 -20 -16    3.04   10.12
  -6 -20 -17   26.11   11.59
  -7 -20  16   29.13   12.51
  -7 -20  15   50.97   15.22
  -7 -20  14   25.45   12.31
  -7 -20  13    9.04   10.51
  -7 -20  12   58.98   16.77
   7 -20 -12   49.31   13.09
  -7 -20  11    4.96    8.29
   7 -20 -11   14.18    7.80
  -7 -20  10   28.18   11.34
   7 -20 -10   18.44    9.01
  -7 -20   9  100.07   18.77
   7 -20  -9  109.21   17.88
  -7 -20   8   37.10   13.82
   7 -20  -8   15.66    8.58
  -7 -20   7   54.52   15.96
   7 -20  -7   74.95   15.22
  -7 -20   6   -1.93    6.84
   7 -20  -6   -3.23    8.78
  -7 -20   5    1.16    8.68
   7 -20  -5  -16.04   10.96
  -7 -20   4   15.90    9.75
   7 -20  -4   41.01   13.50
  -7 -20   3   95.00   19.13
   7 -20  -3   58.31   14.49
  -7 -20   2   61.51   15.95
   7 -20  -2   57.05   14.38
  -7 -20   1   13.36    9.07
   7 -20  -1   34.26   13.11
  -7 -20   0   78.89   17.18
   7 -20   0   47.80   14.02
  -7 -20  -1   29.15   12.81
   7 -20   1   39.74   13.48
  -7 -20  -2   64.10   16.72
   7 -20   2   65.46   15.92
  -7 -20  -3  120.63   20.80
   7 -20   3  138.92   22.15
  -7 -20  -4   51.35   14.04
   7 -20   4   34.54   13.11
  -7 -20  -5   27.30   11.32
   7 -20   5   -4.46   10.92
   7 -20   6    7.70   10.03
   7 -20   7   60.99   16.61
   7 -20   8   21.42   11.12
   7 -20   9  156.87   25.63
   7 -20  10   52.27   16.75
   7 -20  11    7.73   12.47
  -7 -20 -14   27.62   11.51
  -7 -20 -15   53.26   15.64
  -7 -20 -16   69.92   18.32
  -7 -20 -17   -4.28    9.31
  -8 -20  15   16.64   11.83
  -8 -20  14    6.90    8.77
  -8 -20  13   64.90   17.26
  -8 -20  12    5.72   10.10
  -8 -20  11   60.38   15.42
   8 -20 -11   29.70   10.86
  -8 -20  10    5.57    8.25
   8 -20 -10   14.86   10.38
  -8 -20   9   55.02   15.54
   8 -20  -9   37.07   10.39
  -8 -20   8  171.28   23.94
   8 -20  -8  181.81   23.45
  -8 -20   7   59.78   16.12
   8 -20  -7   28.92   10.73
  -8 -20   6  -10.02    9.10
   8 -20  -6    3.67    7.35
  -8 -20   5   72.78   15.76
   8 -20  -5   68.31   14.77
  -8 -20   4  104.93   20.60
   8 -20  -4  102.25   18.88
  -8 -20   3   48.18   13.68
   8 -20  -3   68.37   16.22
  -8 -20   2   22.47   12.04
   8 -20  -2    7.65    9.88
  -8 -20   1   29.50   11.86
   8 -20  -1   20.56   10.48
  -8 -20   0    0.90    8.73
   8 -20   0   17.33   10.21
  -8 -20  -1   21.39   11.04
   8 -20   1   37.66   12.58
  -8 -20  -2    6.36    9.05
   8 -20   2    5.04   10.18
  -8 -20  -3   65.54   16.48
   8 -20   3   59.51   15.47
   8 -20   4   92.07   18.08
   8 -20   5   82.44   18.23
   8 -20   6    6.75    9.30
   8 -20   7   44.87   15.55
   8 -20   8  195.96   28.30
   8 -20   9   69.69   17.68
   8 -20  10   16.68   10.39
  -8 -20 -15   37.26   13.41
  -8 -20 -16   31.76   13.78
  -9 -20  15   -1.43    8.95
  -9 -20  14   -4.63    9.05
  -9 -20  13    5.25    8.55
  -9 -20  12  -16.64   11.76
  -9 -20  11   -0.50   10.29
  -9 -20  10   36.96   13.75
  -9 -20   9   12.97   11.59
   9 -20  -9    0.44    7.90
  -9 -20   8   97.35   19.62
   9 -20  -8   95.05   17.41
  -9 -20   7   87.33   17.34
   9 -20  -7  101.69   17.76
  -9 -20   6  134.36   22.10
   9 -20  -6   73.22   16.09
  -9 -20   5   53.17   14.03
   9 -20  -5   34.26   12.45
  -9 -20   4  131.31   22.07
   9 -20  -4  126.52   21.11
  -9 -20   3   -2.94    8.61
   9 -20  -3   -1.41    7.83
  -9 -20   2   27.47   12.14
   9 -20  -2   17.04   10.19
  -9 -20   1    8.17    8.49
   9 -20  -1   13.98    9.69
  -9 -20   0   51.13   16.10
   9 -20   0   11.65    9.54
  -9 -20  -1   24.98   10.84
   9 -20   1    5.81    9.48
  -9 -20  -2   39.72   13.63
   9 -20   2   18.92   10.61
   9 -20   3   14.39   10.45
   9 -20   4   93.56   19.73
   9 -20   5   25.28   12.17
   9 -20   6  142.94   23.61
   9 -20   7  116.69   22.32
   9 -20   8   95.26   20.52
 -10 -20  13   -0.12    7.99
 -10 -20  12    5.62    9.62
 -10 -20  11   18.21   11.20
 -10 -20  10   47.73   15.03
 -10 -20   9   33.09   12.30
 -10 -20   8   -9.15   11.47
  10 -20  -8    4.17    7.76
 -10 -20   7    8.25    8.96
  10 -20  -7  -11.12    9.69
 -10 -20   6  228.13   28.72
  10 -20  -6  211.18   25.93
 -10 -20   5   16.83   10.13
  10 -20  -5   28.19   11.79
 -10 -20   4   31.19   12.56
  10 -20  -4   34.43   13.28
 -10 -20   3   46.30   14.95
  10 -20  -3   64.37   16.13
 -10 -20   2   31.36   13.85
  10 -20  -2    5.68    9.72
 -10 -20   1   31.44   12.65
  10 -20  -1   12.90    9.02
 -10 -20   0   -6.90   12.24
  10 -20   0   -0.70    8.57
 -10 -20  -1   41.57   14.43
  10 -20   1   56.04   15.95
  10 -20   2   21.36   12.57
  10 -20   3   63.65   17.64
  10 -20   4   40.31   15.06
  10 -20   5   32.79   14.45
  10 -20   6  228.16   30.77
  10 -20   7   16.10   12.66
 -11 -20  11    9.08    9.65
 -11 -20  10   37.82   14.14
 -11 -20   9    4.19    9.31
 -11 -20   8    6.53    8.13
 -11 -20   7   67.58   17.22
 -11 -20   6    9.88    9.23
  11 -20  -6    9.26    8.59
 -11 -20   5   74.03   18.32
  11 -20  -5   60.26   15.98
 -11 -20   4    5.20    9.65
  11 -20  -4   -3.83    6.64
 -11 -20   3  -13.45   12.93
  11 -20  -3   15.82   11.78
 -11 -20   2   66.64   17.85
  11 -20  -2   29.80   12.46
 -11 -20   1    0.65    8.49
  11 -20  -1   20.63   11.11
 -11 -20   0   63.95   18.32
  11 -20   0   86.04   18.81
  11 -20   1   23.41   13.26
  11 -20   2   74.92   18.29
  11 -20   3   23.22   14.09
  11 -20   4   -7.17   11.47
  11 -20   5  103.23   21.31
  11 -20   6   -5.81    9.35
  20 -12   9   -0.05    7.20
  20 -12   8   25.46   13.04
  20 -12   7   28.04   13.83
  20 -12   6  108.60   20.74
  20 -12   5   15.18   10.04
  12 -20  -5   -3.18    9.33
  20 -12   4   24.90   11.29
  12 -20  -4   21.25   12.14
  12 -20  -3    9.66    9.55
  12 -20  -2   21.79   12.24
  12 -20  -1   59.75   16.92
  12 -20   0   63.51   16.74
  12 -20   1   70.12   18.02
  12 -20   2   19.69   12.62
  12 -20   3   22.14   11.19
  12 -20   4    6.21   10.12
  20 -13   7   72.90   17.66
  20 -13   6  -20.80   11.99
  20 -13   5   93.72   19.93
  13 -20  -3   24.90   12.28
  13 -20  -2   47.78   15.21
  13 -20  -1    2.95    9.75
  13 -20   0    2.83    8.63
  13 -20   1    6.06   10.90
  13 -20   2   61.10   16.93
  14 -20  -1   12.84   11.07
  14 -20   0   10.40   10.91
   0 -21   0  254.15   28.44
   0 -21   1   56.81   14.43
   0 -21  -1   68.63   15.99
   0 -21  -2   23.77   12.39
   0 -21   2   66.77   16.64
   0 -21   3   17.28   10.59
   0 -21  -3   42.27   14.13
   0 -21  -4   68.96   15.98
   0 -21   4   58.10   15.66
   0 -21  -5    2.73    8.27
   0 -21   5    9.59   10.16
   0 -21  -6   58.78   15.23
   0 -21   6   63.87   16.23
   0 -21  -7   21.18   11.20
   0 -21   7   11.56    9.04
   0 -21  -8   48.11   12.89
   0 -21   8   76.15   17.69
   0 -21  -9   36.64   13.61
   0 -21   9   20.41   10.29
   0 -21 -10   27.55   11.84
   0 -21  10    3.23    9.92
   0 -21 -11   39.49   12.25
   0 -21  11   27.24   11.99
   0 -21 -12   17.48   11.35
   0 -21  12   17.67   11.63
   0 -21 -13   90.01   17.48
   0 -21 -14   23.83   10.85
   0 -21 -15   65.90   15.51
   0 -21 -16   -5.88    7.90
   0 -21 -17    9.40    8.81
   1 -21 -18    6.02    7.52
   1 -21 -17   48.55   14.03
   1 -21 -16   84.43   16.77
   1 -21 -15   31.27   10.92
   1 -21 -14   34.46   12.14
   1 -21 -13   37.55   11.34
   1 -21 -12   -0.74    9.17
  -1 -21  12    5.98    7.30
   1 -21 -11   28.16   11.49
  -1 -21  11   14.22    9.71
   1 -21 -10    5.23    7.99
  -1 -21  10   -2.45    9.56
   1 -21  -9   42.16   12.06
  -1 -21   9   40.98   12.57
   1 -21  -8   54.39   14.62
  -1 -21   8   51.71   14.57
   1 -21  -7   94.46   18.23
  -1 -21   7  117.54   20.71
   1 -21  -6   -4.40    9.34
  -1 -21   6    9.17    9.90
   1 -21  -5   98.71   18.42
  -1 -21   5   90.92   17.90
   1 -21  -4   51.35   14.51
  -1 -21   4   46.07   13.60
  -1 -21   3   34.88   13.12
   1 -21  -3   34.43   13.12
   1 -21  -2   50.04   14.85
  -1 -21   2   40.61   13.23
   1 -21  -1   28.68   12.30
  -1 -21   1   50.81   13.30
   1 -21   0   43.66   12.33
  -1 -21   0   53.85   13.59
  -1 -21  -1   20.35   10.93
   1 -21   1   42.48   13.17
  -1 -21  -2   42.42   14.74
   1 -21   2   52.35   14.71
   1 -21   3   25.46   11.09
  -1 -21  -3   21.41   10.63
  -1 -21  -4   39.78   13.41
   1 -21   4   27.22   11.35
  -1 -21  -5   98.53   18.32
   1 -21   5   84.49   17.11
  -1 -21  -6    5.61    9.99
   1 -21   6   -9.02   12.07
  -1 -21  -7   95.91   18.37
   1 -21   7   59.90   15.26
  -1 -21  -8   24.40   10.49
   1 -21   8   52.55   15.65
  -1 -21  -9   46.95   14.11
   1 -21   9   31.65   12.18
  -1 -21 -10   22.48   12.97
   1 -21  10   -9.05   11.32
  -1 -21 -11   26.43   11.69
   1 -21  11   32.68   11.45
  -1 -21 -12    9.65    9.66
   1 -21  12   33.55   14.63
  -1 -21 -13   42.90   13.66
  -1 -21 -14   28.86   10.95
  -1 -21 -15   24.84   11.76
  -1 -21 -16   77.19   16.90
   2 -21 -17   -6.70    9.06
   2 -21 -16   72.82   15.56
   2 -21 -15    1.94    8.25
   2 -21 -14   29.84   10.81
   2 -21 -13  -16.84   10.69
   2 -21 -12   12.77    9.34
  -2 -21  12  -22.20   14.28
   2 -21 -11   -4.40    7.61
  -2 -21  11   -2.41    9.37
   2 -21 -10   29.64   11.97
  -2 -21  10   28.48   14.06
   2 -21  -9   -7.37    9.67
  -2 -21   9    1.00    9.07
   2 -21  -8  150.29   21.25
  -2 -21   8  151.89   22.98
   2 -21  -7   21.71    9.76
  -2 -21   7   36.83   13.77
  -2 -21   6  121.18   19.78
   2 -21  -6  108.69   18.40
   2 -21  -5   73.96   15.78
  -2 -21   5   98.66   19.16
  -2 -21   4  135.03   21.30
   2 -21  -4   99.38   18.12
   2 -21  -3   -1.47    8.02
  -2 -21   3   16.16   10.89
   2 -21  -2    4.41    7.28
  -2 -21   2    2.61    8.57
  -2 -21   1   -9.22    9.93
   2 -21  -1    3.42    7.71
  -2 -21   0    4.33    9.14
   2 -21   0    2.29    8.52
   2 -21   1  -15.07   11.96
  -2 -21  -1    0.21    8.45
  -2 -21  -2    9.94   10.46
   2 -21   2   -6.70   11.01
  -2 -21  -3    7.28   10.81
   2 -21   3    5.12    7.95
  -2 -21  -4  100.54   18.59
   2 -21   4  101.24   18.63
  -2 -21  -5   43.27   13.06
   2 -21   5   47.17   14.86
  -2 -21  -6  105.45   18.88
   2 -21   6   91.75   18.67
  -2 -21  -7   57.56   15.67
   2 -21   7   46.75   13.23
  -2 -21  -8  176.28   24.02
   2 -21   8  152.01   23.68
  -2 -21  -9   20.63   11.64
   2 -21   9    0.92    8.22
  -2 -21 -10   53.72   14.65
   2 -21  10   19.32   12.08
  -2 -21 -11   -1.05    7.27
   2 -21  11   41.51   15.17
  -2 -21 -12    2.52    8.88
  -2 -21 -13   -4.04    8.40
  -2 -21 -14   28.30   10.23
  -2 -21 -15    2.76    9.26
   3 -21 -16   15.68    9.66
   3 -21 -15   17.03    8.68
   3 -21 -14   -4.59    8.73
   3 -21 -13    8.96    8.06
   3 -21 -12   -6.36    9.21
  -3 -21  12   -6.57   10.42
   3 -21 -11   10.50    9.04
  -3 -21  11    2.31    8.04
   3 -21 -10    6.47    7.22
  -3 -21  10   -9.58   10.47
   3 -21  -9   56.82   14.00
  -3 -21   9   88.18   18.16
   3 -21  -8   12.84    9.68
  -3 -21   8  -15.53   11.89
  -3 -21   7  230.59   28.45
   3 -21  -7  214.66   25.40
  -3 -21   6   19.06   11.09
   3 -21  -6    2.52    8.56
  -3 -21   5  171.46   23.69
   3 -21  -5  178.43   23.29
   3 -21  -4    1.01    8.89
  -3 -21   4   18.67   11.56
  -3 -21   3   57.70   15.10
   3 -21  -3   60.47   14.44
  -3 -21   2   17.34   10.71
   3 -21  -2    3.15    9.41
  -3 -21   1   17.85   10.06
   3 -21  -1  -17.66   11.53
  -3 -21   0  -10.55    9.57
   3 -21   0   -1.07    9.92
  -3 -21  -1    5.45    7.98
   3 -21   1    8.09    9.10
  -3 -21  -2   17.21   10.27
   3 -21   2   -2.53    8.10
  -3 -21  -3   57.48   15.37
   3 -21   3   23.33   10.35
  -3 -21  -4   11.46    9.21
   3 -21   4    8.37   11.02
  -3 -21  -5  185.54   24.51
   3 -21   5  185.51   25.41
  -3 -21  -6    8.12   10.44
   3 -21   6   -8.80   10.13
  -3 -21  -7  224.85   26.91
   3 -21   7  199.71   26.50
  -3 -21  -8   26.16   12.40
   3 -21   8   -9.18   12.92
  -3 -21  -9  101.10   19.53
   3 -21   9   74.00   17.81
  -3 -21 -10    8.06    9.46
   3 -21  10   -0.08    9.27
  -3 -21 -11   -7.45    8.74
  -3 -21 -12   27.24   12.64
  -3 -21 -13    3.84    8.84
  -3 -21 -15    2.30    7.46
  -3 -21 -16    2.23    8.33
  -3 -21 -17   90.25   21.60
   4 -21 -15    8.39    7.64
   4 -21 -14   46.61   13.20
   4 -21 -13   17.00    8.64
   4 -21 -12   11.16    8.98
  -4 -21  12   16.91   11.43
   4 -21 -11   27.27   11.76
  -4 -21  11   32.58   13.78
   4 -21 -10   18.47    9.16
  -4 -21  10   27.01   11.80
  -4 -21   9   69.41   17.25
   4 -21  -9   62.52   15.55
  -4 -21   8   74.97   16.98
   4 -21  -8   94.20   18.07
   4 -21  -7   52.45   14.72
  -4 -21   7   48.47   14.88
  -4 -21   6  113.39   20.88
   4 -21  -6   99.06   18.01
   4 -21  -5   69.64   15.59
  -4 -21   5   65.46   15.98
  -4 -21   4   37.20   13.98
   4 -21  -4   39.90   12.03
   4 -21  -3   23.16   10.88
  -4 -21   3   47.42   14.66
  -4 -21   2   31.90   12.11
   4 -21  -2   32.64   10.73
  -4 -21   1    2.82    8.64
   4 -21  -1    6.77    9.79
  -4 -21   0   -9.59    9.32
   4 -21   0   -2.74    8.16
  -4 -21  -1   12.32    9.07
   4 -21   1   17.65    9.07
  -4 -21  -2   27.06   12.54
   4 -21   2   25.90   13.43
  -4 -21  -3   64.55   16.49
   4 -21   3   63.09   17.02
  -4 -21  -4   50.88   15.42
   4 -21   4   28.63   13.62
  -4 -21  -5   79.92   18.51
   4 -21   5   93.02   18.48
  -4 -21  -6  130.35   21.14
   4 -21   6  116.54   20.75
  -4 -21  -7   31.20   12.06
   4 -21   7   57.82   17.02
  -4 -21  -8   88.43   18.96
   4 -21   8   83.33   20.13
  -4 -21  -9   47.29   13.67
   4 -21   9   41.11   14.03
  -4 -21 -10   23.81   11.04
   4 -21  10   20.85   12.15
  -4 -21 -11    4.36    7.75
  -4 -21 -12   19.20   11.94
  -4 -21 -16   37.48   15.66
  -4 -21 -17   10.59   12.59
   5 -21 -14   41.50   12.82
   5 -21 -13  126.07   19.44
   5 -21 -12    6.54    8.18
  -5 -21  12    9.79    9.33
   5 -21 -11   88.30   17.05
  -5 -21  11   82.61   18.73
   5 -21 -10   73.97   15.41
  -5 -21  10   71.45   17.67
  -5 -21   9   -8.91    9.31
   5 -21  -9    3.83    8.65
   5 -21  -8   22.98    9.89
  -5 -21   8    8.83    9.47
  -5 -21   7   93.40   18.74
   5 -21  -7  126.47   20.15
   5 -21  -6    3.27    7.82
  -5 -21   6    9.65    8.21
  -5 -21   5  229.47   27.90
   5 -21  -5  176.07   24.28
  -5 -21   4    8.92    8.81
   5 -21  -4   17.68   11.56
  -5 -21   3   30.94   12.35
   5 -21  -3   36.60   13.46
  -5 -21   2   56.95   14.43
   5 -21  -2   63.06   15.78
  -5 -21   1   90.97   17.65
   5 -21  -1  103.58   19.61
  -5 -21   0   -8.98   10.00
   5 -21   0   -8.00    9.90
  -5 -21  -1  147.24   22.32
   5 -21   1  147.50   22.54
  -5 -21  -2   65.61   15.74
   5 -21   2   67.59   16.26
  -5 -21  -3   35.83   12.49
   5 -21   3   27.54   12.29
  -5 -21  -4    6.85    8.38
   5 -21   4    5.39    7.81
  -5 -21  -5  231.81   27.58
   5 -21   5  210.56   27.35
  -5 -21  -6    1.00    7.42
   5 -21   6    5.58   10.71
  -5 -21  -7  116.85   19.87
   5 -21   7  135.09   23.66
  -5 -21  -8    9.09    8.09
   5 -21   8   11.30    8.94
  -5 -21  -9   -3.71   10.16
   5 -21   9   -8.50    8.54
  -5 -21 -10   92.42   19.53
   6 -21 -13  162.80   21.76
   6 -21 -12    8.76    8.41
  -6 -21  11  147.22   23.08
   6 -21 -11  168.55   22.69
  -6 -21  10   15.90   10.52
   6 -21 -10    0.43    7.54
   6 -21  -9   -8.43    9.17
  -6 -21   9    3.42    9.05
  -6 -21   8   44.49   13.00
   6 -21  -8   45.69   12.60
  -6 -21   7    8.33   11.29
   6 -21  -7   12.64    9.69
  -6 -21   6  133.27   21.68
   6 -21  -6  129.33   20.50
  -6 -21   5   -2.24    8.07
   6 -21  -5   14.09   10.00
  -6 -21   4   81.53   17.15
   6 -21  -4   63.88   15.99
  -6 -21   3   11.86   10.52
   6 -21  -3   -3.06   10.29
  -6 -21   2    7.01    8.88
   6 -21  -2   23.84   10.46
  -6 -21   1  170.40   25.43
   6 -21  -1  169.32   23.58
  -6 -21   0   -8.02    9.98
   6 -21   0    8.83    8.34
  -6 -21  -1  146.56   22.28
   6 -21   1  161.58   23.37
  -6 -21  -2    8.04    9.15
   6 -21   2   24.70   10.87
  -6 -21  -3   -6.18   11.06
   6 -21   3   -0.79   10.41
  -6 -21  -4   62.84   16.59
   6 -21   4   70.04   17.96
  -6 -21  -5   31.97   13.31
   6 -21   5   16.06   11.89
  -6 -21  -6  207.22   27.20
   6 -21   6  148.23   24.81
  -6 -21  -7    0.45    9.44
   6 -21   7   15.63   11.24
  -6 -21  -8   64.27   17.25
   6 -21   8   64.39   18.04
   7 -21 -11   50.11   13.38
  -7 -21  10   74.35   16.64
   7 -21 -10   97.14   17.24
  -7 -21   9    8.79    8.07
   7 -21  -9   11.28   10.01
  -7 -21   8   17.54   11.55
   7 -21  -8    5.90    6.93
  -7 -21   7   92.43   18.68
   7 -21  -7   71.51   15.32
  -7 -21   6   38.05   13.94
   7 -21  -6   28.39   12.55
  -7 -21   5   35.21   11.78
   7 -21  -5   14.61    9.97
  -7 -21   4   12.24    9.76
   7 -21  -4   19.37   10.57
  -7 -21   3   26.70   10.32
   7 -21  -3  -13.41   11.09
  -7 -21   2   31.24   12.99
   7 -21  -2   51.43   13.54
  -7 -21   1   29.16   11.00
   7 -21  -1   25.59   10.40
  -7 -21   0   -7.22   10.71
   7 -21   0   -0.99    8.86
  -7 -21  -1   96.63   19.61
   7 -21   1   61.78   15.92
  -7 -21  -2   20.17   11.85
   7 -21   2   68.99   17.06
  -7 -21  -3   11.04   10.11
   7 -21   3   13.04   10.43
  -7 -21  -4    7.34    9.50
   7 -21   4   17.10   10.82
  -7 -21  -5   41.35   13.25
   7 -21   5   49.33   15.87
   7 -21   6    9.53    9.38
   7 -21   7   71.23   17.47
   8 -21 -10   33.19   11.55
   8 -21  -9   21.09   10.86
  -8 -21   8   11.72   12.33
   8 -21  -8   25.55    9.33
  -8 -21   7   35.35   12.10
   8 -21  -7   11.00    8.55
  -8 -21   6  144.35   23.07
   8 -21  -6  111.57   20.11
  -8 -21   5   24.95   12.56
   8 -21  -5    0.78    8.25
  -8 -21   4   31.44   13.90
   8 -21  -4   33.87   11.49
  -8 -21   3   -3.75    9.30
   8 -21  -3   -4.21    7.24
  -8 -21   2    9.33    9.57
   8 -21  -2   14.07   11.74
  -8 -21   1    5.68    7.92
   8 -21  -1    5.24    9.81
  -8 -21   0   -2.21   11.12
   8 -21   0    7.75    9.94
  -8 -21  -1   -3.37   11.35
   8 -21   1    6.15    9.62
  -8 -21  -2   14.62   11.98
   8 -21   2   17.82   11.74
   8 -21   3   26.72   13.23
   8 -21   4   28.38   12.60
   8 -21   5   30.93   13.90
   8 -21   6  161.02   25.26
   9 -21  -8   20.21   11.11
   9 -21  -7   91.60   17.71
   9 -21  -6   11.32   10.35
   9 -21  -5  110.91   20.04
   9 -21  -4    1.00    7.06
   9 -21  -3   10.75   10.86
   9 -21  -2   32.31   14.23
   9 -21  -1   54.31   15.27
   9 -21   0    1.91    8.44
   9 -21   1   30.28   11.79
   9 -21   2   -0.15    8.06
   9 -21   3    8.20   10.83
   9 -21   4   19.57   10.67
  10 -21  -7    3.37    8.24
  10 -21  -6   89.05   18.17
  10 -21  -5   32.39   13.11
  10 -21  -4   43.78   13.75
  10 -21  -3    7.42    8.23
  10 -21  -2   81.95   18.72
  10 -21  -1   -2.31    8.99
  10 -21   0    8.09    9.08
  10 -21   1    0.10    8.62
  10 -21   2   30.03   14.17
  10 -21   3   17.20   14.04
  11 -21  -5   66.97   16.83
  11 -21  -4   38.20   13.51
  11 -21  -3   31.84   13.08
  11 -21  -2   15.99   11.73
  11 -21  -1   35.32   13.25
  11 -21   0   -9.15    9.36
  11 -21   1   22.17   12.56
  12 -21  -4   26.20   13.09
  12 -21  -3   34.38   12.92
  12 -21  -2    8.92   11.12
  12 -21  -1   83.03   18.74
   0 -22   0  186.37   24.75
   0 -22   1   -3.76   10.26
   0 -22  -1   15.78    9.83
   0 -22   2   89.89   19.03
   0 -22  -2  138.97   21.78
   0 -22  -3   28.86   11.58
   0 -22   3    7.20   10.57
   0 -22   4   12.91   10.24
   0 -22  -4   12.32    9.74
   0 -22  -5   -3.71    8.78
   0 -22   5  -14.65   12.58
   0 -22  -6   -7.36    9.13
   0 -22   6    1.46   10.21
   0 -22  -7    4.16    7.24
   0 -22  -8   40.14   12.58
   0 -22  -9   28.01   12.71
   0 -22 -10   62.03   16.28
   0 -22 -11   90.67   17.64
   0 -22 -12   68.10   15.74
   1 -22 -13   20.81   11.11
   1 -22 -12   48.14   14.06
   1 -22 -11   24.30   10.71
   1 -22 -10  155.94   22.76
   1 -22  -9  123.52   20.70
   1 -22  -8   44.17   13.44
   1 -22  -7   10.60    9.09
   1 -22  -6    1.34    7.44
  -1 -22   6    7.56    9.35
   1 -22  -5   11.19    8.93
  -1 -22   5   35.04   14.36
  -1 -22   4    5.01    8.03
   1 -22  -4   18.37   11.14
  -1 -22   3   48.19   15.16
   1 -22  -3   73.25   15.50
   1 -22  -2  150.25   22.35
  -1 -22   2  115.80   20.58
   1 -22  -1    7.55    7.11
  -1 -22   1   -2.85   10.29
  -1 -22   0   79.02   17.36
   1 -22   0  100.66   18.68
  -1 -22  -1   10.11    7.47
   1 -22   1  -13.30   11.98
  -1 -22  -2  118.84   19.72
   1 -22   2  127.66   21.53
  -1 -22  -3   65.33   17.20
   1 -22   3   52.07   16.39
  -1 -22  -4   18.77   11.58
   1 -22   4    5.33    9.44
  -1 -22  -5   -1.72    8.89
   1 -22   5   19.25   10.72
  -1 -22  -6   10.04    9.40
   1 -22   6   -1.79   10.42
  -1 -22  -7   -0.22    7.03
  -1 -22  -8   -1.86    7.45
  -1 -22  -9  130.63   21.81
  -1 -22 -10  106.26   20.01
   2 -22 -14   10.76    8.44
   2 -22 -13   -0.15    7.38
   2 -22 -12    3.93    8.14
   2 -22 -11   50.61   14.83
   2 -22 -10   24.47   10.80
   2 -22  -9  138.99   21.16
   2 -22  -8  123.03   20.84
   2 -22  -7   12.27   10.92
  -2 -22   6   14.82    9.65
   2 -22  -6    9.79   10.52
  -2 -22   5    9.18   12.10
   2 -22  -5   20.17   11.59
   2 -22  -4  115.79   20.44
  -2 -22   4  165.58   24.35
  -2 -22   3   91.37   18.10
   2 -22  -3  134.84   21.49
  -2 -22   2   11.85   10.78
   2 -22  -2   16.99    9.34
   2 -22  -1   31.17   12.04
  -2 -22   1   32.84   13.37
  -2 -22   0   -8.23    9.85
   2 -22   0    1.04    9.30
  -2 -22  -1   16.53    9.17
   2 -22   1   20.14   13.72
  -2 -22  -2    7.64   10.07
   2 -22   2   -8.37   12.11
  -2 -22  -3   95.45   18.74
   2 -22   3  119.34   21.11
  -2 -22  -4  122.49   20.47
   2 -22   4  110.33   20.11
  -2 -22  -5  -11.99    9.71
   2 -22   5    9.79   10.22
  -2 -22  -6   25.83   11.22
   2 -22   6   32.86   14.95
  -2 -22  -7  -11.50    9.00
  -2 -22  -8   72.41   16.54
  -2 -22  -9  130.03   21.79
   3 -22 -15   21.09   10.40
   3 -22 -14   14.50    9.56
   3 -22 -13   12.38    9.26
   3 -22 -12   25.83   11.31
   3 -22 -11   12.85    7.95
   3 -22 -10   52.38   14.82
   3 -22  -9   12.43    9.99
   3 -22  -8   41.47   12.39
   3 -22  -7   28.62   11.76
   3 -22  -6  165.95   23.32
  -3 -22   5   42.37   13.44
   3 -22  -5   10.38   10.37
  -3 -22   4  126.26   21.93
   3 -22  -4   99.20   19.04
   3 -22  -3   36.82   13.71
  -3 -22   3   42.63   14.00
  -3 -22   2   16.77   10.21
   3 -22  -2   26.07   12.28
  -3 -22   1   28.11   12.65
   3 -22  -1    4.12    9.69
  -3 -22   0   -1.27    9.23
   3 -22   0   20.74   12.76
  -3 -22  -1   32.95   14.73
   3 -22   1   15.79   11.63
  -3 -22  -2   45.66   14.59
   3 -22   2   26.86   12.32
  -3 -22  -3   45.70   13.17
   3 -22   3   60.81   16.54
  -3 -22  -4   95.82   19.46
   3 -22   4  111.12   20.45
  -3 -22  -5   58.01   15.20
   3 -22   5   50.49   16.21
  -3 -22  -6  184.82   25.17
  -3 -22  -7   25.72   12.69
   4 -22 -14   10.17    7.25
   4 -22 -13   12.17   10.03
   4 -22 -12    9.35    7.63
   4 -22 -11   92.62   18.28
   4 -22 -10    8.86    8.19
   4 -22  -9   17.48    9.97
   4 -22  -8   22.50   11.02
   4 -22  -7   43.26   13.66
   4 -22  -6   88.35   16.92
   4 -22  -5   78.07   16.77
   4 -22  -4    1.36    7.14
  -4 -22   4   -1.22    7.04
  -4 -22   3   48.90   15.34
   4 -22  -3   31.21   11.89
  -4 -22   2   65.35   17.56
   4 -22  -2   46.37   14.27
  -4 -22   1   17.42   10.08
   4 -22  -1    6.09    9.48
  -4 -22   0   11.49    9.30
   4 -22   0    8.54    8.47
  -4 -22  -1   26.93   13.26
   4 -22   1   16.30   10.01
  -4 -22  -2   41.89   14.76
   4 -22   2   55.05   15.16
  -4 -22  -3   21.30   11.48
   4 -22   3   34.18   12.52
  -4 -22  -4   -5.17    9.15
   4 -22   4  -11.19   11.15
   4 -22   5   86.07   20.03
   5 -22 -13  -10.65    8.77
   5 -22 -12   66.90   14.71
   5 -22 -11   53.47   14.23
   5 -22 -10    9.25    8.58
   5 -22  -9   15.63   11.40
   5 -22  -8   48.60   14.05
   5 -22  -7   20.19   10.05
   5 -22  -6  -19.11   10.68
   5 -22  -5   22.44   11.23
   5 -22  -4   44.13   13.88
   5 -22  -3   22.00   13.70
   5 -22  -2   82.95   18.06
   5 -22  -1   11.57   10.08
   5 -22   0   57.73   16.05
   5 -22   1   20.91   11.42
   5 -22   2   91.68   19.89
   5 -22   3   10.17    9.89
   5 -22   4   44.11   15.47
   6 -22 -12  114.55   19.50
   6 -22 -11   25.74   10.85
   6 -22 -10    3.94    6.65
   6 -22  -9    1.22    8.77
   6 -22  -8   -7.48    8.90
   6 -22  -7   -3.41   10.43
   6 -22  -6   56.09   15.58
   6 -22  -5   18.20   10.23
   6 -22  -4   41.95   13.27
   6 -22  -3  156.73   22.95
   6 -22  -2   25.38   11.34
   6 -22  -1   14.63   10.72
   6 -22   0   62.71   16.00
   6 -22   1    0.27    9.18
   6 -22   2   23.42   11.36
   6 -22   3  151.45   24.57
   7 -22 -11   42.74   12.58
   7 -22 -10   15.31   10.11
   7 -22  -9    9.35   10.41
   7 -22  -8    9.01    7.19
   7 -22  -7   23.14   12.00
   7 -22  -6  -11.39   11.23
   7 -22  -5   94.78   18.38
   7 -22  -4   25.46   11.85
   7 -22  -3   37.87   14.88
   7 -22  -2   22.15   11.56
   7 -22  -1   35.01   14.99
   7 -22   0  -20.03   11.33
   7 -22   1   31.30   12.73
   8 -22  -9   54.53   14.80
   8 -22  -8    6.44    8.19
   8 -22  -7   -6.80   10.54
   8 -22  -6   84.15   17.71
   8 -22  -5   21.87   10.31
   8 -22  -4    3.52    9.04
   8 -22  -3   24.46   12.94
   8 -22  -2   -5.66   10.44
   8 -22  -1   63.09   17.19
   8 -22   0   24.07   11.20
   9 -22  -8   41.71   12.83
   9 -22  -7   -0.07    8.22
   9 -22  -6   67.88   16.57
   9 -22  -5   63.83   16.51
   9 -22  -4   74.22   17.97
   9 -22  -3   14.69   10.35
   9 -22  -2   -3.28    7.80
  10 -22  -6   -6.54    9.33
  10 -22  -5   10.19    9.76
  10 -22  -4  100.28   20.46
   0   0   0    0.00    0.00


TITL p20210117E1 in P4(1)2(1)2
REM P4(1)2(1)2 (#92 in standard setting)
CELL 0.71073  17.958013  17.958013  26.025181  90.0000  90.0000  90.0000
ZERR   36.00   0.000231   0.000231   0.000527   0.0000   0.0000   0.0000
LATT -1
SYMM -x,-y, z+1/2
SYMM -y+1/2, x+1/2, z+1/4
SYMM  y+1/2,-x+1/2, z+3/4
SYMM -x+1/2, y+1/2,-z+1/4
SYMM  x+1/2,-y+1/2,-z+3/4
SYMM  y, x,-z
SYMM -y,-x,-z+1/2
SFAC C H N O
UNIT 396.00 360.00 36.00 36.00
TREF
HKLF 4
END
_computing_structure_solution     'SHELXT 2018/2 (Sheldrick, 2018)'
;
_shelx_hkl_checksum              64614
_shelx_fab_file
;
    0    0    4    -10.91      1.37
    0    0    8      3.47      1.66
    0    0   12     17.30      5.55
    0    0   16      5.88      1.55
    0    0   20    -12.83      0.43
    0    0   24     -6.53     -0.27
    0    0   28     -2.19     -1.02
    0    1    4     14.71      1.05
    0    1    5     -0.10    -39.54
    0    1    6     50.35     -0.24
    0    1    8     14.58     -0.12
    0    1    9     -0.02     -2.55
    0    1   10      1.81     -0.02
    0    1   11     -0.42      1.50
    0    1   12      6.74      2.03
    0    1   13      0.63      2.78
    0    1   14     -7.75      0.40
    0    1   15      0.01      6.15
    0    1   16      3.30     -0.32
    0    1   17      0.77      5.93
    0    1   18      4.78      0.26
    0    1   19     -0.29     -0.15
    0    1   20     -3.93      0.01
    0    1   21     -0.30      0.72
    0    1   22      4.40     -0.47
    0    1   23      0.35      0.44
    0    1   24     -3.27     -0.72
    0    1   25      0.39     -0.23
    0    1   26     -0.30     -0.29
    0    1   27     -0.30      2.50
    0    1   28     -0.09     -0.47
    0    1   29     -0.22      1.18
    0    1   30     -2.78     -0.05
    1    1    3    -12.02    -11.68
    1    1    4     16.00     -0.44
    1    1    7     -8.01     -7.32
    1    1    9      3.34     -3.54
    1    1   10      1.22     13.61
    1    1   11      5.46      4.23
    1    1   12     -0.87      0.48
    1    1   13     -1.22     -0.58
    1    1   14     -1.35     -1.24
    1    1   15      5.54      7.38
    1    1   16      2.46     -0.35
    1    1   17     -3.07      3.25
    1    1   18      0.47     -1.58
    1    1   19     -0.78     -1.07
    1    1   20      5.80     -0.65
    1    1   21     -4.88      4.54
    1    1   22     -0.57     -2.19
    1    1   23     -0.86     -0.63
    1    1   24     -0.50     -1.39
    1    1   25      0.64     -0.22
    1    1   26      0.36      2.63
    1    1   27      3.49      3.28
    1    1   28      1.57     -0.35
    1    1   29     -1.72      1.20
    1    1   30     -0.11     -0.89
    0    2    3     -0.38     32.14
    0    2    6     33.36      0.88
    0    2    7     -0.79     -1.08
    0    2    8      4.43     -0.18
    0    2    9     -0.11     -2.10
    0    2   10      0.01      0.31
    0    2   11     -0.22      2.77
    0    2   12     -2.15     -0.49
    0    2   13      0.30      7.29
    0    2   14     -9.92      2.02
    0    2   15     -0.36      0.26
    0    2   16      1.38     -1.04
    0    2   17      0.08      3.33
    0    2   18      2.45     -0.59
    0    2   19     -0.19      1.05
    0    2   20      2.54     -0.04
    0    2   21     -0.21     -0.39
    0    2   22      6.11     -0.42
    0    2   23      0.22     -1.69
    0    2   24      0.58      0.33
    0    2   25     -0.22     -0.10
    0    2   26     -2.71     -0.12
    0    2   27      0.11     -1.34
    0    2   28     -0.94      0.40
    0    2   29     -0.05     -2.04
    0    2   30     -8.42     -0.28
    1    2   30     -5.79     -1.68
    1    2   29     -2.13     -0.49
    1    2   28     -0.27     -0.33
    1    2   27      2.25     -0.57
    1    2   26     -2.81      1.35
    1    2   25     -1.66     -0.84
    1    2   24      2.82     -2.15
    1    2   23      0.33     -2.22
    1    2   22      1.07      1.69
    1    2   21     -1.44      3.79
    1    2   20      8.85      4.84
    1    2   19      3.49     -3.64
    1    2   18     -3.07      0.92
    1    2   17      0.32     -2.22
    1    2   16      2.44      1.37
    1    2   15      2.32      5.98
    1    2   14     -1.70      1.69
    1    2   13      2.61     -0.31
    1    2   12     -6.05     -5.76
    1    2   11      1.61      1.13
    1    2   10      7.23      6.80
    1    2    9      3.76     -0.84
    1    2    8      4.46    -13.24
    1    2    7     12.49    -17.70
    1    2    6     14.13     16.54
    1    2    5      1.81     -1.08
    1    2    4    -10.44     67.82
    1    2    3    -51.61    -10.03
    2    2    0     53.22     -1.05
    2    2    1     10.24     -9.71
    2    2    4     -2.25      0.44
    2    2    6     -0.25     57.03
    2    2    7     19.90     17.61
    2    2    8      7.38     -0.33
    2    2    9     -0.31      1.52
    2    2   10      0.02     -5.80
    2    2   11     -1.92     -3.65
    2    2   12      7.10      1.84
    2    2   13      8.08     -8.48
    2    2   14     -0.63     -3.47
    2    2   15      3.52      2.41
    2    2   16      2.21      1.38
    2    2   17      6.14     -5.54
    2    2   18     -0.34      6.90
    2    2   19     -1.09      0.16
    2    2   20      4.86      0.10
    2    2   21      2.79     -2.45
    2    2   22     -0.07      2.96
    2    2   23     -0.73     -0.82
    2    2   24      2.90      0.15
    2    2   25     -0.66      0.81
    2    2   26     -0.21     -0.71
    2    2   27     -0.50     -0.53
    2    2   28     -1.68     -0.11
    2    2   29     -1.15      0.83
    2    2   30      0.05     -1.22
    0    3    1      1.13     46.44
    0    3    2     51.44      0.68
    0    3    4    -32.79      0.81
    0    3    5     -0.74      8.90
    0    3    6      3.41     -0.19
    0    3    7      0.32     23.01
    0    3    8    -15.72     -0.29
    0    3    9      0.46      7.44
    0    3   10    -17.64     -0.18
    0    3   11      0.29      9.95
    0    3   12      3.97     -1.93
    0    3   13     -1.85      6.76
    0    3   14     -5.52      0.41
    0    3   15      0.60     -9.26
    0    3   16     -0.15     -0.10
    0    3   17     -0.42      4.58
    0    3   18     -0.52     -0.39
    0    3   19     -0.04      5.79
    0    3   20      0.32      0.39
    0    3   21     -0.08      2.76
    0    3   22     -2.14     -0.17
    0    3   23      0.35      0.74
    0    3   24      0.69      1.50
    0    3   25      0.03      0.46
    0    3   26      2.53     -0.16
    0    3   27      0.58     -2.28
    0    3   28      1.88      0.11
    0    3   29      0.16     -1.98
    0    3   30     -1.28     -0.17
    1    3   30     -1.25     -1.27
    1    3   29      0.48      1.72
    1    3   28      0.59      0.62
    1    3   27     -1.25     -0.81
    1    3   26      0.79      2.01
    1    3   25     -2.56     -0.04
    1    3   24      2.47     -1.34
    1    3   23      2.16      1.16
    1    3   22     -5.15      1.50
    1    3   21      0.36      5.60
    1    3   20      2.57      2.61
    1    3   19      1.26      0.76
    1    3   18     -4.11     -3.27
    1    3   17     -0.27     -3.21
    1    3   16      0.58     -2.31
    1    3   15     -2.68      3.20
    1    3   14     -2.02      3.86
    1    3   13     -0.96     -0.39
    1    3   12     -6.49     -8.37
    1    3   11      1.47      1.32
    1    3   10     -2.22      3.93
    1    3    9     -7.77      5.72
    1    3    8    -11.90    -18.86
    1    3    7     -5.31      0.53
    1    3    5     12.43     15.87
    1    3    4    -19.20      8.94
    1    3    3      8.97    -26.23
    1    3    2      7.86      7.61
    1    3    1    -21.09     -7.18
    1    3    0    -14.37      1.08
    2    3   29      0.05      3.94
    2    3   28      0.59      1.25
    2    3   27     -1.97      0.08
    2    3   26      0.21     -0.26
    2    3   25     -0.13      2.42
    2    3   24      0.51     -1.68
    2    3   23      0.21      0.80
    2    3   22     -2.89     -1.14
    2    3   21      2.20     -0.10
    2    3   20     -2.21     -2.00
    2    3   19     -2.27      3.10
    2    3   18     -1.81      1.55
    2    3   17      0.35     -6.91
    2    3   16     -0.46      3.18
    2    3   15     -1.96      7.45
    2    3   14     -4.36     -3.21
    2    3   13      3.34     -6.19
    2    3   12     -0.44     -3.30
    2    3   11      6.52    -12.92
    2    3   10     -1.54     -4.08
    2    3    9    -19.25     -8.83
    2    3    8      4.66    -24.00
    2    3    7      3.26      6.17
    2    3    6     -1.95      3.11
    2    3    5     11.38     -9.79
    2    3    4     21.51     -8.11
    2    3    3     16.79     16.57
    2    3    2     -7.64    -32.20
    3    3    0     11.72     -4.64
    3    3    1      5.96     -7.45
    3    3    3     26.44     26.23
    3    3    4     39.92     -0.40
    3    3    5     21.63    -20.93
    3    3    6     -0.52     -4.10
    3    3    7     -6.34     -6.23
    3    3    8     14.72     -0.02
    3    3    9      5.02     -5.65
    3    3   10     -0.84     -4.84
    3    3   11    -10.81    -12.25
    3    3   12     -3.59      2.05
    3    3   13      7.15     -5.49
    3    3   14     -0.23     -1.39
    3    3   15      1.12      2.89
    3    3   16      0.00      0.05
    3    3   17     -0.42      1.69
    3    3   18     -0.26      2.87
    3    3   19      0.11     -1.15
    3    3   20     -5.57     -0.20
    3    3   21     -1.79      2.49
    3    3   22      0.09     -4.88
    3    3   23      1.53      1.37
    3    3   24     -2.49     -0.91
    3    3   25      1.41     -1.74
    3    3   26      0.26     -0.72
    3    3   27     -0.26      0.75
    3    3   28      7.72     -0.07
    3    3   29     -1.55      1.42
    0    4    0    -21.03      3.32
    0    4    1     -0.31    -11.15
    0    4    2     12.21     -2.00
    0    4    3      0.99    -46.91
    0    4    6     -6.98     -0.45
    0    4    7      0.51      5.91
    0    4    8     -8.06      0.02
    0    4    9      0.68      5.05
    0    4   10     -3.30     -0.33
    0    4   11     -0.39      0.23
    0    4   12     17.93      0.57
    0    4   13     -5.94     -3.52
    0    4   14     -3.19      0.37
    0    4   15      0.02     -4.49
    0    4   16     -0.54     -0.07
    0    4   17      0.30      4.81
    0    4   18     -1.82     -0.30
    0    4   19      0.94      1.07
    0    4   20     -3.43      0.21
    0    4   21     -0.34      0.87
    0    4   22      0.06     -0.08
    0    4   23     -0.43     -0.47
    0    4   24     -0.88      0.19
    0    4   25      0.14     -4.16
    0    4   26      2.06     -0.61
    0    4   27     -0.02     -4.16
    0    4   28      3.07      0.01
    0    4   29      0.17     -6.79
    1    4   29      1.93     -1.00
    1    4   28     -0.24     -1.03
    1    4   27     -3.27     -0.28
    1    4   26      1.11      3.37
    1    4   25     -2.71     -4.18
    1    4   24      2.28     -0.71
    1    4   23      0.70      0.43
    1    4   22     -1.79      0.30
    1    4   21      1.47      1.56
    1    4   20     -1.30      1.24
    1    4   19     -0.60     -1.62
    1    4   18     -2.77     -5.40
    1    4   17     -4.43     -2.29
    1    4   16     -0.36     -8.02
    1    4   15     -4.56      7.85
    1    4   14     -1.91      3.79
    1    4   13     -9.82     -1.31
    1    4   12      7.45     -3.97
    1    4   11      1.02     -3.67
    1    4   10      5.22     -2.36
    1    4    9      1.49      4.33
    1    4    8     -1.48      4.42
    1    4    7     -4.65      5.73
    1    4    6     -7.09      8.73
    1    4    5    -16.08     -7.09
    1    4    2     -4.35    -21.62
    1    4    1    -29.28    -17.06
    1    4    0     34.27      3.04
    2    4   29     -0.35      5.85
    2    4   28     -0.68      1.42
    2    4   27     -1.20      1.11
    2    4   26      0.00      1.22
    2    4   25     -1.09      4.33
    2    4   24      1.97      0.05
    2    4   23     -2.97     -1.53
    2    4   22      1.91     -1.59
    2    4   21      1.57     -4.18
    2    4   20      1.04      0.09
    2    4   19     -0.85      1.12
    2    4   18     -2.42     -3.02
    2    4   17     -6.79     -4.39
    2    4   16     -1.79     -1.91
    2    4   15     -0.91      8.07
    2    4   14      3.64     -1.87
    2    4   13     -6.92      6.04
    2    4   12     -0.76     -5.16
    2    4   11     14.17     -3.99
    2    4   10      4.48     -4.29
    2    4    9     -3.19     -9.88
    2    4    8     -3.13     -1.30
    2    4    7     -9.67      0.17
    2    4    5    -28.47    -16.98
    2    4    4     -2.41      0.61
    2    4    3    -19.06     14.08
    2    4    2      4.05    -26.81
    2    4    1     -5.97      5.48
    2    4    0     20.03     -0.28
    2    4    6    -18.85      5.75
    3    4   29      0.73      4.24
    3    4   28      7.37      1.78
    3    4   27      0.62      2.42
    3    4   26     -1.94      1.50
    3    4   25      1.17      2.38
    3    4   24     -0.65     -2.84
    3    4   23     -0.70      0.01
    3    4   22      4.49     -2.63
    3    4   21     -2.40     -2.23
    3    4   20      1.51      2.90
    3    4   19      0.57     -2.09
    3    4   18      4.23     -0.18
    3    4   17     -3.90      0.90
    3    4   16     -1.55     -2.07
    3    4   15      3.75      2.80
    3    4   14      1.87      2.73
    3    4   13      0.78      2.30
    3    4   12     -2.92     -3.66
    3    4   11      2.31     -8.27
    3    4   10    -12.02     -1.90
    3    4    9      9.64    -12.72
    3    4    8     -5.18     -6.01
    3    4    7     -9.56     -4.40
    3    4    6    -15.54     10.57
    3    4    5     -9.87     -1.44
    3    4    4      9.18      1.84
    3    4    3    -14.12      7.70
    3    4    2     -1.21      6.22
    3    4    1    -20.86      9.56
    3    4    0     -3.42     -1.72
    4    4    0    -23.77     -0.11
    4    4    1     -5.27      6.21
    4    4    3     -9.92     -9.73
    4    4    4      5.71     -0.75
    4    4    5     -8.45      8.78
    4    4    6      0.62      3.62
    4    4    7      4.86      4.84
    4    4    8    -16.91     -0.30
    4    4    9     16.94    -17.73
    4    4   10      0.16      5.45
    4    4   11     -3.42     -4.23
    4    4   12     -7.45     -0.77
    4    4   13      2.52     -2.91
    4    4   14      0.03      4.68
    4    4   15     -0.77     -1.16
    4    4   16     -5.37     -0.05
    4    4   17     -2.27      2.80
    4    4   18      0.43     -2.14
    4    4   19      1.80      1.95
    4    4   20      8.20      0.02
    4    4   21      1.08     -0.60
    4    4   22      0.32     -0.29
    4    4   23      0.35      0.24
    4    4   24     -2.29      0.01
    4    4   25      1.16     -1.14
    4    4   26      0.52     -0.85
    4    4   27      1.21      1.05
    4    4   28      3.25     -0.23
    4    4   29      1.76     -1.91
    0    5    0     29.96      4.43
    0    5    1     -1.44    -10.12
    0    5    2     -4.56     -3.98
    0    5    3     -0.53     -0.79
    0    5    4     46.42     -0.72
    0    5    6     -7.65     -0.60
    0    5    7      0.47     -3.13
    0    5    8      8.16      0.84
    0    5    9      0.26      0.86
    0    5   10     10.22     -0.42
    0    5   11      1.38     -5.60
    0    5   12      1.18      0.33
    0    5   13     -1.47     -4.74
    0    5   14     -5.39      0.38
    0    5   15      0.48      2.08
    0    5   16     -3.05     -0.46
    0    5   17     -0.03      1.01
    0    5   18     -0.89      0.08
    0    5   19      0.14      0.52
    0    5   20     -4.56     -0.64
    0    5   21     -0.31     -3.21
    0    5   22      0.23      0.08
    0    5   23     -0.93     -1.44
    0    5   24     -5.12     -0.23
    0    5   25     -0.13      3.46
    0    5   26     -3.12      0.10
    0    5   27     -0.14      1.41
    0    5   28      2.63      0.17
    0    5   29      0.20     -3.16
    1    5   29     -0.54     -1.97
    1    5   28     -0.95     -1.67
    1    5   27     -2.85      4.50
    1    5   26     -2.41      4.55
    1    5   25     -2.77     -1.71
    1    5   24     -1.70      0.79
    1    5   23     -1.38     -0.65
    1    5   22     -2.28     -0.45
    1    5   21     -0.71     -0.83
    1    5   20     -0.35     -1.91
    1    5   19      1.62     -0.10
    1    5   18      1.44     -1.31
    1    5   17      0.08     -2.99
    1    5   16     -2.17     -4.50
    1    5   15      2.81      1.99
    1    5   14     -8.74     -3.60
    1    5   13     -3.76     -2.93
    1    5   12      0.89      2.13
    1    5   11     -0.18     -6.39
    1    5   10     -0.97     -9.69
    1    5    9     -6.56      2.20
    1    5    8     15.19      3.79
    1    5    7      1.67     10.88
    1    5    6      4.82     19.57
    1    5    5      7.22    -19.75
    1    5    4      1.42     -9.08
    1    5    3    -15.43     15.35
    1    5    2      1.91      1.74
    1    5    1     -6.51     -7.41
    1    5    0     34.50      2.31
    2    5   29     -3.81      2.56
    2    5   28     -2.50      0.04
    2    5   27     -1.37     -0.68
    2    5   26      0.05     -0.64
    2    5   25      0.43      2.00
    2    5   24      0.92      4.78
    2    5   23     -3.08     -1.99
    2    5   22     -0.15      0.37
    2    5   21      0.84     -2.43
    2    5   20      3.66     -3.92
    2    5   19      3.32      2.17
    2    5   18      0.25     -3.36
    2    5   17     -3.31     -2.30
    2    5   16     -1.23     -3.18
    2    5   15      3.45    -11.09
    2    5   14     -3.83     -4.67
    2    5   13     -5.86      4.22
    2    5   12    -10.27      2.04
    2    5   11     -0.33      0.76
    2    5   10      5.17     -8.61
    2    5    9      2.97     -4.97
    2    5    8      1.53      5.05
    2    5    7      2.52      3.48
    2    5    6      4.75     -2.90
    2    5    5     -4.71      7.56
    2    5    4    -19.48     19.50
    2    5    3      2.68     -3.23
    2    5    2      1.54     11.86
    2    5    1     -5.10      0.78
    2    5    0     -5.04      1.45
    3    5   29     -0.18      3.89
    3    5   28      1.98     -3.37
    3    5   27      0.44     -1.47
    3    5   26      0.83      1.41
    3    5   25      1.07      3.52
    3    5   24      3.41      0.71
    3    5   23     -0.11     -1.49
    3    5   22     -0.21     -0.92
    3    5   21     -1.89     -1.98
    3    5   20     -1.02     -0.72
    3    5   19      2.16     -2.65
    3    5   18      7.52     -3.16
    3    5   17     -3.37     -0.81
    3    5   16     -3.21     -3.50
    3    5   15      3.90     -4.65
    3    5   14     -5.32      1.13
    3    5   13     -6.86     -3.67
    3    5   12     -2.26     -2.80
    3    5   11      2.61     -1.07
    3    5   10      1.33      0.77
    3    5    9      0.76      1.16
    3    5    8     -0.94     -4.88
    3    5    7      7.76      0.87
    3    5    6     -3.10     10.37
    3    5    5      4.33     28.31
    3    5    4    -10.59      8.82
    3    5    3     -6.67     -7.38
    3    5    2    -17.61     15.98
    3    5    1     -3.21     -1.62
    3    5    0    -14.22      1.47
    4    5   28     -2.44     -1.60
    4    5   27     -0.48      1.68
    4    5   26      0.87     -2.39
    4    5   25      0.84     -0.48
    4    5   24      0.25     -2.40
    4    5   23     -1.07     -0.84
    4    5   22     -0.81     -0.44
    4    5   21     -1.74     -1.24
    4    5   20      1.42     -0.68
    4    5   19      2.39     -2.10
    4    5   18      3.02     -0.97
    4    5   17     -4.31     -2.34
    4    5   16     -4.93      2.26
    4    5   15      0.09     -2.31
    4    5   14     -0.17     -0.87
    4    5   13      0.96     -4.26
    4    5   12      0.98     -5.10
    4    5   11     -1.94      5.60
    4    5   10      3.32      8.06
    4    5    9      0.97     -0.93
    4    5    8     -0.69     -0.09
    4    5    7      1.79     15.49
    4    5    6     -4.43      0.46
    4    5    5      0.22      8.70
    4    5    4     -0.65     12.44
    4    5    3     -4.27     -2.79
    4    5    2     -1.40     -7.20
    4    5    1     -0.02      1.49
    4    5    0    -23.59      0.48
    5    5    0      3.82     -1.23
    5    5    1     -4.32      3.66
    5    5    2      0.74     -6.60
    5    5    3      2.65      2.50
    5    5    4     13.24      0.36
    5    5    5     -0.43     -0.91
    5    5    6     -1.74     -4.99
    5    5    7      3.56      2.13
    5    5    8      2.37     -0.03
    5    5    9    -13.02     13.19
    5    5   10      0.13     -4.27
    5    5   11      1.01      1.04
    5    5   12      5.03      0.83
    5    5   13      0.02     -0.54
    5    5   14      0.22      2.20
    5    5   15      0.46      0.45
    5    5   16     -2.94      0.20
    5    5   17      3.70     -3.26
    5    5   18     -0.34      1.18
    5    5   19     -3.08     -3.28
    5    5   20     -1.28      0.07
    5    5   21     -2.08      1.54
    5    5   22      0.29     -2.01
    5    5   23      0.04      0.19
    5    5   24     -3.31      0.06
    5    5   25      0.57     -1.01
    5    5   26      0.10     -6.23
    5    5   27     -0.16      0.25
    5    5   28     -6.53     -0.02
    0    6    0     33.94     -0.22
    0    6    1      0.35      0.46
    0    6    2      0.49     -1.34
    0    6    3     -0.38      4.57
    0    6    4     23.04      0.25
    0    6    5      0.22     -6.96
    0    6    6     -9.23     -0.18
    0    6    7     -0.46      0.00
    0    6    8      8.56      0.94
    0    6    9     -0.37      7.97
    0    6   10     25.42      0.15
    0    6   11      0.70      6.31
    0    6   12     -1.19     -2.58
    0    6   13      0.87      3.54
    0    6   14      7.31     -1.85
    0    6   15     -0.41      3.74
    0    6   16      0.79     -0.47
    0    6   17      0.25      1.31
    0    6   18      1.17      1.19
    0    6   19     -0.57      3.04
    0    6   20     -2.34     -0.03
    0    6   21      0.01     -1.65
    0    6   22      1.74     -0.43
    0    6   23     -0.20      0.94
    0    6   24      2.40     -0.16
    0    6   25      0.19      7.66
    0    6   26     -0.10      0.51
    0    6   27      0.04      3.07
    0    6   28      5.83     -0.13
    0    6   29     -0.06      1.15
    1    6   29      0.60     -2.72
    1    6   28      2.21     -2.21
    1    6   27      1.79      5.40
    1    6   26     -0.34      3.23
    1    6   25      1.03      2.06
    1    6   24      1.43      0.67
    1    6   23      2.34      1.47
    1    6   22     -1.44      1.94
    1    6   21     -1.99      1.61
    1    6   20      3.24      2.91
    1    6   19      2.09      1.30
    1    6   18      2.64      2.70
    1    6   17      6.74     -1.29
    1    6   16     -1.75     -0.78
    1    6   15      4.79     -1.25
    1    6   14     -0.62     -9.59
    1    6   13      0.62      2.53
    1    6   12      7.97     -0.37
    1    6   11      4.07      6.64
    1    6   10     -3.34     -8.56
    1    6    9     -9.90     13.46
    1    6    8      6.07     10.48
    1    6    7    -11.89      6.23
    1    6    6     11.42      6.53
    1    6    4     -1.20     -8.62
    1    6    3     -4.57      1.55
    1    6    2     11.47     -5.49
    1    6    1      9.75     -0.43
    1    6    0     12.42     -4.83
    1    6    5      9.97    -21.87
    2    6   28     -2.84      0.81
    2    6   27     -1.42     -1.70
    2    6   26     -2.52     -2.64
    2    6   25      2.25     -0.06
    2    6   24     -0.91      1.54
    2    6   23      1.20      2.46
    2    6   22      0.61      3.46
    2    6   21      1.67      3.85
    2    6   20      3.18     -1.13
    2    6   19      0.26      1.95
    2    6   18     -0.77      0.07
    2    6   17      3.04     -2.08
    2    6   16     -0.82     -0.28
    2    6   15      4.58    -13.23
    2    6   14     -4.44     -6.03
    2    6   13      1.00     11.80
    2    6   12     -3.99      8.73
    2    6   11    -10.31      8.80
    2    6   10     -3.88     -4.56
    2    6    9      6.97      2.05
    2    6    8     -8.85     10.34
    2    6    7      6.22     -3.22
    2    6    6      9.13    -16.16
    2    6    5     -4.80      4.13
    2    6    4     -2.83     -1.61
    2    6    3      2.99    -14.59
    2    6    2      6.90     -4.90
    2    6    1     -7.09     -1.16
    2    6    0    -14.02      0.29
    3    6   28     -6.07     -4.37
    3    6   27     -4.51     -5.10
    3    6   26     -2.60     -0.14
    3    6   25     -1.64      0.33
    3    6   24      3.15     -0.81
    3    6   23      1.18      0.71
    3    6   22     -3.04     -1.47
    3    6   21     -1.19      5.89
    3    6   20     -2.99     -1.25
    3    6   19      0.44      1.57
    3    6   18      1.95     -0.96
    3    6   17     -0.98      1.67
    3    6   16     -2.77     -0.45
    3    6   15      2.06      0.61
    3    6   14     -6.36      2.55
    3    6   13     -6.65      2.55
    3    6   12     -0.77      4.48
    3    6   11      2.52      1.72
    3    6   10      8.24      4.11
    3    6    9     -0.92     -1.72
    3    6    8     -9.13      3.79
    3    6    7     16.40    -10.06
    3    6    6    -11.12     -1.52
    3    6    5     -1.86     21.93
    3    6    4     -0.42     -8.89
    3    6    3    -16.17    -11.78
    3    6    2     -8.12     -4.52
    3    6    1     -4.76      4.10
    3    6    0      3.20      3.15
    4    6   28     -3.36     -2.45
    4    6   27     -3.29     -2.06
    4    6   26     -0.48     -2.36
    4    6   25     -4.92     -0.58
    4    6   24      2.31     -2.78
    4    6   23     -1.17     -1.88
    4    6   22     -1.21     -0.40
    4    6   21     -1.02      6.47
    4    6   20     -1.90      0.67
    4    6   19      0.87      5.26
    4    6   18     -2.93      3.70
    4    6   17     -2.26      1.38
    4    6   16     -0.73      0.09
    4    6   15     -0.12      4.90
    4    6   14      0.60     -6.28
    4    6   13     -2.48     -2.57
    4    6   12      4.96     -0.24
    4    6   11      6.30      6.74
    4    6   10      2.83     11.24
    4    6    9     -6.09     -5.08
    4    6    8     -0.95      7.34
    4    6    7     -0.74     -2.04
    4    6    6    -10.17      3.35
    4    6    5     -5.95      4.82
    4    6    4     -4.12      7.87
    4    6    3     -4.99      2.89
    4    6    2      9.86     -8.62
    4    6    1     -4.63      1.47
    4    6    0      2.16      0.93
    5    6   28      0.98     -2.65
    5    6   27     -0.73     -2.51
    5    6   26      3.63     -3.52
    5    6   25     -2.25      1.28
    5    6   24     -1.25      0.19
    5    6   23      2.33      0.53
    5    6   22      2.73      0.87
    5    6   21     -1.90      3.82
    5    6   20     -1.90      4.15
    5    6   19     -2.32      4.01
    5    6   18     -0.19      1.42
    5    6   17      2.25     -0.91
    5    6   16     -0.22     -3.46
    5    6   15     -0.05      1.78
    5    6   14      2.86     -1.21
    5    6   13     -1.42      0.32
    5    6   12      2.21      1.28
    5    6   11     -0.12      1.75
    5    6   10     -5.18     -1.57
    5    6    9     -6.25      8.71
    5    6    8      0.12     13.02
    5    6    7     -1.18     -8.67
    5    6    6      4.29     -0.46
    5    6    5     -3.80     -8.08
    5    6    4     13.18      9.68
    5    6    3      6.71     -0.92
    5    6    2     -1.12     -1.76
    5    6    1     -3.20     -5.10
    5    6    0     16.62     -0.94
    6    6    0     -5.51     -0.89
    6    6    1      9.25     -9.34
    6    6    2     -0.25      4.58
    6    6    3     -6.50     -7.75
    6    6    4     15.02     -0.10
    6    6    5     10.95    -11.27
    6    6    6     -0.95     -6.22
    6    6    7     -2.43     -3.56
    6    6    8      7.77     -0.18
    6    6    9      0.09     -1.46
    6    6   10      0.77      3.86
    6    6   11     -1.60     -1.87
    6    6   12     -7.56      0.03
    6    6   13     -1.56      1.89
    6    6   14     -0.35      2.19
    6    6   15     -0.35      0.07
    6    6   16      1.14      0.06
    6    6   17     -2.63      1.76
    6    6   18      0.24     -0.88
    6    6   19      0.83      1.40
    6    6   20      1.22     -0.16
    6    6   21     -0.41      3.10
    6    6   22     -0.06      3.24
    6    6   23      2.89      2.79
    6    6   24     -0.51      0.31
    6    6   25      0.03     -0.06
    6    6   26      0.35     -1.56
    6    6   27      2.73      2.63
    0    7    0      3.97     -3.03
    0    7    1      0.79      0.88
    0    7    2     -6.74     -0.38
    0    7    3      1.29     12.97
    0    7    4     -2.77     -0.45
    0    7    5     -0.14      2.11
    0    7    7     -1.16      6.06
    0    7    9     -0.52      1.39
    0    7   10     10.20      0.68
    0    7   11     -0.06      1.58
    0    7   12    -10.89     -1.01
    0    7   13      0.48      3.93
    0    7   14      3.80     -0.95
    0    7   15     -0.59     -2.08
    0    7   16      5.25      0.32
    0    7   17      0.49      0.13
    0    7   18      3.76      0.44
    0    7   19     -0.54     -0.32
    0    7   20      0.01      0.32
    0    7   21      0.05     -1.62
    0    7   22      1.70     -1.02
    0    7   23     -0.09     -0.27
    0    7   24      1.33     -0.30
    0    7   25      0.13     -0.08
    0    7   26     -0.29      0.54
    0    7   27      0.12      1.22
    0    7   28      1.50     -0.07
    1    7   28      1.63     -2.27
    1    7   27      1.34      1.03
    1    7   26      1.52     -1.49
    1    7   25      3.20     -0.84
    1    7   24      0.48     -1.17
    1    7   23      2.32     -0.81
    1    7   22     -1.88     -0.85
    1    7   21     -1.36     -0.86
    1    7   20      3.46      1.51
    1    7   19      2.61     -0.30
    1    7   18      0.11      0.46
    1    7   17      3.81      1.12
    1    7   16      1.97      1.39
    1    7   15     -0.83     -1.78
    1    7   14      3.81      1.43
    1    7   13     -0.13     -4.17
    1    7   12      4.12     -0.81
    1    7   11      9.31     -0.53
    1    7   10     -9.36     -7.30
    1    7    9     -1.23      9.55
    1    7    8    -11.26      5.91
    1    7    7    -14.00      2.92
    1    7    6      8.71      1.94
    1    7    5      9.33     -2.74
    1    7    4     -6.18     -3.07
    1    7    3      6.23     -0.71
    1    7    2      2.64     -6.44
    1    7    1      0.36      6.71
    1    7    0    -15.39    -11.09
    2    7   28      1.60      0.51
    2    7   27     -0.31     -0.33
    2    7   26     -1.50     -2.08
    2    7   25      2.81     -1.25
    2    7   24      0.03     -0.39
    2    7   23     -1.67     -0.80
    2    7   22      1.83      3.47
    2    7   21      2.17      0.29
    2    7   20     -2.38     -0.80
    2    7   19     -1.33      1.20
    2    7   18     -3.12      0.37
    2    7   17      4.82     -1.01
    2    7   16      3.55      1.15
    2    7   15      2.07     -4.01
    2    7   14      5.29     -1.96
    2    7   13      5.24     -0.16
    2    7   12      2.60      8.58
    2    7   11     -5.60     -0.19
    2    7   10     -9.71      0.08
    2    7    9      0.98      1.67
    2    7    8     -8.01      3.74
    2    7    7      9.73      0.86
    2    7    6     -6.91     -1.18
    2    7    5     -5.71      1.09
    2    7    4      2.34     -5.07
    2    7    3     10.69    -16.08
    2    7    2      8.15     -3.29
    2    7    1    -10.67      7.30
    2    7    0    -17.55     -4.25
    3    7   28     -4.44      1.39
    3    7   27     -0.64      1.76
    3    7   26     -4.34      2.99
    3    7   25      0.23     -1.22
    3    7   24      3.38      1.73
    3    7   23     -3.11     -0.63
    3    7   22     -0.54      2.18
    3    7   21     -1.65      0.47
    3    7   20     -1.68      0.00
    3    7   19      0.82     -0.46
    3    7   18     -1.66     -0.20
    3    7   17      0.17      2.82
    3    7   16      1.99     -0.46
    3    7   15      2.52      1.67
    3    7   14      2.37      2.73
    3    7   13      2.84      1.75
    3    7   12      0.88      5.14
    3    7   11      0.58     -0.24
    3    7   10      4.28      3.87
    3    7    9    -10.58      0.86
    3    7    8     -6.34      5.98
    3    7    7      7.76     -1.44
    3    7    6    -21.28      3.07
    3    7    5     -7.81      4.40
    3    7    4      4.14     -9.81
    3    7    3     -0.31    -16.87
    3    7    2     -1.05     -1.80
    3    7    1      3.75      7.09
    3    7    0      9.31      2.02
    4    7   28     -2.30      3.59
    4    7   27      2.82      0.75
    4    7   26     -3.41      4.28
    4    7   25     -3.38      0.33
    4    7   23      0.04     -1.65
    4    7   22     -1.01     -0.31
    4    7   21      0.86      1.69
    4    7   20      0.48      0.57
    4    7   19     -3.05      1.05
    4    7   18     -4.22      3.52
    4    7   17     -1.43      0.46
    4    7   16      7.36     -2.33
    4    7   15     -0.41      5.75
    4    7   14      0.08     -1.92
    4    7   13      1.36     -0.77
    4    7   12      0.33      0.83
    4    7   11      5.38      5.75
    4    7   10      1.33      7.09
    4    7    9    -13.63      0.08
    4    7    8     -8.38     -0.10
    4    7    7     -7.37     -2.75
    4    7    6     -6.10      0.09
    4    7    5    -12.39      2.90
    4    7    4     -5.46     -2.07
    4    7    3      1.82      0.71
    4    7    2      9.13     -5.65
    4    7    1      6.85     -2.80
    4    7    0      6.85      1.39
    4    7   24      3.60      1.80
    5    7   27      1.80     -3.29
    5    7   26      2.14      4.00
    5    7   25     -1.65      3.44
    5    7   23      4.24     -1.51
    5    7   22     -0.52     -1.85
    5    7   21      1.84     -1.55
    5    7   20     -2.67      1.25
    5    7   19     -0.64      2.29
    5    7   18      3.49     -1.44
    5    7   17     -0.95     -0.64
    5    7   16      2.71     -1.06
    5    7   15     -2.53     -0.95
    5    7   14      1.76      0.24
    5    7   13     -0.47     -0.75
    5    7   12      1.87     -0.53
    5    7   11      0.10      2.03
    5    7   10     -4.43     -3.94
    5    7    9      1.02      3.09
    5    7    8    -10.69      1.10
    5    7    7     -2.54     -6.27
    5    7    6      6.93     -5.97
    5    7    5     -9.89      2.64
    5    7    4      2.73      0.80
    5    7    3      4.41      3.71
    5    7    2     -2.77     -6.15
    5    7    1     -4.09     -3.65
    5    7    0     16.17     -0.09
    5    7   24      2.31     -0.09
    6    7   27      1.01      1.36
    6    7   26      2.45     -0.29
    6    7   25      0.38     -0.21
    6    7   24     -0.07     -4.19
    6    7   23      5.03     -1.78
    6    7   22      0.77     -1.46
    6    7   21      4.03     -2.16
    6    7   20      2.09      0.33
    6    7   19      3.64     -0.78
    6    7   18      1.64     -0.99
    6    7   17     -3.61      1.52
    6    7   16     -0.28     -4.03
    6    7   15      2.60     -4.02
    6    7   14      4.22      3.38
    6    7   13     -2.54     -3.66
    6    7   12     -1.11     -0.13
    6    7   11     -2.84     -2.08
    6    7   10      0.62      0.53
    6    7    9     13.16     -1.29
    6    7    8      0.89     -7.79
    6    7    7      5.12     -3.06
    6    7    6     -3.75     -9.37
    6    7    5      5.71      1.14
    6    7    4     -1.83      4.67
    6    7    3     -9.47     -2.08
    6    7    2      0.76      0.02
    6    7    1      4.32      1.83
    6    7    0     -6.56      0.08
    7    7    0    -14.66      0.91
    7    7    1     -6.63      6.30
    7    7    2     -0.40      9.87
    7    7    3     -2.04     -2.45
    7    7    4    -17.45     -0.16
    7    7    5      0.58     -0.32
    7    7    6     -0.04     -4.88
    7    7    7      5.66      5.11
    7    7    8      0.00      0.10
    7    7    9      9.07     -8.85
    7    7   10     -0.02     -0.75
    7    7   11     -2.96     -2.91
    7    7   12      5.98     -0.09
    7    7   13      0.23     -0.33
    7    7   14      0.13      0.08
    7    7   15      0.72     -0.03
    7    7   16     -5.07      0.33
    7    7   17      1.73     -1.60
    7    7   18      0.07     -0.34
    7    7   19     -0.87     -0.46
    7    7   20      5.99      0.08
    7    7   21      6.31     -5.75
    7    7   22     -0.17     -2.91
    7    7   23      2.09      1.85
    7    7   24      1.28     -0.76
    7    7   25      1.03     -0.95
    7    7   26     -0.18     -5.19
    0    8    0    -17.30     -0.82
    0    8    1     -0.43     12.78
    0    8    2     -1.37      0.83
    0    8    3     -0.59     14.16
    0    8    4     -2.67     -0.21
    0    8    5     -0.43     -0.79
    0    8    6     -0.32      0.92
    0    8    7     -0.15     -8.47
    0    8    8     -7.09     -0.28
    0    8    9     -0.34     -1.84
    0    8   10     -4.73      0.48
    0    8   11     -0.18      4.40
    0    8   12    -10.85      0.83
    0    8   13      0.42     11.64
    0    8   14     -2.78     -0.26
    0    8   15      0.54     -0.16
    0    8   16      0.50      0.42
    0    8   17     -0.03     -2.57
    0    8   18     -0.97     -0.52
    0    8   19     -0.62     -4.43
    0    8   20     -2.79      0.06
    0    8   21     -0.04     -2.38
    0    8   22      1.34     -0.55
    0    8   23      0.18      1.98
    0    8   24     -2.39      0.00
    0    8   25      0.11     -3.01
    0    8   26     -0.90      0.19
    0    8   27      0.04     -0.40
    0    8   28     -3.32     -0.04
    1    8   28     -2.03      1.74
    1    8   27     -1.58     -3.84
    1    8   26     -1.13     -3.09
    1    8   25      0.61     -1.77
    1    8   24     -2.05     -0.31
    1    8   23     -1.32      0.41
    1    8   22     -0.66     -1.24
    1    8   21     -2.22     -3.72
    1    8   20      0.78     -2.18
    1    8   19      2.00     -1.28
    1    8   18     -5.49     -1.49
    1    8   17     -1.63      1.04
    1    8   16     -0.37      1.91
    1    8   15     -2.76      2.11
    1    8   14      1.37     11.47
    1    8   13     -1.75      1.70
    1    8   12     -2.20     -2.60
    1    8   11      8.09     -1.55
    1    8   10     -7.75     -7.23
    1    8    9      2.09     -0.82
    1    8    8    -15.43     -2.20
    1    8    7     -9.49    -10.87
    1    8    6      8.20      3.69
    1    8    5      8.27      6.27
    1    8    4     -3.62     -7.01
    1    8    3     -3.16      2.51
    1    8    2      7.70     -0.08
    1    8    1    -11.51     18.62
    1    8    0    -12.75     -5.37
    2    8   26     -3.23     -3.08
    2    8   25      1.75     -1.70
    2    8   24      0.48      0.58
    2    8   23     -0.63     -3.25
    2    8   22      1.30      2.84
    2    8   21      2.69     -2.74
    2    8   20     -4.13     -1.85
    2    8   19      0.25      1.34
    2    8   18     -2.51     -1.47
    2    8   17      3.51     -1.32
    2    8   16      0.58      1.32
    2    8   15     -0.22      5.64
    2    8   14      1.33      2.68
    2    8   13      2.02     -6.44
    2    8   12     -3.32     -3.71
    2    8   11      2.73     -3.56
    2    8   10     -2.57     -0.20
    2    8    9     -5.11     -5.63
    2    8    8      0.83      0.90
    2    8    7     11.33     -5.13
    2    8    6    -10.38     13.35
    2    8    5     -2.96      4.21
    2    8    4      0.93    -12.86
    2    8    3      6.30     -6.05
    2    8    2     16.74     -3.35
    2    8    1     -8.46     15.60
    2    8    0     -1.29     -3.42
    2    8   27     -2.70     -2.20
    3    8   27      2.41      2.95
    3    8   25      2.22     -1.95
    3    8   24      1.74      1.01
    3    8   23     -0.22     -0.03
    3    8   22      2.36      4.93
    3    8   21      4.51     -4.75
    3    8   20     -1.35      0.48
    3    8   19      6.09     -1.88
    3    8   18     -1.70     -1.21
    3    8   17     -0.21      1.31
    3    8   16     -3.09     -0.54
    3    8   15      1.72     -1.85
    3    8   14     -3.60     -1.07
    3    8   13      5.82     -0.25
    3    8   12     -4.39     -3.04
    3    8   11      2.45      0.86
    3    8   10      2.30      3.53
    3    8    9     -4.31     -0.85
    3    8    8      9.26      8.56
    3    8    7      3.49     -2.36
    3    8    6    -14.73      6.16
    3    8    5     -4.24     -4.24
    3    8    4      5.12     -9.93
    3    8    3      6.63     -7.61
    3    8    2      0.84    -11.20
    3    8    1     11.75     10.52
    3    8    0      5.05      0.30
    3    8   26     -1.43     -1.43
    4    8   27      7.38      1.78
    4    8   23      0.14      3.76
    4    8   22      1.44      0.29
    4    8   21      3.90     -0.54
    4    8   20     -0.55      1.19
    4    8   19     -1.87     -2.62
    4    8   18     -5.23      2.22
    4    8   17      1.38     -3.14
    4    8   16      2.79     -1.86
    4    8   15      1.23      1.09
    4    8   14     -8.57      0.81
    4    8   13      4.16      1.44
    4    8   12     -5.94      1.36
    4    8   11      0.71      1.97
    4    8   10      2.82      8.60
    4    8    9      0.77     -2.95
    4    8    8     -1.62     -2.49
    4    8    7     -5.91     -4.69
    4    8    6      6.02     -4.30
    4    8    5    -11.50      1.51
    4    8    4     -4.68     -3.17
    4    8    3     -0.65      4.64
    4    8    2     -2.12    -10.90
    4    8    1     15.24      5.00
    4    8    0    -11.52      0.77
    4    8   24      3.40      2.89
    4    8   25     -0.80     -0.45
    4    8   26     -2.00      2.58
    5    8   27      4.20      0.43
    5    8   26     -0.18      4.60
    5    8   22     -3.97      0.02
    5    8   21     -0.03      2.88
    5    8   20     -2.36     -1.56
    5    8   19     -1.63      0.43
    5    8   18      3.51     -1.21
    5    8   17      1.56     -1.60
    5    8   16     -3.07      3.67
    5    8   15     -0.89     -1.67
    5    8   14     -3.91      0.26
    5    8   13      0.06      1.34
    5    8   12     -0.37      1.03
    5    8   11     -0.34     -3.24
    5    8   10     -3.02      3.77
    5    8    9      2.52     -9.38
    5    8    8    -10.11      0.19
    5    8    7     -5.03     -0.56
    5    8    6     13.82     -0.38
    5    8    5    -13.70     11.09
    5    8    4      1.51     -1.66
    5    8    3     -1.07     10.10
    5    8    2     -8.29     -4.11
    5    8    1     -5.28      2.50
    5    8    0     -3.06      0.07
    5    8   23     -4.57      1.59
    5    8   24      2.21      2.78
    5    8   25     -1.16      3.10
    6    8   26     -0.91      1.55
    6    8   23     -3.51     -1.09
    6    8   22     -2.02     -0.38
    6    8   21     -0.81      2.07
    6    8   20     -0.01     -0.13
    6    8   19      2.28     -0.34
    6    8   18      0.44      0.99
    6    8   17     -0.97      0.63
    6    8   16     -3.16     -5.58
    6    8   15      4.24     -0.88
    6    8   14      3.08      0.89
    6    8   13     -2.24     -5.78
    6    8   12     -3.05     -1.15
    6    8   11     -3.86     -4.49
    6    8   10     -3.75      6.21
    6    8    9      1.93      3.15
    6    8    8     -1.51     -1.34
    6    8    7     -1.12      0.59
    6    8    6      4.84      4.60
    6    8    5      0.47      8.25
    6    8    4      1.86      4.41
    6    8    3     -7.55      1.36
    6    8    2      1.68     -6.39
    6    8    1     -1.51     -0.64
    6    8    0      0.14      0.19
    6    8   24     -3.00     -1.77
    6    8   25     -2.38      2.16
    7    8   26     -1.93     -1.25
    7    8   25     -0.32      0.81
    7    8   24     -0.93     -3.26
    7    8   23     -0.79     -1.06
    7    8   22     -2.35     -2.19
    7    8   21      2.59     -0.94
    7    8   20      1.52      2.65
    7    8   19     -0.98     -2.66
    7    8   18     -1.45     -0.80
    7    8   17      3.24     -2.41
    7    8   16     -4.87     -6.23
    7    8   15      1.04      0.27
    7    8   14      1.27     -3.35
    7    8   13     -1.62     -1.90
    7    8   12     -0.27      2.42
    7    8   11      0.29     -2.00
    7    8   10     -2.58      1.14
    7    8    9     -2.63      3.77
    7    8    8      1.39     -2.14
    7    8    7     -0.53      4.53
    7    8    6      5.51      2.19
    7    8    5      4.77      0.74
    7    8    4     -7.90     -6.15
    7    8    3      6.15     -6.32
    7    8    2      9.57      0.20
    7    8    1     -6.56     -1.24
    7    8    0     -0.35      0.73
    8    8    0      7.71      0.31
    8    8    1      1.97     -1.58
    8    8    2      0.08     -4.19
    8    8    3      6.83      5.52
    8    8    4     -2.09      0.24
    8    8    5      3.92     -4.50
    8    8    6     -0.03     -3.99
    8    8    7      0.35     -0.59
    8    8    8      5.41      0.01
    8    8    9     -3.48      3.91
    8    8   10     -0.21     -6.08
    8    8   11     -1.16     -1.53
    8    8   12     -1.10     -0.06
    8    8   13      1.37     -0.94
    8    8   14     -0.44     -0.58
    8    8   15     -0.13      0.51
    8    8   16     -1.58     -0.03
    8    8   17     -0.63      0.77
    8    8   18     -0.04     -4.63
    8    8   19     -3.44     -3.26
    8    8   20     -4.12     -0.04
    8    8   21      4.46     -3.86
    8    8   22     -0.01      1.49
    8    8   23     -1.27     -1.49
    8    8   24      0.64     -0.40
    8    8   25      0.19      0.20
    0    9    0    -19.26      0.13
    0    9    1      0.03     -6.00
    0    9    2      4.06      1.06
    0    9    3     -0.42     -8.64
    0    9    4     -7.20      0.69
    0    9    5      0.07      0.40
    0    9    6     -1.74      0.13
    0    9    7      0.46    -10.83
    0    9    8     -3.90     -0.47
    0    9    9     -0.15      5.14
    0    9   10      2.91      0.00
    0    9   11     -0.06     -2.01
    0    9   12     -5.00      0.62
    0    9   13      0.24      0.35
    0    9   14      0.22     -0.22
    0    9   15      0.42     -4.06
    0    9   16     -2.13      0.28
    0    9   17     -0.39     -1.22
    0    9   18      2.14     -0.46
    0    9   19     -0.12      1.36
    0    9   20     -0.33     -0.36
    0    9   21      0.20      1.03
    0    9   22     -0.28     -0.10
    0    9   23      0.74      4.17
    0    9   24     -0.50      0.10
    0    9   25      0.29      0.04
    0    9   26      2.31      0.21
    0    9   27     -0.27     -1.04
    1    9   27     -1.01     -1.74
    1    9   26      0.19      0.33
    1    9   25     -1.11      1.32
    1    9   24     -0.33      0.78
    1    9   23     -2.62      2.26
    1    9   22      1.18     -1.50
    1    9   21     -3.01     -1.05
    1    9   20      1.52     -1.53
    1    9   19      2.48      2.07
    1    9   18     -2.27     -1.72
    1    9   17     -1.66      1.73
    1    9   16     -1.83     -1.56
    1    9   15     -1.30     -1.47
    1    9   14      2.68      8.33
    1    9   13     -2.37      1.75
    1    9   12     -0.20      3.22
    1    9   11      1.12     -4.75
    1    9   10      1.81      2.01
    1    9    9     -4.51     -1.71
    1    9    8     -7.24     -2.78
    1    9    7     -4.09    -10.06
    1    9    6      4.95      0.10
    1    9    5      6.38      5.22
    1    9    4     -7.57     -5.55
    1    9    3    -11.18    -10.11
    1    9    2      7.62      7.70
    1    9    1     -2.49     -5.31
    1    9    0     -7.40      1.77
    2    9   26     -0.72     -0.57
    2    9   25     -0.84     -0.19
    2    9   24      2.89     -2.12
    2    9   23     -0.10     -1.55
    2    9   22      0.07     -3.94
    2    9   21     -3.95      1.31
    2    9   20     -2.44     -0.16
    2    9   19     -0.22      1.45
    2    9   18      1.41     -1.08
    2    9   17      2.31      0.20
    2    9   16      0.35      0.83
    2    9   15      0.58      9.24
    2    9   14      0.51      4.65
    2    9   13     -2.78     -2.58
    2    9   12     -2.81     -3.24
    2    9   11     -3.23     -2.98
    2    9   10      4.97      1.03
    2    9    9     -9.14     -3.34
    2    9    8      3.57     -0.12
    2    9    7      3.50     -7.24
    2    9    6     -2.79      6.64
    2    9    5     -1.77     -0.15
    2    9    4      0.53     -2.81
    2    9    3     -1.73     -7.47
    2    9    2     12.65      3.97
    2    9    1      2.95     -5.95
    2    9   27     -4.30      1.18
    3    9   25     -2.70     -2.21
    3    9   24     -0.19     -4.13
    3    9   23     -2.00      2.04
    3    9   22      2.73     -2.14
    3    9   21     -0.08     -1.35
    3    9   20     -1.89     -1.71
    3    9   19      3.64      2.94
    3    9   18      2.58     -0.73
    3    9   17     -0.76      2.30
    3    9   16     -0.43      3.59
    3    9   15      2.34      0.11
    3    9   14     -2.48     -1.45
    3    9   13     -1.03      2.77
    3    9   12     -3.33     -2.69
    3    9   11     -3.72      2.62
    3    9   10      0.92     -5.18
    3    9    9     -0.84      0.10
    3    9    8      8.24     -1.23
    3    9    7     -2.31     -2.28
    3    9    6     -6.26      0.02
    3    9    5      2.36     -5.18
    3    9    4     10.93      6.47
    3    9    3      5.07     -7.29
    3    9    2      4.72     -3.79
    3    9    1      7.32     -5.70
    3    9    0      2.84      0.38
    3    9   26      2.48     -3.38
    3    9   27      0.75     -0.63
    4    9   23     -0.65      3.54
    4    9   22      5.09     -1.38
    4    9   21      2.16     -2.10
    4    9   20      0.03     -1.77
    4    9   19     -1.46      0.97
    4    9   18      0.98     -0.35
    4    9   17      2.61      0.93
    4    9   16      3.05     -0.18
    4    9   15      1.90      0.96
    4    9   14     -7.30      0.44
    4    9   13      2.22      0.11
    4    9   12     -3.00      1.88
    4    9   11     -4.55      1.19
    4    9   10      1.33     -3.93
    4    9    9      7.30     -1.21
    4    9    8     -4.30     -9.61
    4    9    7     -1.62     -1.50
    4    9    6      3.13     -5.91
    4    9    5      3.05      1.83
    4    9    4     -1.80      7.11
    4    9    3      3.85     -0.61
    4    9    2      5.90     -1.37
    4    9    1      7.50     -2.03
    4    9    0     -4.19     -0.13
    4    9   24      1.68      0.42
    4    9   25     -2.63     -0.17
    4    9   26     -3.87     -0.81
    5    9   22     -0.08      2.50
    5    9   21      3.51      1.28
    5    9   20      1.60     -1.64
    5    9   19     -2.96     -2.80
    5    9   18      4.81     -0.89
    5    9   17      2.38      0.72
    5    9   16     -4.70      1.91
    5    9   15     -0.75      0.98
    5    9   14     -1.20     -3.70
    5    9   13      2.97      1.52
    5    9   12      1.43      1.91
    5    9   11      1.55     -0.57
    5    9   10     -4.59     -1.08
    5    9    9      1.09    -10.79
    5    9    8     -9.64     -2.25
    5    9    7      0.24      2.65
    5    9    6      3.15      3.18
    5    9    5     -0.63      5.36
    5    9    4     -2.72      3.18
    5    9    3      7.93      5.09
    5    9    2      2.66      3.52
    5    9    1     -2.91     -0.14
    5    9    0     -1.51     -0.29
    5    9   23     -1.63     -0.48
    5    9   24      2.01      1.78
    5    9   25      2.15      1.43
    5    9   26     -0.93      1.67
    6    9   22     -0.36      1.77
    6    9   21      0.93      2.87
    6    9   20     -2.44      1.69
    6    9   19      0.07     -1.92
    6    9   18     -2.13      0.77
    6    9   17     -0.44     -1.43
    6    9   16     -1.86     -3.30
    6    9   15      2.67      2.34
    6    9   14      4.03     -0.05
    6    9   13      0.37     -0.76
    6    9   12     -1.34     -7.00
    6    9   11     -1.55      2.17
    6    9   10     -3.92      3.78
    6    9    9     -0.34      3.78
    6    9    8     -1.87      4.99
    6    9    7     -0.69     -2.79
    6    9    6     -2.44      9.08
    6    9    5      2.87     -4.93
    6    9    4      1.04      6.79
    6    9    3     -3.47      0.43
    6    9    2      2.06     -1.78
    6    9    1      0.08     -1.48
    6    9    0      0.03     -0.04
    6    9   23     -0.36     -0.78
    6    9   24      0.16      0.26
    6    9   25     -0.23     -0.50
    6    9   26      0.73      0.08
    7    9   24     -1.43     -3.04
    7    9   23     -2.17     -0.83
    7    9   22     -0.19      0.25
    7    9   21     -0.84      4.07
    7    9   20     -1.33      5.00
    7    9   19      0.71      0.99
    7    9   18     -5.35     -1.98
    7    9   17      2.61     -3.52
    7    9   16     -0.46     -4.72
    7    9   15      0.08     -0.76
    7    9   14      1.27     -1.32
    7    9   13      0.29      2.03
    7    9   12      0.11     -2.80
    7    9   11      4.56      7.66
    7    9   10      1.44     -0.42
    7    9    9     -3.70      5.48
    7    9    8      1.43      0.80
    7    9    7     -0.89     -3.03
    7    9    6     -1.21      4.84
    7    9    5      0.51     -8.80
    7    9    4     -2.68     -0.37
    7    9    3     -2.08     -6.40
    7    9    2      4.77      2.18
    7    9    1     -7.71     -3.23
    7    9    0     -5.31      0.09
    7    9   25      1.27      0.11
    8    9   24      1.22     -1.58
    8    9   23     -1.07      0.76
    8    9   22      2.26      3.80
    8    9   21      4.96      1.46
    8    9   20     -1.69     -1.01
    8    9   19     -1.05     -0.01
    8    9   18     -0.23     -2.66
    8    9   17     -5.17      0.56
    8    9   16      2.13     -0.45
    8    9   15      2.93     -2.99
    8    9   14     -0.19     -0.15
    8    9   13      5.11      4.20
    8    9   12      0.73     -2.10
    8    9   11      2.03      1.62
    8    9   10     -1.85     -5.83
    8    9    9      2.08      1.57
    8    9    8      2.86      0.39
    8    9    7      0.97     -1.49
    8    9    6     -1.15      0.78
    8    9    5     -4.64     -2.77
    8    9    4      0.84     -1.45
    8    9    3     -0.82      0.28
    8    9    2     -3.49      1.06
    8    9    1     -4.82     -3.87
    8    9    0     -5.30     -0.37
    9    9    0    -17.49     -0.81
    9    9    1     -0.80      1.87
    9    9    2      0.05      1.65
    9    9    3     -2.68     -2.85
    9    9    4      0.45     -0.20
    9    9    5     -5.13      5.29
    9    9    6     -0.09      6.11
    9    9    7      2.80      2.97
    9    9    8     -2.17      0.07
    9    9    9      5.08     -5.27
    9    9   10      0.23     -1.00
    9    9   11      3.23      2.68
    9    9   12     -2.11     -0.15
    9    9   13      0.24     -0.30
    9    9   14     -0.33     -1.04
    9    9   15     -2.10     -2.00
    9    9   16      5.37     -0.12
    9    9   17     -5.34      5.80
    9    9   18      0.20      1.36
    9    9   19      1.80      1.84
    9    9   20      0.69     -0.02
    9    9   21      4.11     -4.00
    9    9   22      0.11      3.05
    9    9   23      2.20      2.12
    9    9   24      7.31      0.02
    0   10    0      2.49      0.93
    0   10    1     -0.11     -4.73
    0   10    2      6.97      0.18
    0   10    3      0.44    -11.06
    0   10    4     -6.85      0.55
    0   10    5     -0.08      7.30
    0   10    6      1.61      0.17
    0   10    7      0.60     -2.29
    0   10    8      3.00      0.16
    0   10    9     -0.32     -0.57
    0   10   10      4.93     -0.34
    0   10   11     -0.32     -7.35
    0   10   12     -7.21     -0.22
    0   10   13      0.20     -1.94
    0   10   14      1.82      0.23
    0   10   15      0.29     -0.20
    0   10   16     -2.14     -0.06
    0   10   17     -0.37      0.26
    0   10   18      6.15     -0.03
    0   10   19     -0.07     -4.34
    0   10   20      3.04     -0.01
    0   10   21     -0.08     -1.39
    0   10   22     -0.03      0.89
    0   10   23      0.14      5.22
    0   10   24      0.89     -0.31
    0   10   25      0.04      0.65
    0   10   26     -0.31      0.05
    1   10   26      0.13      1.79
    1   10   25      0.07      1.08
    1   10   24     -0.58      0.59
    1   10   23     -1.75      1.73
    1   10   22      2.93     -0.09
    1   10   21     -2.64     -1.42
    1   10   20      2.03      2.25
    1   10   19      2.33     -4.90
    1   10   18      1.41     -1.98
    1   10   17     -3.79     -0.02
    1   10   16     -1.77     -4.32
    1   10   15     -3.92     -1.00
    1   10   14      0.83     -4.45
    1   10   13     -0.73      4.37
    1   10   12     -1.38      2.21
    1   10   11      5.47     -5.22
    1   10   10      2.53      7.01
    1   10    9     -1.76     -6.66
    1   10    8      6.14     -0.17
    1   10    7      2.66     -1.75
    1   10    6      0.79     -5.69
    1   10    5      2.80      2.62
    1   10    4     -5.52     -2.16
    1   10    3     -4.42     -2.17
    1   10    2      4.67      3.09
    1   10    1      4.48     -4.32
    1   10    0      1.27      3.29
    2   10   26      0.79      1.52
    2   10   25     -0.08     -1.58
    2   10   24      1.63     -2.56
    2   10   23     -1.17     -2.47
    2   10   22     -0.46     -1.01
    2   10   21     -5.89      3.04
    2   10   20     -1.34      6.50
    2   10   19      0.68     -4.95
    2   10   18      0.46     -0.46
    2   10   17     -1.42     -2.18
    2   10   16     -1.26     -0.85
    2   10   15     -3.28      3.92
    2   10   14      0.38     -1.78
    2   10   13      0.83      0.77
    2   10   12      1.98      1.85
    2   10   11      5.03     -0.30
    2   10   10      3.51      3.89
    2   10    9     -0.68      0.41
    2   10    8      4.27      0.77
    2   10    7     -0.74     -9.36
    2   10    6     -0.70     -4.27
    2   10    5     -1.94     -4.32
    2   10    4      1.13      5.95
    2   10    3     -1.89      8.15
    2   10    2      0.28     -0.79
    2   10    1      4.63     -0.97
    2   10    0     -2.53      1.18
    3   10   25     -3.24     -1.58
    3   10   24     -3.02     -2.28
    3   10   23     -3.29      1.14
    3   10   22     -1.66      3.03
    3   10   21     -3.01      1.47
    3   10   20     -1.86      3.57
    3   10   19      1.44      3.37
    3   10   18      0.57      0.45
    3   10   17     -0.10     -4.52
    3   10   16     -0.74      4.26
    3   10   15      2.66     -4.74
    3   10   14      3.03     -0.46
    3   10   13     -1.38      3.73
    3   10   12      1.46      7.30
    3   10   11      1.02      2.86
    3   10   10     -0.40     -1.11
    3   10    9     -0.06     -0.22
    3   10    8      0.51     -3.62
    3   10    7      0.03     -4.04
    3   10    6     -3.36     -1.10
    3   10    5     -0.78     -2.99
    3   10    4      6.78      7.68
    3   10    3     -1.76      2.47
    3   10    2     -3.02      0.77
    3   10    1     -4.79      1.86
    3   10    0    -10.13      0.17
    3   10   26      2.96     -3.07
    4   10   24     -0.47     -0.44
    4   10   23     -0.39      0.38
    4   10   22     -2.25      2.84
    4   10   21     -0.63     -3.35
    4   10   20     -1.31     -1.86
    4   10   19      0.82      3.20
    4   10   18      2.67     -2.23
    4   10   17      3.21     -1.07
    4   10   16      2.14      0.61
    4   10   15      3.16     -5.10
    4   10   14     -3.76      4.26
    4   10   13     -0.32     -3.09
    4   10   12     -0.63      4.81
    4   10   11     -5.62      2.01
    4   10   10      4.36     -1.90
    4   10    9      0.01      1.46
    4   10    8     -5.02     -0.43
    4   10    7      4.28     -1.26
    4   10    6      1.08     -5.95
    4   10    5      1.64     -0.48
    4   10    4     -5.62     -1.62
    4   10    3     -4.23      0.18
    4   10    2     -0.66      8.41
    4   10    1     -9.50      1.30
    4   10    0    -13.52     -0.33
    4   10   25     -4.08      6.96
    4   10   26     -3.99     -4.36
    5   10   22     -2.10     -1.24
    5   10   21      1.36     -0.90
    5   10   20     -0.26     -3.48
    5   10   19      0.03     -1.92
    5   10   18      3.53     -3.40
    5   10   17      1.75      0.55
    5   10   16     -2.68     -1.60
    5   10   15     -1.47     -1.21
    5   10   14     -1.96     -2.45
    5   10   13      1.90     -4.31
    5   10   12     -2.15      5.29
    5   10   11     -1.93      1.92
    5   10   10      0.26     -1.23
    5   10    9     -4.58     -5.34
    5   10    8     -0.87      0.86
    5   10    7      1.45      0.55
    5   10    6      1.89     -4.70
    5   10    5     -4.10      0.87
    5   10    4     -5.68     -3.92
    5   10    3      0.15      0.84
    5   10    2     -0.27      2.99
    5   10    1     -7.60      0.61
    5   10    0    -11.24      0.09
    5   10   23     -0.15     -2.44
    5   10   24     -0.83     -5.85
    5   10   25     -0.22      4.38
    6   10   21     -2.30      2.88
    6   10   20     -4.22     -2.74
    6   10   19      0.53     -0.90
    6   10   18     -0.10     -3.56
    6   10   17     -1.10     -0.23
    6   10   16      1.33     -0.33
    6   10   15      1.19      1.81
    6   10   14     -1.65      0.97
    6   10   13     -0.94     -1.01
    6   10   12     -2.99     -3.39
    6   10   11     -5.96     -2.57
    6   10   10     -2.81      0.61
    6   10    9      1.66     -0.72
    6   10    8      2.12      3.18
    6   10    7     -3.33     -0.43
    6   10    6     -0.38     -1.23
    6   10    5     -3.83     -4.39
    6   10    4      5.60     -1.39
    6   10    3     -5.33     -0.04
    6   10    2      1.50     -5.26
    6   10    1      5.54      4.40
    6   10    0     -5.37     -0.09
    6   10   22     -0.21     -4.47
    6   10   23     -0.60      0.17
    6   10   24      0.14     -1.38
    6   10   25     -3.16     -6.91
    7   10   23     -3.92      0.17
    7   10   22      0.61     -1.73
    7   10   21     -6.03      1.47
    7   10   20     -0.62      1.96
    7   10   19      2.41      5.31
    7   10   18     -2.14     -1.24
    7   10   17      3.10     -1.85
    7   10   16      4.80      0.75
    7   10   15     -1.44     -0.35
    7   10   14     -5.11      2.44
    7   10   13     -2.29     -0.31
    7   10   12     -0.85     -0.42
    7   10   11     -1.69      1.85
    7   10   10      2.28      0.92
    7   10    9     -0.29     -1.54
    7   10    8      1.10     -1.58
    7   10    7     -0.86      1.41
    7   10    6     -0.45     -1.17
    7   10    5     -1.78     -3.82
    7   10    4      5.92      0.57
    7   10    3      2.82      0.19
    7   10    2      6.78     -4.60
    7   10    1      0.03      3.42
    7   10    0     -8.85     -0.97
    7   10   24     -2.20      0.72
    8   10   24     -0.79     -0.57
    8   10   23     -1.10      1.33
    8   10   22      1.56      2.15
    8   10   21     -1.28      1.48
    8   10   20      1.94      0.01
    8   10   19      3.06      0.87
    8   10   18      1.31      2.88
    8   10   17     -0.01     -2.22
    8   10   16     -1.32      4.18
    8   10   15      1.61     -4.57
    8   10   14     -2.46      0.80
    8   10   13     -0.62      3.78
    8   10   12      3.72      1.99
    8   10   11      0.24     -3.30
    8   10   10      0.05     -0.33
    8   10    9      0.63      0.30
    8   10    8      1.16     -1.85
    8   10    7     -0.82      4.28
    8   10    6      1.39     -1.94
    8   10    5     -1.01      4.42
    8   10    4      5.10     -2.23
    8   10    3      7.72     -1.00
    8   10    2     -3.80     -0.76
    8   10    1     -1.06      0.12
    8   10    0     -7.24     -0.74
    9   10   23      2.62      1.50
    9   10   22     -0.23      1.85
    9   10   21      0.94     -2.03
    9   10   20      1.14     -2.55
    9   10   19      3.92      0.00
    9   10   18     -0.82      3.56
    9   10   17     -2.22     -1.86
    9   10   16     -4.36      2.36
    9   10   15      4.24     -7.96
    9   10   14     -0.99     -0.10
    9   10   13     -0.72      1.55
    9   10   12      2.53     -0.87
    9   10   11      0.25     -0.39
    9   10   10      1.80      2.73
    9   10    9      0.32     -1.86
    9   10    8     -1.34     -1.95
    9   10    7     -1.75      3.96
    9   10    6      0.44      1.49
    9   10    5      0.05      8.67
    9   10    4     -0.76     -4.29
    9   10    3      2.47      0.15
    9   10    2     -0.48      0.02
    9   10    1      0.68     -2.80
    9   10    0    -15.20     -0.30
   10   10    0     -7.53      0.17
   10   10    1      3.40     -3.90
   10   10    2     -0.29     -3.08
   10   10    3      2.67      2.77
   10   10    4     -2.26     -0.85
   10   10    5     -3.33      2.88
   10   10    6     -0.16      3.71
   10   10    7     -1.02     -0.67
   10   10    8      0.40     -0.39
   10   10    9     -2.02      2.54
   10   10   10     -0.13      0.77
   10   10   11     -0.62     -0.31
   10   10   12      0.55     -0.44
   10   10   13      3.07     -3.21
   10   10   14     -0.06     -1.49
   10   10   15      0.46      0.03
   10   10   16     -5.45     -0.20
   10   10   17      2.73     -2.52
   10   10   18      0.07     -1.38
   10   10   19     -1.07     -1.16
   10   10   20     -4.02      0.14
   10   10   21      3.42     -3.81
   10   10   22     -0.07      0.06
    0   11    0     16.53      1.71
    0   11    1     -0.20      5.49
    0   11    2      3.93     -0.10
    0   11    3      0.49     -3.06
    0   11    4      0.81      0.73
    0   11    5     -0.25      3.68
    0   11    6      3.90      0.40
    0   11    7      1.26      1.26
    0   11    8      0.17     -0.26
    0   11    9      0.04     -1.91
    0   11   10     -7.12     -0.87
    0   11   11     -0.38      0.45
    0   11   12     -1.98     -0.17
    0   11   13     -0.03     -2.92
    0   11   14      1.05      0.84
    0   11   15      0.06      1.70
    0   11   16     -1.33     -0.27
    0   11   17     -0.32      3.72
    0   11   18      5.47      0.11
    0   11   19      0.23     -5.61
    0   11   20     -0.55     -0.33
    0   11   21      0.48     -2.91
    0   11   22     -1.93      1.68
    0   11   23     -0.10      3.17
    0   11   24     -1.81      0.05
    0   11   25     -0.58      0.94
    1   11   25     -3.21      2.76
    1   11   24     -3.27     -0.68
    1   11   23     -1.83      1.07
    1   11   22      0.95      0.24
    1   11   21     -1.94     -1.66
    1   11   20     -1.12      0.08
    1   11   19      1.47     -4.72
    1   11   18      1.44     -0.19
    1   11   17     -2.94      0.83
    1   11   16      0.28      0.56
    1   11   15     -2.55     -0.12
    1   11   14     -1.70     -7.11
    1   11   13     -4.13      2.92
    1   11   12     -1.65     -1.75
    1   11   11      1.03     -0.30
    1   11   10     -3.37     -0.41
    1   11    9     -0.18     -6.76
    1   11    8      6.90     -2.30
    1   11    7      0.39      5.87
    1   11    6      0.22     -1.27
    1   11    5      0.48     -3.51
    1   11    4      7.90      0.97
    1   11    3      7.44      1.53
    1   11    2      3.95      1.06
    1   11    1      1.84     -0.25
    1   11    0      4.86      2.16
    2   11   25     -1.64      3.00
    2   11   24     -0.52     -1.96
    2   11   23     -0.86     -1.32
    2   11   22      0.52      0.36
    2   11   21     -0.62      2.30
    2   11   20     -1.50      2.43
    2   11   19      0.33     -5.44
    2   11   18     -1.20     -1.33
    2   11   17     -0.72      1.30
    2   11   16     -2.34      0.79
    2   11   15     -4.32      1.12
    2   11   14     -2.93     -3.85
    2   11   13     -2.12     -0.67
    2   11   12      0.59     -2.71
    2   11   11      6.00     -0.94
    2   11   10     -0.33     -3.63
    2   11    9     -1.50      3.41
    2   11    8      4.22     -0.43
    2   11    7     -4.31     -3.53
    2   11    6      4.45     -4.36
    2   11    5     -0.63     -5.00
    2   11    4     13.32      5.89
    2   11    3      2.75      5.34
    2   11    2      1.70     -4.90
    2   11    1     -1.76     -6.73
    2   11    0     -2.66     -0.12
    3   11   25      0.54     -0.65
    3   11   24     -0.07     -1.63
    3   11   23      3.22      1.98
    3   11   22     -1.24      3.02
    3   11   21      1.69      1.64
    3   11   20     -0.55      1.71
    3   11   19      0.37      1.18
    3   11   18     -3.76      0.26
    3   11   17     -0.41     -2.74
    3   11   16     -5.01     -0.79
    3   11   15     -0.20     -1.29
    3   11   14      2.45     -3.01
    3   11   13     -1.52      2.68
    3   11   12     -1.86      2.06
    3   11   11      4.04     -0.28
    3   11   10     -3.78      0.54
    3   11    9     -3.26      0.92
    3   11    8     -0.28     -5.14
    3   11    7      1.97     -0.75
    3   11    6      1.12      0.12
    3   11    5     -4.13      0.67
    3   11    4      7.32     -1.01
    3   11    3     -1.73      0.79
    3   11    2      3.37     -3.21
    3   11    1     -4.83     -3.01
    3   11    0     -2.23     -1.73
    4   11   24      3.39     -1.27
    4   11   23      4.73      0.77
    4   11   22     -3.92      3.35
    4   11   21     -0.28     -0.60
    4   11   20      0.71     -0.12
    4   11   19      2.10      2.81
    4   11   18     -3.90     -0.62
    4   11   17     -1.17     -0.11
    4   11   16     -3.29     -3.60
    4   11   15      2.02     -3.78
    4   11   14      0.18      1.92
    4   11   13     -1.47     -0.39
    4   11   12     -2.37     -1.58
    4   11   11     -3.50      2.16
    4   11   10      1.93      2.41
    4   11    9     -1.65      0.84
    4   11    8     -5.09      3.69
    4   11    7      6.74     -0.87
    4   11    6      0.39     -6.84
    4   11    5     -1.32     -0.63
    4   11    4     -6.45     -8.46
    4   11    3     -1.63      4.36
    4   11    2      3.75      7.38
    4   11    1     -4.77      3.89
    4   11    0     -3.27     -0.45
    4   11   25     -1.44      2.15
    5   11   22      1.40      2.02
    5   11   21     -3.03     -0.76
    5   11   20      1.52      1.41
    5   11   19      1.74      1.12
    5   11   18     -2.28     -2.35
    5   11   17     -1.45     -0.07
    5   11   16     -1.58     -5.16
    5   11   15      0.87     -2.29
    5   11   14      0.90     -1.83
    5   11   13      1.11     -3.70
    5   11   12     -2.99      4.38
    5   11   11     -2.55      0.88
    5   11   10      4.68     -0.33
    5   11    9     -2.61     -2.32
    5   11    8      2.54      0.85
    5   11    7      4.71     -2.06
    5   11    6     -1.87     -6.42
    5   11    5     -4.89      1.51
    5   11    4     -6.48     -0.37
    5   11    3      1.48      4.92
    5   11    2     -0.82      3.21
    5   11    1     -3.65      6.11
    5   11    0     -0.62      1.60
    5   11   23      1.61     -0.62
    5   11   24     -1.84     -4.86
    6   11   21     -4.50     -1.57
    6   11   20     -0.68     -0.36
    6   11   19      1.87     -2.80
    6   11   18      2.06     -2.51
    6   11   17     -1.51      0.80
    6   11   16      2.27     -0.14
    6   11   15      2.08     -1.39
    6   11   14     -0.45     -1.60
    6   11   13      2.14     -0.64
    6   11   12      0.26      1.92
    6   11   11     -2.13     -8.05
    6   11   10     -1.48     -0.09
    6   11    9      1.24      0.18
    6   11    8      3.95      0.73
    6   11    7     -0.97      1.69
    6   11    6     -1.20     -0.25
    6   11    5     -5.06      2.30
    6   11    4      3.74      2.51
    6   11    3     -7.71     -0.23
    6   11    2     -1.41     -3.07
    6   11    1      6.78      3.87
    6   11    0      4.07      1.02
    6   11   22      3.92     -0.66
    6   11   23      1.57      2.03
    6   11   24     -1.77      2.38
    7   11   22      1.08     -1.84
    7   11   21     -4.28     -5.07
    7   11   20     -1.04     -0.60
    7   11   19      2.68      3.02
    7   11   18      1.44      0.44
    7   11   17      3.74     -1.99
    7   11   16      5.80      2.92
    7   11   15     -1.61     -1.95
    7   11   14     -3.84      0.78
    7   11   13      1.00     -1.71
    7   11   12     -1.42      3.12
    7   11   11     -1.89     -1.33
    7   11   10     -1.61      2.34
    7   11    9      1.92      0.87
    7   11    8     -1.22     -0.86
    7   11    7      1.02      1.66
    7   11    6      0.02      3.10
    7   11    5     -5.63      1.53
    7   11    4      1.56      2.59
    7   11    3     -4.43      0.17
    7   11    2      7.12     -6.95
    7   11    1     -5.18     -2.74
    7   11    0     -2.73     -0.81
    7   11   23      0.60      0.85
    8   11   23     -1.05      0.36
    8   11   22     -1.11     -1.22
    8   11   21     -1.59      0.01
    8   11   20     -2.51      0.33
    8   11   19      3.75      0.79
    8   11   18      2.41     -2.09
    8   11   17      3.72     -0.45
    8   11   16     -3.31      5.40
    8   11   15     -2.82     -2.02
    8   11   14     -1.98      2.12
    8   11   13     -1.74     -0.05
    8   11   12      0.38      4.12
    8   11   11      1.41     -3.28
    8   11   10     -0.82     -1.44
    8   11    9      1.31      4.38
    8   11    8     -4.82      3.29
    8   11    7     -2.41     -0.04
    8   11    6     -0.32      0.62
    8   11    5     -3.35      1.24
    8   11    4      0.61     -0.20
    8   11    3     -0.74     -1.86
    8   11    2     -2.35     -3.16
    8   11    1     -8.60     -3.11
    8   11    0      3.21     -0.61
    9   11   22     -0.68      2.24
    9   11   21     -1.27      1.87
    9   11   20     -2.63     -3.64
    9   11   19      3.33      0.02
    9   11   18     -1.21     -0.62
    9   11   17     -2.23      0.45
    9   11   16     -5.87      1.39
    9   11   15      3.96     -1.20
    9   11   14      0.72     -0.89
    9   11   13     -2.39     -1.04
    9   11   12      0.70     -1.94
    9   11   11     -0.68     -1.89
    9   11   10      0.15      1.07
    9   11    9      0.26      2.23
    9   11    8     -2.80      2.63
    9   11    7     -4.03     -3.91
    9   11    6     -2.99      0.23
    9   11    5     -0.47      3.32
    9   11    4     -0.35     -0.61
    9   11    3     -3.06      0.48
    9   11    2      2.40      0.84
    9   11    1      0.06     -4.31
    9   11    0     -6.18      0.04
   10   11   21      3.21      0.82
   10   11   20     -4.11     -2.64
   10   11   19     -2.44     -0.36
   10   11   18     -1.26      0.13
   10   11   17      0.32     -2.73
   10   11   16      1.51     -1.19
   10   11   15      1.85      1.44
   10   11   14     -1.92     -3.87
   10   11   13      0.07      0.14
   10   11   12     -2.15     -3.01
   10   11   11     -1.04      1.64
   10   11   10      2.40     -0.17
   10   11    9     -2.83     -0.91
   10   11    8      0.70      0.74
   10   11    7      0.09     -1.20
   10   11    6     -3.31      2.53
   10   11    5      0.37      1.94
   10   11    4      1.73     -0.63
   10   11    3     -1.89      0.24
   10   11    2      2.58      0.14
   10   11    1      0.80     -4.33
   10   11    0     -3.11      0.20
   11   11    0      1.60      0.23
   11   11    1      1.29     -2.15
   11   11    2      0.34      0.40
   11   11    3     -3.34     -2.66
   11   11    4     -0.29     -0.33
   11   11    5     -1.53      1.15
   11   11    6     -0.01     -3.75
   11   11    7      1.28      1.33
   11   11    8      2.62     -0.40
   11   11    9     -0.94      0.18
   11   11   10     -0.17     -0.66
   11   11   11      1.71      2.39
   11   11   12     -2.33     -0.35
   11   11   13     -2.95      2.92
   11   11   14     -0.25      0.09
   11   11   15     -0.86     -0.38
   11   11   16      2.93     -0.05
   11   11   17      2.62     -2.85
   11   11   18      0.03      0.13
   11   11   19     -0.89     -0.69
   11   11   20     -3.16     -0.12
    0   12    0     14.83      0.26
    0   12    1      0.26      2.65
    0   12    2     -2.63     -0.96
    0   12    3      0.49      2.31
    0   12    4     -0.75      0.35
    0   12    5     -0.29      0.56
    0   12    6     -1.24      0.69
    0   12    7      0.27     -0.97
    0   12    8      1.87     -0.15
    0   12    9      0.17      4.04
    0   12   10     -0.81     -1.23
    0   12   11      0.08      3.14
    0   12   12      5.07      0.27
    0   12   13     -0.12     -3.10
    0   12   14     -2.77      0.49
    0   12   15      0.02      1.59
    0   12   16     -4.75     -0.10
    0   12   17      0.18      2.08
    0   12   18      2.99     -0.16
    0   12   19      0.05     -3.57
    0   12   20      1.45     -1.23
    0   12   21      0.10     -0.07
    0   12   22      0.17      0.34
    0   12   23      0.13      0.23
    0   12   24     -2.13      0.13
    1   12   24     -1.67     -0.44
    1   12   23      0.45      1.06
    1   12   22      0.86      1.39
    1   12   21     -0.67      0.14
    1   12   20      0.72     -2.03
    1   12   19     -1.12      0.71
    1   12   18      2.00      1.54
    1   12   17      0.82     -1.27
    1   12   16     -0.08      0.82
    1   12   15      4.91     -2.16
    1   12   14     -1.71     -4.38
    1   12   13      3.36     -0.19
    1   12   12      0.37      0.74
    1   12   11      0.79      1.89
    1   12   10      2.86     -4.30
    1   12    9      4.08     -0.70
    1   12    8      3.84     -1.55
    1   12    7     -3.21      4.43
    1   12    6     -2.42      7.87
    1   12    5      1.61     -6.94
    1   12    4      3.01     -0.76
    1   12    3      4.37     -0.43
    1   12    2     -2.66      0.34
    1   12    1     -1.28     -0.08
    1   12    0      1.98     -1.32
    2   12   24      1.21      1.00
    2   12   23      0.18      0.50
    2   12   22      2.32      1.04
    2   12   21      1.94      1.56
    2   12   20     -0.10     -0.34
    2   12   19     -1.57     -0.82
    2   12   18      3.59     -1.22
    2   12   17      3.16      1.53
    2   12   16      1.55     -1.97
    2   12   15      3.03     -3.85
    2   12   14     -0.01      0.21
    2   12   13      2.80     -0.88
    2   12   12     -1.22      2.24
    2   12   11      1.25     -0.20
    2   12   10      1.78     -6.08
    2   12    9      0.45      2.56
    2   12    8      1.83      1.00
    2   12    7     -1.87     -2.29
    2   12    6      2.99      4.36
    2   12    5      1.46     -5.48
    2   12    4      1.94      4.65
    2   12    3     -0.19     -5.42
    2   12    2     -4.84     -1.67
    2   12    1     -5.23     -7.03
    2   12    0     -8.33     -1.62
    3   12   24      3.23     -1.73
    3   12   23      2.02      0.97
    3   12   22      3.02      0.09
    3   12   21     -0.27     -0.31
    3   12   20      2.02     -0.71
    3   12   19      2.10     -0.76
    3   12   18      2.57      2.33
    3   12   17      0.72      0.32
    3   12   16      1.32     -2.50
    3   12   15     -0.89      1.92
    3   12   14      1.69      1.29
    3   12   13     -0.37      1.54
    3   12   12     -6.13      0.59
    3   12   11     -3.18     -0.07
    3   12   10     -1.08      2.00
    3   12    9     -1.37      2.04
    3   12    8      3.57     -0.86
    3   12    7      0.54     -1.25
    3   12    6     -1.61      5.30
    3   12    5     -1.62      1.19
    3   12    4     -1.72      0.39
    3   12    3     -2.01     -4.96
    3   12    2     -4.29     -2.54
    3   12    1     -1.20     -8.50
    3   12    0     -4.78     -2.23
    4   12   23     -0.37     -0.15
    4   12   22      2.01     -1.73
    4   12   21     -4.19     -1.87
    4   12   20      6.87      1.31
    4   12   19      4.37      0.71
    4   12   18     -1.30      5.17
    4   12   17     -2.07      3.81
    4   12   16      0.27      0.01
    4   12   15     -2.86      0.46
    4   12   14      1.26      0.28
    4   12   13     -3.07     -1.14
    4   12   12     -2.83     -3.43
    4   12   11     -5.13      6.11
    4   12   10     -0.57      5.80
    4   12    9      1.44      3.48
    4   12    8     -1.69      6.02
    4   12    7     -0.63     -0.61
    4   12    6      0.11     -2.04
    4   12    5      1.43      1.31
    4   12    4     -4.58     -4.67
    4   12    3     -0.45      3.15
    4   12    2      0.22     -0.63
    4   12    1      1.62     -3.42
    4   12    0     -4.79     -0.34
    4   12   24      2.42     -3.53
    5   12   22      3.25      0.18
    5   12   21     -5.47     -3.61
    5   12   20      4.39      3.88
    5   12   19      0.63      3.07
    5   12   18      0.41      4.09
    5   12   17      0.69      2.82
    5   12   16      0.97     -1.09
    5   12   15     -0.14     -0.71
    5   12   14      2.23     -2.64
    5   12   13     -2.59     -1.66
    5   12   12     -0.42      1.70
    5   12   11     -1.44      0.67
    5   12   10      2.80      3.61
    5   12    9     -0.03      0.95
    5   12    8      3.36      3.32
    5   12    7      3.04      1.35
    5   12    6     -3.90     -3.28
    5   12    5     -0.48      2.49
    5   12    4     -1.80     -1.27
    5   12    3      4.48      5.08
    5   12    2     -0.76     -3.27
    5   12    1     -0.77      1.30
    5   12    0      1.08      2.16
    5   12   23     -0.06     -0.34
    6   12   21     -2.95     -4.92
    6   12   20     -1.24      1.78
    6   12   19      1.99     -0.69
    6   12   18      5.40      2.21
    6   12   17      0.94      5.30
    6   12   16      0.31      2.06
    6   12   15     -0.17     -0.14
    6   12   14      1.69     -3.86
    6   12   13      1.25     -1.01
    6   12   12      4.90     -1.78
    6   12   11      3.87     -9.86
    6   12   10     -1.90      2.46
    6   12    9     -2.30      0.00
    6   12    8      5.11      4.96
    6   12    7      0.12      3.12
    6   12    6     -2.26     -1.40
    6   12    5      1.06      5.98
    6   12    4      2.21     -0.15
    6   12    3      1.46      0.75
    6   12    2     -3.67     -3.74
    6   12    1      7.67     -0.82
    6   12    0      2.39      1.94
    6   12   22     -0.89      1.30
    6   12   23      1.95      1.55
    7   12   20     -3.54      0.37
    7   12   19     -0.64      2.69
    7   12   18      0.77      2.24
    7   12   17      1.75      3.35
    7   12   16      2.81      1.34
    7   12   15     -1.92      0.56
    7   12   14      1.77     -4.58
    7   12   13      2.72     -4.12
    7   12   12      0.42     -0.90
    7   12   11     -0.31     -4.21
    7   12   10     -0.93      0.83
    7   12    9      0.21      1.90
    7   12    8     -1.31      1.93
    7   12    7      2.38     -1.63
    7   12    6      2.17      3.26
    7   12    5     -3.10      6.99
    7   12    4     -0.50     -0.83
    7   12    3      2.32      1.19
    7   12    2      1.50     -2.65
    7   12    1     -0.02     -6.34
    7   12    0     -7.48      0.13
    7   12   21     -0.53     -3.33
    7   12   22     -3.11      0.57
    8   12   22     -0.64     -0.58
    8   12   21      0.18      2.73
    8   12   20     -6.06      4.96
    8   12   19     -4.13      0.87
    8   12   18      1.52     -4.72
    8   12   17      0.27      1.71
    8   12   16      1.01     -0.91
    8   12   15     -3.19      2.10
    8   12   14      1.29     -0.94
    8   12   13      0.90     -2.95
    8   12   12     -1.22      1.44
    8   12   11     -0.57     -1.16
    8   12   10      2.51     -4.73
    8   12    9      0.49      4.68
    8   12    8     -4.61      2.15
    8   12    7      0.78     -2.90
    8   12    6     -0.02      1.39
    8   12    5     -1.80      2.03
    8   12    4     -0.31      0.53
    8   12    3     -0.50      2.42
    8   12    2     -2.15      0.11
    8   12    1     -4.33     -5.89
    8   12    0      1.81     -0.16
    9   12   21     -3.86      2.02
    9   12   20     -3.04      0.74
    9   12   19     -1.88     -1.98
    9   12   18     -0.65     -0.76
    9   12   17     -2.54     -0.22
    9   12   16      3.30     -1.74
    9   12   15      0.74      2.06
    9   12   14      4.19      0.63
    9   12   13     -1.91     -1.63
    9   12   12     -2.72     -0.52
    9   12   11     -0.79      2.23
    9   12   10      1.19     -1.21
    9   12    9     -0.13      1.95
    9   12    8      1.40     -1.05
    9   12    7     -1.75     -4.52
    9   12    6     -2.64     -0.88
    9   12    5     -0.40      1.63
    9   12    4     -2.08      3.76
    9   12    3     -3.38      2.09
    9   12    2      2.84      1.37
    9   12    1      2.74     -3.95
    9   12    0      2.09     -0.19
   10   12   20      4.39     -2.70
   10   12   19     -3.45     -0.32
   10   12   18     -1.78      5.95
   10   12   17      1.59     -1.47
   10   12   16      6.98     -1.41
   10   12   15     -0.70     -1.44
   10   12   14     -0.56      3.78
   10   12   13     -2.80      3.37
   10   12   12      0.17     -0.36
   10   12   11     -0.30      1.69
   10   12   10      0.76     -0.19
   10   12    9     -2.90     -5.01
   10   12    8      1.99     -0.73
   10   12    7      0.19      0.02
   10   12    6     -1.67     -1.09
   10   12    5     -1.63      1.77
   10   12    4      0.44      2.61
   10   12    3     -2.14      0.68
   10   12    2      2.03      2.56
   10   12    1      1.73     -3.51
   10   12    0      2.05     -0.32
   11   12   19     -4.49      1.69
   11   12   18      1.13      1.71
   11   12   17     -0.42      2.48
   11   12   16      1.81      2.37
   11   12   15     -1.59      1.60
   11   12   14      1.08      3.65
   11   12   13     -1.54      1.81
   11   12   12     -0.04     -3.65
   11   12   11     -3.50     -1.97
   11   12   10      0.05      1.56
   11   12    9     -0.90     -3.09
   11   12    8      0.23      3.80
   11   12    7      1.10     -2.37
   11   12    6     -0.56     -4.75
   11   12    5     -3.38      4.13
   11   12    4     -0.86      2.22
   11   12    3     -2.17     -1.56
   11   12    2     -0.24      0.79
   11   12    1      1.90     -2.05
   11   12    0      2.98     -0.22
   12   12    0     -1.37     -0.23
   12   12    1      0.80     -0.97
   12   12    2     -0.01      0.32
   12   12    3     -1.25     -0.79
   12   12    4      0.17      0.12
   12   12    5     -0.24     -0.36
   12   12    6     -1.02     -1.02
   12   12    7     -2.25     -1.83
   12   12    8     -2.12      0.23
   12   12    9      1.55     -1.49
   12   12   10     -0.07      0.98
   12   12   11     -3.27     -2.98
   12   12   12      1.27     -0.04
   12   12   13     -1.59      1.24
   12   12   14     -0.06     -7.76
   12   12   15      1.75      1.87
   12   12   16      1.88      0.08
   12   12   17    -10.49     10.64
    0   13    0      5.03     -2.85
    0   13    1      0.12      1.57
    0   13    2     -2.90     -1.61
    0   13    3     -0.15      6.25
    0   13    4      3.40     -0.93
    0   13    5     -0.22      0.15
    0   13    6     -4.65      0.31
    0   13    7     -0.17     -2.96
    0   13    8      1.82      0.59
    0   13    9      0.48      1.27
    0   13   10      0.62     -1.15
    0   13   11      0.54     -2.87
    0   13   12     -0.49      0.50
    0   13   13     -0.19      2.45
    0   13   14      1.03     -0.69
    0   13   15     -0.30     -1.45
    0   13   16     -5.45      0.07
    0   13   17      0.34      0.78
    0   13   18     -1.09     -0.13
    0   13   19     -0.08      0.49
    0   13   20      5.59     -0.07
    0   13   21     -0.39      0.12
    0   13   22      4.09     -0.08
    0   13   23     -0.08     -2.96
    1   13   23      3.43      0.60
    1   13   22      0.99      0.34
    1   13   21      0.15      0.15
    1   13   20      2.30      0.00
    1   13   19     -2.29      4.38
    1   13   18      0.09      4.18
    1   13   17      2.60     -1.47
    1   13   16     -2.91      1.21
    1   13   15      1.54     -2.06
    1   13   14     -0.75     -2.38
    1   13   13      2.05     -0.11
    1   13   12     -1.11     -0.49
    1   13   11      0.28      1.07
    1   13   10      3.28     -2.79
    1   13    9      6.82      1.25
    1   13    8     -0.43      2.33
    1   13    7     -0.99     -0.64
    1   13    6     -3.57      4.19
    1   13    5      2.62     -1.64
    1   13    4      1.28     -5.32
    1   13    3     -5.65      5.82
    1   13    2      1.22     -1.08
    1   13    1     -0.74      3.12
    1   13    0      3.67     -4.32
    2   13   23      1.62      3.73
    2   13   22     -1.33      0.00
    2   13   21      0.86      1.92
    2   13   20     -2.33      0.08
    2   13   19     -1.51      2.15
    2   13   18      2.08      1.62
    2   13   17      2.88      0.71
    2   13   16     -2.48      0.16
    2   13   15      0.34     -2.89
    2   13   14      0.55     -0.72
    2   13   13      4.90      1.28
    2   13   12      0.72      6.10
    2   13   11     -2.72      2.05
    2   13   10      1.97     -3.15
    2   13    9      3.49     -0.26
    2   13    8     -4.06     -0.09
    2   13    7      2.93     -0.87
    2   13    6      0.94      3.65
    2   13    5      2.38      4.15
    2   13    4     -3.46     -2.54
    2   13    3     -2.39      1.10
    2   13    2      4.55     -3.51
    2   13    1     -2.36      4.08
    2   13    0      3.05     -0.67
    3   13   23     -0.35      2.17
    3   13   22     -0.50      0.93
    3   13   21     -2.28     -0.28
    3   13   20     -2.50     -3.85
    3   13   19      2.41     -2.38
    3   13   18      2.15      0.68
    3   13   17      0.51     -0.39
    3   13   16      2.44      0.14
    3   13   15      2.57      4.06
    3   13   14      1.24      2.46
    3   13   13      3.39      2.19
    3   13   12     -2.65      0.09
    3   13   11     -5.98     -1.95
    3   13   10      1.23      1.55
    3   13    9      2.03     -2.00
    3   13    8      0.22     -0.81
    3   13    7      1.65      0.08
    3   13    6     -5.20      4.42
    3   13    5      2.63      5.22
    3   13    4     -0.36     -1.47
    3   13    3      3.83      1.96
    3   13    2      1.95     -1.24
    3   13    1      3.38      3.09
    3   13    0      8.79      1.49
    4   13   23     -4.17     -1.37
    4   13   22      1.27     -2.13
    4   13   21     -2.49     -3.22
    4   13   20      2.15     -0.82
    4   13   19      4.37     -4.57
    4   13   18     -0.43     -0.52
    4   13   17      1.27     -0.39
    4   13   16      6.24      0.60
    4   13   15      1.66      3.14
    4   13   14      0.43     -1.26
    4   13   13      2.17     -3.69
    4   13   12      1.31     -3.76
    4   13   11     -3.28      3.32
    4   13   10      0.56      1.29
    4   13    9      4.55     -0.51
    4   13    8     -2.65      2.02
    4   13    7     -3.77     -2.36
    4   13    6     -3.64      3.95
    4   13    5      5.76      4.01
    4   13    4      2.25      1.06
    4   13    3      5.60      4.11
    4   13    2      5.04     -0.04
    4   13    1      4.59      0.29
    4   13    0      4.11      0.91
    5   13   22      0.44     -2.77
    5   13   21     -0.84     -3.33
    5   13   20     -0.25      1.53
    5   13   19     -1.04     -2.61
    5   13   18      1.61     -0.17
    5   13   17      6.34     -3.57
    5   13   16      3.23     -2.66
    5   13   15      1.64      0.18
    5   13   14      3.25     -1.57
    5   13   13     -0.21     -1.30
    5   13   12      3.18     -0.53
    5   13   11      1.92     -1.02
    5   13   10      1.31      0.04
    5   13    9      2.11      1.90
    5   13    8      1.11      0.65
    5   13    7      0.11      0.36
    5   13    6     -4.91      2.32
    5   13    5      3.02      0.32
    5   13    4      0.30      1.14
    5   13    3      3.53      2.42
    5   13    2      5.80     -0.30
    5   13    1     -1.14      1.12
    5   13    0      3.78      0.55
    6   13   21      0.43     -3.96
    6   13   20     -3.32      1.13
    6   13   19     -0.68     -0.72
    6   13   18      4.51     -0.51
    6   13   17      2.79      0.06
    6   13   16     -2.66      0.42
    6   13   15      1.16     -0.22
    6   13   14      3.64     -0.22
    6   13   13      0.34     -1.12
    6   13   12      6.58     -1.85
    6   13   11      3.46     -4.10
    6   13   10     -2.54      0.31
    6   13    9     -0.17     -0.29
    6   13    8      3.49      2.53
    6   13    7     -0.67     -0.61
    6   13    6     -1.49     -3.32
    6   13    5     -1.00      1.69
    6   13    4     -4.90     -0.32
    6   13    3     -0.23      0.32
    6   13    2      1.92     -0.82
    6   13    1      0.92      0.76
    6   13    0      2.17      0.87
    6   13   22     -4.70      0.05
    7   13   20     -0.70     -0.10
    7   13   19     -1.79      0.55
    7   13   18     -1.33      2.18
    7   13   17     -1.23      3.87
    7   13   16      0.82     -0.45
    7   13   15     -0.79     -1.21
    7   13   14      3.22     -2.26
    7   13   13      2.58     -5.02
    7   13   12      0.20      0.49
    7   13   11     -0.55     -1.85
    7   13   10      1.07     -2.48
    7   13    9     -0.29      0.33
    7   13    8     -0.89      1.09
    7   13    7      1.06     -3.90
    7   13    6      0.77      0.11
    7   13    5     -7.72      1.91
    7   13    4     -4.01     -3.37
    7   13    3     -2.29     -1.31
    7   13    2     -0.70     -2.73
    7   13    1      2.01     -0.26
    7   13    0     -3.65      0.49
    7   13   21      1.31     -1.99
    8   13   20      0.02      3.55
    8   13   19     -3.41      0.14
    8   13   18     -1.15     -0.79
    8   13   17     -2.53      0.03
    8   13   16      2.02     -5.04
    8   13   15     -3.19     -0.53
    8   13   14      1.19      1.19
    8   13   13      3.05     -6.05
    8   13   12      0.06      0.94
    8   13   11      1.86      1.72
    8   13   10      1.49     -1.60
    8   13    9     -1.72      2.21
    8   13    8     -1.42      0.34
    8   13    7     -1.63     -2.67
    8   13    6     -0.13      1.17
    8   13    5     -4.18     -2.22
    8   13    4      0.06     -2.12
    8   13    3     -4.88     -1.00
    8   13    2     -0.45     -3.71
    8   13    1      0.26      0.11
    8   13    0     -1.27      0.55
    9   13   19     -0.17     -1.66
    9   13   18     -2.14     -1.49
    9   13   17     -1.75     -1.24
    9   13   16      1.99     -2.56
    9   13   15     -1.50     -1.24
    9   13   14      1.60      5.55
    9   13   13      1.67     -3.22
    9   13   12     -0.36     -0.32
    9   13   11      4.37      5.24
    9   13   10     -0.47      2.24
    9   13    9     -1.89      0.64
    9   13    8      2.37     -0.42
    9   13    7     -4.64     -2.22
    9   13    6      1.72      0.91
    9   13    5     -1.20     -2.40
    9   13    4      0.27      0.63
    9   13    3     -2.53      1.86
    9   13    2      1.86     -1.99
    9   13    1      1.91      0.77
    9   13    0      2.97      0.32
   10   13   18     -2.24      2.90
   10   13   17      2.31      2.34
   10   13   16      0.88     -2.35
   10   13   15     -0.49     -4.13
   10   13   14     -2.91      7.82
   10   13   13      2.11      2.11
   10   13   12      3.10     -0.10
   10   13   11      1.84      0.56
   10   13   10     -2.77      0.23
   10   13    9     -2.52     -1.06
   10   13    8      1.29      1.09
   10   13    7     -1.97     -0.96
   10   13    6      2.10      0.15
   10   13    5     -2.38     -1.09
   10   13    4      3.10      1.38
   10   13    3      2.85      5.89
   10   13    2      0.93      0.30
   10   13    1      2.23     -1.66
   10   13    0      0.61     -0.12
   11   13   17      3.01      1.49
   11   13   16      0.27      2.51
   11   13   15      1.04      0.42
   11   13   14     -0.60     -0.74
   11   13   13      2.65     -0.27
   11   13   12     -3.31     -3.91
   11   13   11     -6.82     -3.10
   11   13   10      0.10      1.68
   11   13    9      2.75     -0.61
   11   13    8      0.76      1.41
   11   13    7      1.41     -2.61
   11   13    6     -1.83     -2.14
   11   13    5     -1.20      2.83
   11   13    4      1.44      0.26
   11   13    3      3.41      1.22
   11   13    2     -1.38     -1.98
   11   13    1      4.63     -0.67
   11   13    0      0.78     -0.03
   12   13   16      2.23      3.65
   12   13   15      2.83     -2.88
   12   13   14     -2.61     -9.50
   12   13   13     -4.96     -0.91
   12   13   12     -0.17      0.81
   12   13   11     -0.74      0.58
   12   13   10      0.90     -3.39
   12   13    9      4.22     -2.27
   12   13    8      1.18      0.88
   12   13    7      0.69     -0.89
   12   13    6     -4.08     -2.55
   12   13    5      2.20     -0.95
   12   13    4     -3.19     -3.83
   12   13    3      2.81     -1.17
   12   13    2     -0.05     -1.01
   12   13    1      4.03      1.62
   12   13    0     -1.27     -0.10
   13   13    0      1.81     -0.07
   13   13    1      0.24     -0.05
   13   13    2     -0.39     -2.87
   13   13    3      0.41      0.50
   13   13    4     -6.46     -0.15
   13   13    5      0.67     -0.85
   13   13    6     -0.32     -5.30
   13   13    7      0.46      0.56
   13   13    8      1.05      0.01
   13   13    9      2.43     -1.94
   13   13   10     -0.30     -4.19
   13   13   11      0.86      0.99
   13   13   12      4.82      0.05
   13   13   13     -1.15      0.22
   13   13   14     -0.04     -2.78
    0   14    0      5.39     -2.85
    0   14    1     -0.31     -0.60
    0   14    2      0.91     -0.17
    0   14    3      0.04     -3.13
    0   14    4      3.62     -0.76
    0   14    5     -0.17     -2.23
    0   14    6     -5.16     -0.37
    0   14    7     -0.26      3.63
    0   14    8      3.65     -0.01
    0   14    9      0.83      1.15
    0   14   10     -4.99     -0.96
    0   14   11      1.17     -5.27
    0   14   12     -4.79     -0.07
    0   14   13      0.07      5.09
    0   14   14      2.51     -0.76
    0   14   15     -0.66     -3.49
    0   14   16     -3.45      0.56
    0   14   17      0.14     -0.30
    0   14   18     -0.79     -0.08
    0   14   19      0.32      1.59
    0   14   20      4.22      0.04
    0   14   21      0.06      0.23
    0   14   22      0.44      0.05
    1   14   22     -1.12      1.76
    1   14   21      0.86     -0.28
    1   14   20      2.04      3.69
    1   14   19      3.98      1.71
    1   14   18     -0.28      0.27
    1   14   17      4.68     -0.36
    1   14   16     -1.41      0.56
    1   14   15     -1.71      3.62
    1   14   14     -1.78      4.90
    1   14   13      0.23      0.27
    1   14   12     -0.96      5.74
    1   14   11      3.40     -0.84
    1   14   10     -2.11      1.66
    1   14    9      5.48      1.17
    1   14    8      2.31      1.52
    1   14    7      0.36      0.66
    1   14    6     -1.66     -4.15
    1   14    5      1.47     -2.21
    1   14    4      1.36     -1.37
    1   14    3     -2.64     -0.53
    1   14    2      4.00      2.53
    1   14    1      3.17     -0.68
    1   14    0      3.83     -2.12
    2   14   22     -0.23      1.90
    2   14   21      0.34     -0.89
    2   14   20      0.34      3.43
    2   14   19      3.26      1.72
    2   14   18     -0.64      1.59
    2   14   17      4.46      2.71
    2   14   16     -2.73      3.28
    2   14   15     -3.67      5.31
    2   14   14     -1.28      2.30
    2   14   13      2.45      2.29
    2   14   12      1.74      9.87
    2   14   11      3.06      2.45
    2   14   10      0.39      2.35
    2   14    9      2.55     -2.76
    2   14    8      0.26     -2.06
    2   14    7      2.53     -2.17
    2   14    6      3.05     -2.39
    2   14    5     -0.73     -0.97
    2   14    4     -2.95      0.34
    2   14    3     -2.84     -2.25
    2   14    2      5.88     -2.06
    2   14    1      0.16      3.43
    2   14    0      3.68      3.22
    3   14   22      1.10      0.60
    3   14   21     -0.20     -0.68
    3   14   20     -0.74     -0.58
    3   14   19     -1.03      2.12
    3   14   18     -0.84      1.79
    3   14   17     -1.41      1.83
    3   14   16     -0.51      0.71
    3   14   15      2.95      3.47
    3   14   14     -1.56      3.29
    3   14   13     -0.20      0.66
    3   14   12      0.18     -0.17
    3   14   11      1.56      2.18
    3   14   10     -1.01      2.75
    3   14    9     -0.82     -1.82
    3   14    8      1.28     -4.80
    3   14    7      1.53     -3.02
    3   14    6     -2.27      0.91
    3   14    5     -1.73     -5.27
    3   14    4     -1.77      1.42
    3   14    3     -1.82     -0.03
    3   14    2      0.43      1.15
    3   14    1      1.61      5.94
    3   14    0      9.75      4.90
    4   14   21      2.93      2.74
    4   14   20     -0.61     -1.51
    4   14   19     -0.88      0.06
    4   14   18     -2.78     -2.66
    4   14   17     -4.09     -3.34
    4   14   16      3.42     -1.10
    4   14   15      3.70     -0.70
    4   14   14     -4.11     -0.04
    4   14   13      2.32     -2.96
    4   14   12     -0.62     -3.09
    4   14   11     -2.17      4.54
    4   14   10     -0.88     -2.17
    4   14    9     -0.03     -0.58
    4   14    8     -1.78     -4.81
    4   14    7     -1.51     -2.83
    4   14    6     -2.48      6.61
    4   14    5      0.38     -0.64
    4   14    4      2.74      1.91
    4   14    3      0.57      2.26
    4   14    2      0.87     -0.39
    4   14    1      0.59     -0.40
    4   14    0      1.56      0.23
    5   14   21      4.81      4.51
    5   14   20     -1.16     -4.96
    5   14   19     -0.91     -1.04
    5   14   18     -3.42     -3.12
    5   14   17     -0.04     -4.95
    5   14   16     -1.27     -0.69
    5   14   15     -0.04     -3.21
    5   14   14     -0.02      1.72
    5   14   13      1.75     -1.33
    5   14   12     -2.77     -3.21
    5   14   11     -1.17     -0.99
    5   14   10      1.83     -2.63
    5   14    9     -1.20      6.25
    5   14    8      0.89     -0.45
    5   14    7     -1.39     -1.40
    5   14    6      0.94      5.14
    5   14    5      2.48     -0.71
    5   14    4      4.23     -2.55
    5   14    3     -4.41      1.23
    5   14    2      3.14     -3.56
    5   14    1     -3.83     -0.72
    5   14    0     -3.87     -2.90
    6   14   20     -1.83     -3.29
    6   14   19     -1.35      2.11
    6   14   18     -1.35     -1.76
    6   14   17     -0.93     -0.98
    6   14   16     -7.85      1.30
    6   14   15      1.39     -2.54
    6   14   14      2.10      1.10
    6   14   13     -1.41     -1.01
    6   14   12      2.53      1.50
    6   14   11     -2.74      0.53
    6   14   10      0.29      1.60
    6   14    9     -0.21      1.70
    6   14    8      2.10      0.19
    6   14    7     -2.00     -4.48
    6   14    6      5.25     -2.80
    6   14    5     -2.96     -0.80
    6   14    4     -1.71     -3.10
    6   14    3     -5.05      2.10
    6   14    2      4.48      0.36
    6   14    1     -3.09      1.18
    6   14    0     -1.99     -1.19
    7   14   20     -0.75     -2.75
    7   14   19      0.14     -0.94
    7   14   18     -2.30      1.52
    7   14   17     -0.23      2.66
    7   14   16     -2.57      0.28
    7   14   15      0.76     -0.04
    7   14   14     -0.55      0.62
    7   14   13     -0.24      1.45
    7   14   12      1.83      4.13
    7   14   11     -5.30     -0.11
    7   14   10      1.82     -0.47
    7   14    9     -3.38     -4.82
    7   14    8      0.53      1.94
    7   14    7      0.42     -2.48
    7   14    6      0.19     -3.02
    7   14    5     -5.50     -1.72
    7   14    4     -0.97     -1.39
    7   14    3     -1.80      0.18
    7   14    2     -0.16      2.09
    7   14    1      3.59      0.46
    7   14    0      0.62      0.71
    8   14   19      0.55     -1.91
    8   14   18     -1.56      2.22
    8   14   17      3.64     -0.10
    8   14   16     -1.17     -2.41
    8   14   15      0.54      2.85
    8   14   14     -1.82      4.16
    8   14   13     -1.64     -0.95
    8   14   12      0.82      0.08
    8   14   11     -2.51      2.14
    8   14   10     -1.96      0.97
    8   14    9     -3.21     -2.85
    8   14    8      2.26      1.73
    8   14    7     -1.54     -1.42
    8   14    6      0.07     -0.39
    8   14    5      0.94     -1.01
    8   14    4     -2.70     -1.03
    8   14    3      2.04     -3.80
    8   14    2     -0.81     -0.40
    8   14    1      2.26     -1.74
    8   14    0      0.40      0.73
    9   14   18      0.05      0.12
    9   14   17      2.52     -0.74
    9   14   16     -1.45     -0.36
    9   14   15      1.82      0.64
    9   14   14     -4.34      4.32
    9   14   13     -3.41     -1.28
    9   14   12      0.39     -1.73
    9   14   11      0.00      1.10
    9   14   10     -0.94      2.34
    9   14    9     -0.45      0.59
    9   14    8      1.75      0.62
    9   14    7     -1.11      1.05
    9   14    6      2.95      1.26
    9   14    5      1.58     -3.35
    9   14    4     -2.43     -3.80
    9   14    3      3.84     -2.66
    9   14    2     -0.59     -1.21
    9   14    1      1.11     -1.74
    9   14    0      4.67      0.19
   10   14   17     -1.55      0.73
   10   14   16     -3.81     -1.64
   10   14   15     -0.87     -3.73
   10   14   14     -2.64      0.84
   10   14   13      1.19     -0.26
   10   14   12      2.82     -1.23
   10   14   11     -2.55     -2.67
   10   14   10     -0.55      0.88
   10   14    9     -1.10      3.03
   10   14    8      1.91      1.28
   10   14    7      0.05      0.33
   10   14    6     -1.14     -0.19
   10   14    5     -0.80     -4.19
   10   14    4      1.62     -4.03
   10   14    3      4.52      1.90
   10   14    2      2.28      0.38
   10   14    1      0.92     -1.58
   10   14    0      0.02      0.11
   11   14   16     -3.32     -1.85
   11   14   15     -0.52     -1.27
   11   14   14      3.39     -5.13
   11   14   13      4.57     -1.61
   11   14   12     -1.50     -2.38
   11   14   11     -6.06     -0.67
   11   14   10      1.10      1.74
   11   14    9      0.57     -0.51
   11   14    8      2.27     -1.43
   11   14    7     -3.00      0.19
   11   14    6     -3.97      1.23
   11   14    5      0.95      0.47
   11   14    4      1.21     -2.31
   11   14    3      1.24     -0.20
   11   14    2      0.50      0.49
   11   14    1      3.77      0.64
   11   14    0     -0.16      0.46
   12   14   14      0.31     -2.28
   12   14   13      1.82     -2.11
   12   14   12      1.63      0.16
   12   14   11      2.45      3.93
   12   14   10     -3.41     -5.74
   12   14    9     -0.02     -2.04
   12   14    8      0.97      3.24
   12   14    7     -2.45      0.11
   12   14    6     -0.83      1.37
   12   14    5     -1.11      3.67
   12   14    4     -3.54     -0.48
   12   14    3      1.88     -0.66
   12   14    2      0.88      1.29
   12   14    1      3.13      1.13
   12   14    0      0.61      0.10
   13   14   12      1.41      0.50
   13   14   11      3.96     -0.45
   13   14   10     -5.72     -2.03
   13   14    9      1.45      3.98
   13   14    8     -1.18      1.71
   13   14    7      0.73      1.57
   13   14    6     -0.25      0.24
   13   14    5     -1.54      3.18
   13   14    4     -2.49      3.85
   13   14    3      0.88     -2.42
   13   14    2     -1.78     -2.11
   13   14    1      1.27      0.90
   13   14    0      5.08      0.05
   14   14    0      3.00      0.26
   14   14    1      1.34     -0.49
   14   14    2      0.01     -0.02
   14   14    3     -2.28     -1.92
   14   14    4     -4.01      0.07
   14   14    5      0.72      0.05
   14   14    6      0.10     -3.23
   14   14    7      3.68      4.83
   14   14    8     -2.88     -0.06
   14   14    9      1.05     -0.80
    0   15    0     -2.64     -0.31
    0   15    1      0.31      2.42
    0   15    2     -6.68     -0.05
    0   15    3      0.43     -2.10
    0   15    4     -3.45     -0.61
    0   15    5      0.49      2.06
    0   15    6     -0.15     -0.21
    0   15    7     -0.52      3.42
    0   15    8      4.65     -0.36
    0   15    9     -0.22      6.66
    0   15   10     -5.28      0.93
    0   15   11     -0.19     -2.34
    0   15   12     -4.38     -0.91
    0   15   13     -0.19      2.93
    0   15   14     -0.15     -0.12
    0   15   15     -0.52     -3.13
    0   15   16      1.65      0.29
    0   15   17     -0.03     -0.83
    0   15   18      0.58      0.32
    0   15   19      0.28      3.81
    0   15   20     -0.81     -0.32
    0   15   21     -0.30      6.88
    1   15   21     -2.15      4.69
    1   15   20      0.60      1.08
    1   15   19      1.81      0.28
    1   15   18     -0.26     -4.09
    1   15   17     -1.84     -1.19
    1   15   16      4.40      0.80
    1   15   15     -1.54      2.19
    1   15   14     -0.25      0.96
    1   15   13      4.17     -2.06
    1   15   12     -1.33      0.70
    1   15   11      2.76     -0.26
    1   15   10     -7.02     -0.93
    1   15    9     -2.54      3.79
    1   15    8      2.99      1.10
    1   15    7     -4.01      2.80
    1   15    6      3.29     -3.25
    1   15    5      1.81      0.20
    1   15    4     -2.00     -1.63
    1   15    3      3.33      0.67
    1   15    2     -2.77     -0.22
    1   15    1      5.08      0.57
    1   15    0     -3.40      0.43
    2   15   21     -1.45     -3.00
    2   15   20      2.86      0.37
    2   15   19      0.04      0.16
    2   15   18      0.93     -1.49
    2   15   17      0.72     -0.55
    2   15   16      4.71      0.35
    2   15   15     -1.22      1.69
    2   15   14      0.73     -2.01
    2   15   13      0.56     -1.69
    2   15   12     -0.22     -1.08
    2   15   11      2.04      1.66
    2   15   10     -4.53     -1.28
    2   15    9     -3.66     -1.86
    2   15    8      2.37      2.63
    2   15    7     -3.13      0.76
    2   15    6      2.00     -6.48
    2   15    5      1.63      0.07
    2   15    4      0.41      1.96
    2   15    3      3.57      0.68
    2   15    2      2.13     -3.71
    2   15    1      2.00     -0.04
    2   15    0      0.27      2.17
    3   15   20      3.91      3.08
    3   15   19     -1.71      2.97
    3   15   18      1.99      1.52
    3   15   17      0.26     -0.39
    3   15   16      1.69     -5.61
    3   15   15      2.51      0.74
    3   15   14     -2.78      0.48
    3   15   13     -4.32     -2.37
    3   15   12      1.95     -4.56
    3   15   11      3.27      4.56
    3   15   10     -0.74      1.98
    3   15    9     -5.36     -0.95
    3   15    8      2.79     -0.42
    3   15    7     -2.70     -0.97
    3   15    6     -2.08     -3.45
    3   15    5      2.85     -2.73
    3   15    4      0.00      2.34
    3   15    3      1.65      2.60
    3   15    2     -1.06      1.48
    3   15    1      3.25      1.89
    3   15    0      5.60      1.54
    4   15   20      3.22      4.15
    4   15   19     -1.21      0.60
    4   15   18     -0.92      0.57
    4   15   17     -0.71     -2.27
    4   15   16     -0.26     -4.33
    4   15   15      4.71      1.27
    4   15   14     -3.05     -0.21
    4   15   13      0.25      3.85
    4   15   12      0.61     -0.28
    4   15   11     -0.17      4.15
    4   15   10      1.47      1.00
    4   15    9     -3.26     -1.98
    4   15    8      2.01     -2.99
    4   15    7      0.45      0.76
    4   15    6     -1.15      3.93
    4   15    5     -0.25     -0.94
    4   15    4     -0.64      2.50
    4   15    3      1.76      4.91
    4   15    2     -2.11      3.99
    4   15    1      1.74     -1.34
    4   15    0     -4.97     -2.65
    5   15   19      2.04     -2.87
    5   15   18     -2.97      1.14
    5   15   17      0.12      1.08
    5   15   16     -2.49      2.10
    5   15   15      3.67     -0.94
    5   15   14      1.06      0.74
    5   15   13      2.76      5.20
    5   15   12     -2.99     -2.38
    5   15   11     -1.51     -1.01
    5   15   10      3.48     -0.57
    5   15    9      1.18      5.34
    5   15    8      1.58     -0.02
    5   15    7      0.78     -0.82
    5   15    6     -0.12      4.91
    5   15    5      0.51     -1.54
    5   15    4      2.28      2.33
    5   15    3     -5.69     -0.93
    5   15    2     -2.93      1.46
    5   15    1     -3.34     -1.44
    5   15    0     -7.65     -4.13
    6   15   19      0.98     -0.18
    6   15   18     -1.53      1.48
    6   15   17     -1.03      2.44
    6   15   16     -3.75      1.74
    6   15   15      4.66     -4.05
    6   15   14      3.70     -1.74
    6   15   13      0.11      0.04
    6   15   12      0.84      0.96
    6   15   11     -0.93     -0.31
    6   15   10      0.91      0.18
    6   15    9      3.77      4.63
    6   15    8     -0.29     -1.82
    6   15    7      0.29     -1.34
    6   15    6      0.55      0.56
    6   15    5     -3.42     -5.16
    6   15    4     -0.15      0.98
    6   15    3     -6.71     -5.99
    6   15    2      1.47      3.60
    6   15    1     -0.78     -0.65
    6   15    0     -0.17     -1.34
    7   15   18      1.67     -0.50
    7   15   17     -0.58      0.81
    7   15   16      0.60      0.35
    7   15   15      1.73     -0.04
    7   15   14      2.71     -0.07
    7   15   13      2.24     -0.94
    7   15   12      5.26      2.05
    7   15   11     -1.51     -1.96
    7   15   10     -3.49     -0.24
    7   15    9      0.00     -1.25
    7   15    8     -0.40      1.49
    7   15    7      0.58      2.02
    7   15    6     -3.97     -4.13
    7   15    5     -3.99     -8.22
    7   15    4      2.86      0.15
    7   15    3     -0.23     -5.68
    7   15    2      2.02      3.60
    7   15    1      4.55      0.67
    7   15    0      1.08      1.09
    8   15   17      3.75      1.72
    8   15   16      0.93      0.31
    8   15   15      1.27      3.60
    8   15   14      4.74      2.73
    8   15   13     -1.44     -0.78
    8   15   12      1.68      1.70
    8   15   11     -0.90      0.81
    8   15   10     -6.04      0.62
    8   15    9     -0.35     -2.72
    8   15    8     -0.61      1.29
    8   15    7     -1.66     -3.63
    8   15    6      0.93     -1.38
    8   15    5      0.06     -2.04
    8   15    4     -0.14     -0.16
    8   15    3      4.69     -0.47
    8   15    2     -1.15      1.97
    8   15    1     -0.70      0.83
    8   15    0     -1.06      0.68
    9   15   16      0.37      0.18
    9   15   15     -0.06      3.45
    9   15   14     -2.08      1.52
    9   15   13     -5.83      3.85
    9   15   12      0.11      2.02
    9   15   11      0.67     -1.79
    9   15   10     -3.24     -0.13
    9   15    9      0.56     -1.25
    9   15    8     -3.32     -1.65
    9   15    7      0.80     -2.59
    9   15    6      4.05      3.43
    9   15    5     -1.94     -0.38
    9   15    4     -2.79      0.62
    9   15    3      1.81      3.98
    9   15    2     -3.92      0.38
    9   15    1     -0.50      1.02
    9   15    0      0.45     -0.03
   10   15   15     -4.30     -0.29
   10   15   14     -0.53     -1.74
   10   15   13     -2.14      3.58
   10   15   12     -2.14      0.12
   10   15   11     -1.19     -0.97
   10   15   10     -0.93     -1.29
   10   15    9      2.40     -1.22
   10   15    8     -0.79     -0.64
   10   15    7      1.79     -0.49
   10   15    6     -2.91      1.35
   10   15    5     -3.24      0.05
   10   15    4     -2.08     -0.44
   10   15    3      0.05      2.14
   10   15    2      0.30      2.64
   10   15    1      0.55      0.89
   10   15    0     -3.34      0.09
   11   15   13      0.34     -2.26
   11   15   12     -1.84     -1.69
   11   15   11     -0.83      1.48
   11   15   10      0.71     -0.55
   11   15    9      3.61     -2.36
   11   15    8     -0.07     -1.04
   11   15    7     -2.22      0.02
   11   15    6     -3.44      1.71
   11   15    5      2.81      0.06
   11   15    4     -1.19     -3.25
   11   15    3     -3.18     -1.71
   11   15    2      0.00      3.73
   11   15    1      3.84      0.97
   11   15    0     -1.74      0.62
   12   15   12      2.48     -2.73
   12   15   11     -0.48      1.98
   12   15   10     -2.60      0.29
   12   15    9      0.76      0.09
   12   15    8     -0.55      4.45
   12   15    7      0.40     -3.25
   12   15    6      2.72     -0.83
   12   15    5      0.74      0.36
   12   15    4     -2.84     -2.27
   12   15    3      0.21     -1.58
   12   15    2     -0.20      3.79
   12   15    1     -0.28     -0.42
   12   15    0      0.51      0.17
   13   15    9     -1.50      5.13
   13   15    8      2.29      2.53
   13   15    7      1.24     -3.29
   13   15    6     -0.69     -1.26
   13   15    5      0.77     -1.43
   13   15    4      0.09      1.42
   13   15    3      1.06     -2.89
   13   15    2     -4.63     -1.01
   13   15    1     -1.63     -0.62
   13   15    0      6.14     -0.05
   14   15    6      0.45     -4.87
   14   15    5      0.66     -2.87
   14   15    4     -5.50      0.90
   14   15    3      1.59     -2.67
   14   15    2     -1.88     -0.59
   14   15    1      1.79     -0.47
   14   15    0     -0.47     -0.01
    0   16    0      0.19      0.30
    0   16    1      0.31      1.75
    0   16    2     -0.82     -0.37
    0   16    3     -0.53      3.98
    0   16    4      0.37      0.07
    0   16    5      0.64      2.49
    0   16    6      1.12      0.05
    0   16    7     -0.58     -2.58
    0   16    8     -1.68     -0.05
    0   16    9     -0.19      4.19
    0   16   10      1.92      3.93
    0   16   11     -0.24     -3.49
    0   16   12      2.51     -0.16
    0   16   13      0.22      4.50
    0   16   14      0.09      0.48
    0   16   15     -0.04     -2.30
    0   16   16      2.08     -0.31
    0   16   17     -0.27     -2.05
    0   16   18     -1.51      0.56
    0   16   19      0.47      0.90
    1   16   19     -2.67     -1.38
    1   16   18     -2.43      3.52
    1   16   17     -3.40     -1.93
    1   16   16      2.29      3.68
    1   16   15     -0.45     -0.70
    1   16   14      1.63     -0.04
    1   16   13      2.27      0.02
    1   16   12      2.59      0.91
    1   16   11     -1.42     -0.12
    1   16   10     -1.49     -0.30
    1   16    9     -0.60      2.43
    1   16    8     -1.81     -0.31
    1   16    7     -1.43      0.79
    1   16    6      5.17      0.77
    1   16    5      1.89     -0.18
    1   16    4      2.72      0.92
    1   16    3     -4.33      4.10
    1   16    2      2.80      4.12
    1   16    1      2.88      0.20
    1   16    0     -1.15      0.57
    2   16   19     -4.90     -0.52
    2   16   18      1.14      3.88
    2   16   17     -1.49     -3.05
    2   16   16      3.44      0.83
    2   16   15      0.21     -1.93
    2   16   14      0.34     -2.15
    2   16   13     -2.88     -2.85
    2   16   12     -0.32     -0.01
    2   16   11     -3.52      1.27
    2   16   10     -2.71     -2.60
    2   16    9      2.57      1.04
    2   16    8      4.15      3.52
    2   16    7     -0.02      2.33
    2   16    6      3.15     -4.46
    2   16    5      0.07      0.69
    2   16    4     10.10      4.48
    2   16    3     -2.06      0.36
    2   16    2      4.15      2.12
    2   16    1     -1.99     -2.22
    2   16    0     -1.37     -0.39
    3   16   19     -0.86      2.89
    3   16   18      2.73     -0.26
    3   16   17      0.36     -2.47
    3   16   16      2.33     -5.48
    3   16   15     -2.42     -2.19
    3   16   14     -2.07     -1.42
    3   16   13     -4.36     -4.03
    3   16   12     -1.21     -0.53
    3   16   11      0.34      1.40
    3   16   10      0.33      0.19
    3   16    9      4.60     -0.56
    3   16    8      4.88      4.31
    3   16    7     -1.14      1.82
    3   16    6      1.53     -0.84
    3   16    5      0.31     -1.84
    3   16    4      9.94     -0.22
    3   16    3     -5.14     -2.72
    3   16    2     -1.77      0.13
    3   16    1     -0.04     -0.61
    3   16    0      0.50     -0.88
    4   16   18      0.49     -3.62
    4   16   17      2.35      0.84
    4   16   16      1.19     -5.23
    4   16   15     -1.73     -0.77
    4   16   14      1.85     -0.67
    4   16   13     -1.80      0.87
    4   16   12     -1.69      1.97
    4   16   11      3.79     -0.65
    4   16   10     -1.09      1.52
    4   16    9      2.60     -1.56
    4   16    8      2.11      4.37
    4   16    7      2.66      1.67
    4   16    6     -0.07      2.31
    4   16    5     -4.98     -5.15
    4   16    4     -2.34     -2.38
    4   16    3     -3.22      1.24
    4   16    2      0.77     -0.28
    4   16    1      3.07     -0.30
    4   16    0     -3.10     -1.28
    5   16   18     -0.13     -1.60
    5   16   17      0.24      6.59
    5   16   16      0.97     -0.42
    5   16   15      0.29     -0.51
    5   16   14      3.66     -2.71
    5   16   13      0.77      1.35
    5   16   12      0.35      1.52
    5   16   11     -0.20     -1.56
    5   16   10     -2.64      1.13
    5   16    9      2.04      3.84
    5   16    8     -2.80      1.23
    5   16    7      1.44     -0.79
    5   16    6     -3.05      1.12
    5   16    5     -1.85     -0.01
    5   16    4     -2.76     -0.63
    5   16    3      2.58      0.31
    5   16    2     -1.42     -1.95
    5   16    1      0.30     -0.16
    5   16    0      0.28     -0.68
    6   16   17     -2.29      5.25
    6   16   16      1.32     -0.37
    6   16   15      3.07     -2.61
    6   16   14      1.60     -4.87
    6   16   13     -0.64      0.16
    6   16   12      0.32     -0.40
    6   16   11     -3.75     -1.92
    6   16   10     -1.47     -1.19
    6   16    9     -0.24      3.75
    6   16    8     -0.28     -1.20
    6   16    7      1.35      1.95
    6   16    6     -1.35     -2.74
    6   16    5      2.39      2.20
    6   16    4     -0.99     -2.19
    6   16    3      1.83     -2.34
    6   16    2     -2.31     -0.89
    6   16    1      2.72     -0.09
    6   16    0      4.50      0.18
    7   16   16     -1.17      2.21
    7   16   15      0.17      0.73
    7   16   14     -2.81     -3.03
    7   16   13      1.82     -4.64
    7   16   12      1.76     -4.46
    7   16   11     -2.33     -2.63
    7   16   10     -0.89     -1.94
    7   16    9     -0.33      0.59
    7   16    8      6.09      0.92
    7   16    7     -0.50      2.89
    7   16    6     -1.54     -5.05
    7   16    5      0.43      0.34
    7   16    4      1.67     -2.01
    7   16    3      0.84     -2.71
    7   16    2      1.26     -1.15
    7   16    1      3.10      1.76
    7   16    0     -0.27      0.58
    8   16   15      0.05     -0.56
    8   16   14      0.58     -0.93
    8   16   13      0.83     -5.09
    8   16   12     -0.70     -2.45
    8   16   11      3.10     -1.04
    8   16   10      0.93     -1.47
    8   16    9     -0.20     -1.45
    8   16    8      3.31      2.17
    8   16    7     -3.66     -0.53
    8   16    6      0.99     -0.86
    8   16    5     -0.18      1.77
    8   16    4      1.29     -0.75
    8   16    3      1.51      2.84
    8   16    2      0.60      0.15
    8   16    1     -2.66      1.64
    8   16    0     -0.87     -0.20
    9   16   14     -1.33      1.43
    9   16   13     -0.01     -0.55
    9   16   12      1.56      0.38
    9   16   11      3.93     -1.93
    9   16   10     -0.41     -0.11
    9   16    9     -1.44      1.94
    9   16    8     -2.75      0.53
    9   16    7     -2.17      0.36
    9   16    6      3.50      1.96
    9   16    5     -0.85      1.66
    9   16    4     -0.52      2.61
    9   16    3      0.38      6.68
    9   16    2     -1.07     -1.17
    9   16    1     -0.15      0.80
    9   16    0     -2.03     -0.63
   10   16   13      0.45      2.39
   10   16   12     -4.24      1.62
   10   16   11     -0.42      1.23
   10   16   10      0.02     -1.95
   10   16    9      0.50     -0.37
   10   16    8     -1.14     -1.32
   10   16    7      1.39      3.33
   10   16    6      1.16     -1.91
   10   16    5     -1.83      2.10
   10   16    4     -1.13      2.52
   10   16    3      0.23      1.98
   10   16    2      0.50      0.40
   10   16    1     -0.16     -0.76
   10   16    0     -4.49     -0.59
   11   16   11      0.79     -1.64
   11   16   10      0.86     -4.47
   11   16    9      2.12     -1.60
   11   16    8      1.68     -3.21
   11   16    7      0.43      1.65
   11   16    6      1.55     -2.44
   11   16    5      2.63      1.39
   11   16    4     -1.34     -1.27
   11   16    3     -4.40     -2.02
   11   16    2     -0.61      1.40
   11   16    1      2.97     -3.65
   11   16    0      0.28      0.19
   12   16    9      2.51     -2.42
   12   16    8      1.97     -0.83
   12   16    7     -0.73     -1.99
   12   16    6      4.52     -2.92
   12   16    5     -0.70     -0.73
   12   16    4     -2.53     -2.72
   12   16    3     -1.09     -0.34
   12   16    2      0.26      4.04
   12   16    1      0.53     -4.40
   12   16    0     -0.25      0.07
   13   16    5     -1.73     -1.65
   13   16    4      3.98     -0.48
   13   16    3      0.78      1.37
   13   16    2     -2.91      2.98
   13   16    1     -2.40     -1.61
   13   16    0     -1.04      0.02
    0   17    0      1.93      0.23
    0   17    1      0.24      1.59
    0   17    2      0.12     -0.17
    0   17    3     -0.33      3.14
    0   17    4     -0.52      0.41
    0   17    5      0.22     -5.21
    0   17    6     -1.34      0.32
    0   17    7     -0.56     -3.16
    0   17    8     -0.49     -0.54
    0   17    9      0.19     -3.44
    0   17   10     -1.22      1.46
    0   17   11      0.25     -7.66
    0   17   12      1.94     -0.65
    0   17   13     -0.06     -1.45
    0   17   14     -3.25      0.35
    0   17   15      0.17     -2.24
    0   17   16     -0.32     -0.15
    0   17   17     -0.27      1.78
    1   17   17     -1.34      1.59
    1   17   16     -1.52     -1.79
    1   17   15      0.25      1.98
    1   17   14     -1.69      3.18
    1   17   13      1.51     -1.33
    1   17   12      1.86      1.32
    1   17   11     -1.31     -2.62
    1   17   10      0.53      0.35
    1   17    9     -0.59     -3.39
    1   17    8     -1.96     -0.98
    1   17    7      0.48     -0.72
    1   17    6      1.40      0.53
    1   17    5      3.40     -3.12
    1   17    4     -0.02      0.13
    1   17    3     -5.02      3.36
    1   17    2      4.00      2.75
    1   17    1      6.10      1.98
    1   17    0     -1.02      0.43
    2   17   17      0.67      1.21
    2   17   16     -1.29      1.06
    2   17   15      0.96      6.52
    2   17   14     -1.49      0.40
    2   17   13      1.12      2.08
    2   17   12      0.39      2.79
    2   17   11     -0.89      1.59
    2   17   10      1.18     -2.42
    2   17    9      0.02      0.20
    2   17    8      4.15      0.58
    2   17    7      1.83     -0.45
    2   17    6     -1.71     -0.30
    2   17    5      2.33      0.88
    2   17    4      4.66      0.20
    2   17    3      0.16      0.08
    2   17    2      3.10      0.98
    2   17    1      0.95      3.10
    2   17    0     -1.31     -0.94
    3   17   17      2.96      0.18
    3   17   16     -2.65      3.07
    3   17   15     -0.50      2.18
    3   17   14     -0.78     -1.75
    3   17   13      1.47      5.92
    3   17   12     -0.83      1.78
    3   17   11     -0.67      1.32
    3   17   10      1.94     -2.97
    3   17    9      2.23     -0.92
    3   17    8      1.80     -0.44
    3   17    7     -0.23      1.27
    3   17    6     -2.16      1.72
    3   17    5      2.37     -1.59
    3   17    4      5.68     -2.05
    3   17    3     -2.83     -3.22
    3   17    2     -4.28     -0.38
    3   17    1      0.18      1.67
    3   17    0      0.55     -0.61
    4   17   16     -1.09      1.87
    4   17   15      0.12     -1.56
    4   17   14     -0.91      1.32
    4   17   13      0.04      2.61
    4   17   12     -3.17     -0.65
    4   17   11      1.05     -0.78
    4   17   10     -0.40     -2.10
    4   17    9     -1.83     -0.95
    4   17    8      0.34      1.29
    4   17    7      1.30      0.87
    4   17    6     -2.59     -2.55
    4   17    5     -3.22     -3.66
    4   17    4     -5.50     -0.06
    4   17    3     -4.18      0.66
    4   17    2     -0.51     -0.50
    4   17    1      1.54     -3.41
    4   17    0      0.77      0.71
    5   17   16      0.85      0.18
    5   17   15     -1.03     -1.28
    5   17   14     -1.39     -2.20
    5   17   13      1.75     -3.24
    5   17   12     -1.91      3.68
    5   17   11      0.53     -0.18
    5   17   10     -2.66      1.53
    5   17    9     -1.36      1.29
    5   17    8     -3.86     -1.04
    5   17    7     -2.15     -1.93
    5   17    6     -0.83     -3.55
    5   17    5     -6.28      2.37
    5   17    4     -3.09     -1.31
    5   17    3      4.13      2.89
    5   17    2      0.65      0.38
    5   17    1     -0.64     -4.20
    5   17    0      2.52      1.60
    6   17   15      0.75     -0.40
    6   17   14      0.30     -3.13
    6   17   13      0.80      1.11
    6   17   12     -1.84      4.57
    6   17   11      0.16     -2.02
    6   17   10     -2.54      2.44
    6   17    9      0.38      0.56
    6   17    8     -3.48      1.43
    6   17    7     -0.69     -1.08
    6   17    6      2.36     -4.45
    6   17    5     -2.30      2.73
    6   17    4      5.05     -2.94
    6   17    3      2.59      4.35
    6   17    2     -0.31      2.21
    6   17    1      1.02     -0.94
    6   17    0      2.76      0.78
    7   17   14     -0.08     -0.38
    7   17   13      0.72      0.23
    7   17   12      0.87      0.18
    7   17   11      0.35     -0.64
    7   17   10     -1.50      2.05
    7   17    9      3.01     -0.54
    7   17    8     -0.66      1.84
    7   17    7     -0.10     -2.29
    7   17    6      3.13     -1.00
    7   17    5      0.44      3.01
    7   17    4      5.66      0.05
    7   17    3     -1.05      1.35
    7   17    2      1.80     -1.27
    7   17    1      1.82      1.36
    7   17    0     -2.38     -0.03
    8   17   13     -0.78     -1.82
    8   17   12      1.10     -1.47
    8   17   11      2.32      0.53
    8   17   10     -0.04      0.18
    8   17    9      0.41     -1.85
    8   17    8      1.18      3.29
    8   17    7     -1.44      2.43
    8   17    6      1.56      1.35
    8   17    5      1.72      1.56
    8   17    4      2.28     -1.61
    8   17    3     -1.84     -0.31
    8   17    2     -1.20     -3.21
    8   17    1     -1.51      1.10
    8   17    0     -3.66     -0.54
    9   17   12      2.10     -1.95
    9   17   11     -0.33     -0.38
    9   17   10      0.31      1.07
    9   17    9      0.76      1.93
    9   17    8      1.01      3.31
    9   17    7     -3.83      2.48
    9   17    6      1.87     -1.37
    9   17    5     -0.15     -0.16
    9   17    4     -2.58     -3.94
    9   17    3     -2.17      2.00
    9   17    2     -3.11     -3.03
    9   17    1     -1.03      0.98
    9   17    0     -4.71     -0.24
   10   17   10      3.17     -0.69
   10   17    9     -0.14     -0.75
   10   17    8      1.10      1.72
   10   17    7     -0.89      1.90
   10   17    6      0.08     -4.44
   10   17    5     -3.91     -1.37
   10   17    4     -4.91     -0.33
   10   17    3     -0.69      2.00
   10   17    2      0.00     -0.80
   10   17    1     -3.26      0.36
   10   17    0     -2.53     -0.12
   11   17    7     -0.15     -1.87
   11   17    6     -1.61     -2.47
   11   17    5     -0.61     -0.03
   11   17    4     -3.28      3.15
   11   17    3     -1.38     -0.26
   11   17    2      1.40     -0.04
   11   17    1     -0.52     -2.81
   11   17    0      4.38      0.08
   12   17    3      0.62     -0.72
   12   17    2      4.35      1.03
   12   17    1      1.99     -3.29
   12   17    0      0.57     -0.26
    0   18    0      4.52      0.44
    0   18    1      0.32     -4.97
    0   18    2     -2.11      0.31
    0   18    3      0.18      2.13
    0   18    4      0.27      0.20
    0   18    5      0.15     -1.40
    0   18    6     -2.26      0.37
    0   18    7      0.12     -1.69
    0   18    8      2.22     -0.15
    0   18    9     -0.68     -5.98
    0   18   10     -5.26     -1.12
    0   18   11     -0.50     -4.41
    0   18   12      1.47      0.07
    0   18   13     -0.10     -5.51
    0   18   14     -3.72      0.24
    0   18   15      0.16     -0.64
    1   18   15      0.23      1.94
    1   18   14     -3.42      4.06
    1   18   13     -2.35     -3.60
    1   18   12      0.76     -0.02
    1   18   11     -2.14     -0.72
    1   18   10     -0.39      3.77
    1   18    9     -2.44     -5.47
    1   18    8     -0.15      2.41
    1   18    7      1.14     -0.85
    1   18    6     -0.10     -1.19
    1   18    5      1.21      1.41
    1   18    4     -1.27      0.45
    1   18    3     -1.93      2.36
    1   18    2      1.29      0.65
    1   18    1      5.26     -4.27
    1   18    0     -2.36      0.52
    2   18   15      0.38      4.73
    2   18   14     -1.16      1.41
    2   18   13      0.07      0.12
    2   18   12      0.69      2.37
    2   18   11      0.99      1.78
    2   18   10      2.20      2.35
    2   18    9     -4.88      1.98
    2   18    8      3.12      4.16
    2   18    7      0.06      0.59
    2   18    6     -1.20      1.57
    2   18    5      0.17      2.30
    2   18    4     -1.33     -1.96
    2   18    3      1.17     -0.84
    2   18    2     -0.29     -0.93
    2   18    1      0.82     -0.22
    2   18    0     -1.25     -0.24
    3   18   14      3.38     -0.97
    3   18   13      2.28      4.49
    3   18   12      2.54      3.13
    3   18   11      0.79     -0.28
    3   18   10      1.56      2.52
    3   18    9     -3.16      6.29
    3   18    8      0.75      1.91
    3   18    7     -4.51      4.07
    3   18    6      1.01      0.88
    3   18    5      0.18     -1.04
    3   18    4      0.75     -3.65
    3   18    3      1.85     -1.46
    3   18    2     -2.09     -0.48
    3   18    1      1.54     -0.14
    3   18    0      1.44      0.29
    4   18   14      1.74      1.31
    4   18   13      1.48      1.46
    4   18   12      1.66     -1.23
    4   18   11     -1.12     -0.68
    4   18   10     -0.32      3.14
    4   18    9     -3.98      3.01
    4   18    8      1.88      3.00
    4   18    7     -4.44      3.58
    4   18    6      0.45     -3.81
    4   18    5      0.26     -0.63
    4   18    4     -0.72      0.40
    4   18    3      2.67      2.13
    4   18    2     -0.37     -2.37
    4   18    1     -0.20     -0.18
    4   18    0      2.44      0.77
    5   18   13      1.48     -0.50
    5   18   12     -0.99     -1.32
    5   18   11     -0.42      3.02
    5   18   10      0.02      0.63
    5   18    9     -1.63     -2.65
    5   18    8     -1.46      2.61
    5   18    7     -2.84      0.63
    5   18    6      1.09      1.47
    5   18    5     -2.22      2.42
    5   18    4     -2.34     -0.38
    5   18    3      5.02      4.64
    5   18    2     -0.70      0.60
    5   18    1      0.19      2.99
    5   18    0      1.65      0.98
    6   18   12     -1.40     -1.07
    6   18   11      2.17      1.69
    6   18   10     -0.10     -4.43
    6   18    9     -0.77     -0.60
    6   18    8     -3.80      2.93
    6   18    7      2.88      0.74
    6   18    6     -1.91      5.00
    6   18    5     -1.19     -1.87
    6   18    4     -0.60      1.15
    6   18    3      1.26      7.48
    6   18    2     -1.45      2.31
    6   18    1      1.23      2.94
    6   18    0     -0.75      0.06
    7   18   11      0.76      2.15
    7   18   10     -0.07     -2.58
    7   18    9      0.34      3.53
    7   18    8     -4.17     -2.22
    7   18    7      3.14     -0.63
    7   18    6     -1.11      5.26
    7   18    5      3.44     -1.37
    7   18    4     -1.45      3.29
    7   18    3     -2.36      2.96
    7   18    2     -0.66     -2.06
    7   18    1      0.64      0.05
    7   18    0     -1.11     -0.43
    8   18   10     -0.21     -0.01
    8   18    9     -2.29      1.75
    8   18    8      0.20     -2.34
    8   18    7      1.17      3.41
    8   18    6     -0.13      0.59
    8   18    5      3.99     -2.17
    8   18    4     -0.63     -1.21
    8   18    3     -1.30     -1.70
    8   18    2     -2.53     -1.42
    8   18    1     -1.89     -0.52
    8   18    0      0.52     -0.35
    9   18    8      1.56     -0.11
    9   18    7     -2.26      1.70
    9   18    6      1.43     -3.69
    9   18    5      0.90     -0.25
    9   18    4     -0.79     -6.09
    9   18    3     -0.41      0.32
    9   18    2     -3.29      3.89
    9   18    1     -0.11     -1.32
    9   18    0      0.74      0.09
   10   18    5     -2.83      0.68
   10   18    4     -3.01     -2.89
   10   18    3      1.29      2.42
   10   18    2      1.50      2.30
   10   18    1     -0.47     -0.94
   10   18    0     -0.30      0.18
    0   19    0      2.57      0.08
    0   19    1      0.60     -2.02
    0   19    2     -3.44      0.74
    0   19    3      0.65     -0.28
    0   19    4      4.65      0.14
    0   19    5      0.26      1.67
    0   19    6      0.29     -0.49
    0   19    7      0.60      1.89
    0   19    8     -0.32      0.15
    0   19    9     -0.15      4.02
    0   19   10     -0.58     -1.04
    0   19   11     -0.16     -2.97
    0   19   12      2.55      0.26
    1   19   12      0.81      0.09
    1   19   11      0.19     -0.39
    1   19   10     -0.58      0.10
    1   19    9     -0.31      0.05
    1   19    8     -3.03     -0.55
    1   19    7      0.47      1.12
    1   19    6     -0.06     -1.22
    1   19    5     -1.50      1.83
    1   19    4      0.53     -0.80
    1   19    3      0.48      1.36
    1   19    2      0.56     -1.69
    1   19    1      0.57     -1.23
    1   19    0     -3.10      0.36
    2   19   12     -1.93      2.02
    2   19   11      0.39      0.41
    2   19   10     -2.63     -2.84
    2   19    9     -1.46      0.96
    2   19    8     -2.48      1.23
    2   19    7     -0.53     -0.34
    2   19    6     -0.95      1.53
    2   19    5     -0.80     -1.15
    2   19    4     -3.07     -1.03
    2   19    3      1.39      0.72
    2   19    2     -1.02     -1.72
    2   19    1     -2.33      2.06
    2   19    0      3.00      0.33
    3   19   12     -2.30      2.23
    3   19   11     -0.37     -1.04
    3   19   10     -1.37     -1.02
    3   19    9      1.42      4.85
    3   19    8     -0.60     -0.13
    3   19    7     -1.50     -2.94
    3   19    6      1.77      2.56
    3   19    5      0.37     -0.81
    3   19    4     -2.22     -0.11
    3   19    3      1.29      1.03
    3   19    2      2.26      0.58
    3   19    1      2.17     -1.38
    3   19    0      3.51      0.35
    4   19   11     -0.87     -0.12
    4   19   10     -0.63      1.21
    4   19    9      3.96      2.27
    4   19    8      3.93     -0.33
    4   19    7      0.05      0.37
    4   19    6      0.91      1.41
    4   19    5      3.26      1.99
    4   19    4      2.82      2.51
    4   19    3      1.91     -1.11
    4   19    2      2.02     -2.21
    4   19    1     -3.57     -2.32
    4   19    0      3.71      0.04
    5   19   10     -0.03      0.10
    5   19    9      3.50     -3.14
    5   19    8      1.37      2.01
    5   19    7      4.00      4.70
    5   19    6      1.86      0.41
    5   19    5      3.35      3.29
    5   19    4     -0.38     -0.29
    5   19    3     -2.14     -0.90
    5   19    2     -0.80      1.41
    5   19    1     -1.94     -0.19
    5   19    0      5.72     -0.05
    6   19    9     -3.74     -1.11
    6   19    8     -0.36      1.04
    6   19    7      7.40      4.16
    6   19    6     -2.14     -1.41
    6   19    5      2.25     -1.84
    6   19    4     -3.09      0.72
    6   19    3     -5.34      4.63
    6   19    2      0.21      2.59
    6   19    1     -1.36     -0.54
    6   19    0      0.72     -0.71
    7   19    7      1.21     -0.86
    7   19    6     -1.75     -1.21
    7   19    5      3.51     -2.49
    7   19    4     -4.29      1.85
    7   19    3     -4.36      3.41
    7   19    2      1.12      2.99
    7   19    1     -2.82     -1.26
    7   19    0      1.51     -0.73
    8   19    5      0.73     -3.99
    8   19    4      0.23      0.58
    8   19    3      2.03      0.50
    8   19    2      0.56      4.80
    8   19    1     -1.46     -0.91
    8   19    0      3.31      0.02
    0   20    0      2.01     -0.62
    0   20    1      0.33     -1.93
    0   20    2     -0.80      0.12
    0   20    3      0.37     -0.46
    0   20    4      1.28     -0.15
    0   20    5     -0.16      3.09
    0   20    6      0.42     -0.49
    0   20    7      0.19      0.77
    0   20    8      0.36      0.02
    0   20    9      0.66      3.93
    1   20    8     -0.28     -4.34
    1   20    7     -0.11      1.90
    1   20    6      1.07      0.37
    1   20    5     -1.43      1.78
    1   20    4     -2.10      1.85
    1   20    3     -1.76      0.59
    1   20    2      2.61      4.74
    1   20    1     -3.15     -2.35
    1   20    0      0.87     -0.40
    2   20    8     -3.04     -3.80
    2   20    7     -1.60      1.32
    2   20    6      1.55     -1.14
    2   20    5     -1.70     -1.24
    2   20    4     -1.19      2.47
    2   20    3     -1.30      1.51
    2   20    2     -0.20      6.68
    2   20    1     -3.89     -0.27
    2   20    0      6.81      0.16
    3   20    7     -0.77     -4.82
    3   20    6      0.05     -0.43
    3   20    5      1.20      1.29
    3   20    4      0.97      2.05
    3   20    3     -2.22      1.28
    3   20    2      2.18      5.34
    3   20    1      2.48      2.23
    3   20    0      0.54      0.12
    4   20    6     -2.29      2.07
    4   20    5      3.98      0.85
    4   20    4      3.14      2.24
    4   20    3      2.04     -3.22
    4   20    2     -0.39      0.86
    4   20    1     -2.30      5.51
    4   20    0     -3.44     -0.22
    5   20    5      1.82     -1.83
    5   20    4      0.25      0.72
    5   20    3      0.54     -4.46
    5   20    2     -4.54      0.94
    5   20    1      0.39      3.23
    5   20    0      0.82     -0.37
    6   20    2      0.14     -1.03
    6   20    1      0.84     -1.28
    6   20    0     -1.56     -0.51
    0    1    0    257.44     -0.78
    1    1    0     -1.44     -0.23
    0    2    0   -179.24     -0.08
    1    2    0    -93.25      0.48
    0    3    0   -133.19      0.47
    2    3    0     49.04     -2.31
    2    9    0      3.08      0.53
   15   15    0     -7.58     -0.05
   14   16    0     -4.02     -0.09
   15   16    0     -3.15     -0.04
   16   16    0      1.56     -0.35
   13   17    0     -3.56      0.09
   14   17    0     -0.33      0.20
   15   17    0      4.88      0.15
   16   17    0      4.33     -0.16
   11   18    0      2.30     -0.09
   12   18    0     -0.02     -0.33
   13   18    0     -2.28      0.06
   14   18    0     -0.22      0.06
   15   18    0      0.81      0.12
    9   19    0      2.16      0.34
   10   19    0     -2.20      0.46
   11   19    0     -0.70      0.13
   12   19    0      2.19     -0.21
   13   19    0      0.17     -0.17
    7   20    0      0.61     -0.35
    8   20    0     -0.52      0.32
    9   20    0     -0.84      0.08
   10   20    0     -1.34      0.01
   11   20    0     -2.49      0.18
   12   20    0      0.27      0.16
    0   21    0     -2.37     -0.32
    1   21    0     -2.01     -0.39
    2   21    0     -0.64      0.10
    3   21    0     -3.13      0.06
    4   21    0     -2.02     -0.14
    5   21    0      1.98     -0.32
    6   21    0     -0.14     -0.06
    7   21    0     -0.85      0.17
    8   21    0     -3.34      0.49
    9   21    0     -1.95     -0.01
   10   21    0      0.42     -0.18
    0    1    1     -0.09    -61.31
    1    1    1     14.41    -14.69
    0    2    1      0.77    152.96
    1    2    1    -31.74     87.48
    2    3    1     40.14    -32.74
   15   15    1      1.23     -1.64
   14   16    1     -1.60      2.59
   15   16    1      0.12      3.16
   16   16    1     -0.89      0.63
   13   17    1     -0.51      0.10
   14   17    1     -1.32      1.25
   15   17    1     -0.15     -0.38
   16   17    1      0.28     -0.67
   11   18    1     -2.31      1.78
   12   18    1     -0.55      2.23
   13   18    1     -0.65      0.68
   14   18    1      0.90     -1.86
   15   18    1     -0.03     -2.21
    9   19    1      3.58     -1.57
   10   19    1      4.46      0.37
   11   19    1     -2.48      5.80
   12   19    1     -3.13      5.12
   13   19    1     -1.35      1.06
    7   20    1     -1.28     -2.03
    8   20    1     -0.79     -0.96
    9   20    1     -0.54     -0.48
   10   20    1      1.83     -1.10
   11   20    1     -1.07     -0.43
   12   20    1     -2.19     -1.37
    0   21    1     -0.18      1.75
    1   21    1      0.73      1.01
    2   21    1      1.49      0.48
    3   21    1      2.68      3.07
    4   21    1     -1.02      3.89
    5   21    1     -0.46     -0.03
    6   21    1      0.11     -3.06
    7   21    1     -0.61     -1.95
    8   21    1     -1.13      1.51
    9   21    1     -3.66      3.26
   10   21    1     -0.62      1.23
    0    1    2   -105.66      0.89
    1    1    2     -0.45    -19.00
    0    2    2    -23.61      1.30
    1    2    2     -7.16     36.66
    2    2    2     -0.29     27.69
    3    3    2      0.06    -26.94
    4    4    2     -0.35      0.96
   15   15    2      0.06     -0.08
   14   16    2     -0.75      1.52
   15   16    2     -0.44      1.29
   16   16    2      0.03      1.49
   13   17    2      3.32      2.26
   14   17    2      2.41      2.79
   15   17    2      0.14      0.10
   16   17    2     -0.74     -1.17
   11   18    2      2.84     -0.16
   12   18    2      3.12      0.71
   13   18    2      1.95      1.54
   14   18    2     -0.59      0.49
   15   18    2     -1.48     -1.70
    9   19    2     -1.23      5.05
   10   19    2      0.93     -1.21
   11   19    2      1.15     -2.14
   12   19    2     -0.46      0.16
   13   19    2     -0.41     -0.01
    7   20    2      2.59      0.66
    8   20    2      1.29      0.35
    9   20    2     -0.93     -1.24
   10   20    2     -0.65     -2.50
   11   20    2     -0.57      0.58
   12   20    2     -1.94      1.13
    0   21    2      0.82     -0.25
    1   21    2      0.59      2.82
    2   21    2     -4.08      3.00
    3   21    2     -2.34      0.73
    4   21    2     -0.93     -1.17
    5   21    2     -1.93     -2.71
    6   21    2      1.32     -3.35
    7   21    2      2.06     -0.37
    8   21    2      0.13      0.53
    9   21    2     -0.50      1.21
   10   21    2     -0.47      0.53
    0    1    3      0.06     75.82
    2    2    3    -25.01    -24.22
    0    3    3     -0.38    -78.35
    1    4    3    -18.19      3.10
   15   15    3      1.25      1.25
   14   16    3      0.56     -0.01
   15   16    3      1.27     -0.75
   16   16    3     -0.65     -0.30
   13   17    3      1.82     -2.27
   14   17    3     -0.86     -3.44
   15   17    3     -0.05     -2.36
   16   17    3     -0.72     -0.32
   11   18    3      3.84     -1.02
   12   18    3      1.60     -2.09
   13   18    3      0.10     -2.47
   14   18    3     -1.98     -0.88
    9   19    3      3.40     -0.43
   10   19    3      0.46     -0.03
   11   19    3      0.85     -1.48
   12   19    3      0.03      0.37
   13   19    3      0.25      0.72
    6   20    3     -1.69     -0.97
    7   20    3     -0.95     -0.14
    8   20    3      0.89      0.28
    9   20    3     -1.92     -1.58
   10   20    3     -3.34     -1.56
   11   20    3     -1.81     -1.43
   12   20    3     -0.91      0.53
    0   21    3     -0.29      0.20
    1   21    3      1.88      1.02
    2   21    3      2.32      2.50
    3   21    3     -2.65     -0.21
    4   21    3      0.10     -2.87
    5   21    3      1.99     -2.20
    6   21    3      1.57     -1.07
    7   21    3      1.05     -0.50
    8   21    3     -1.18     -0.22
    9   21    3     -4.22     -0.74
   10   21    3     -1.74      1.28
    0    2    4     -6.50      0.49
    0    4    4      8.98      1.05
    1    4    4     -8.10    -24.81
   15   15    4     -4.54      0.35
   14   16    4     -0.05      0.98
   15   16    4     -0.46      1.29
   16   16    4     -0.20      0.07
   12   17    4     -2.36      0.86
   13   17    4      3.72     -2.30
   14   17    4      2.75     -2.64
   15   17    4      0.96     -0.18
   11   18    4     -1.86      1.87
   12   18    4     -2.30      2.69
   13   18    4     -2.59      0.14
   14   18    4     -1.11     -1.51
    9   19    4      3.69     -1.48
   10   19    4      1.58     -3.04
   11   19    4      0.90     -4.05
   12   19    4     -0.36     -1.02
   13   19    4     -1.28      0.61
    6   20    4     -1.59     -0.21
    7   20    4     -2.58     -2.85
    8   20    4      1.12     -1.91
    9   20    4      1.69      1.06
   10   20    4     -0.60      0.72
   11   20    4      0.97     -1.42
    0   21    4     -0.98     -0.31
    1   21    4     -3.39      0.13
    2   21    4     -0.22      0.24
    3   21    4      0.77     -0.31
    4   21    4     -0.44     -1.44
    5   21    4      0.19      0.04
    6   21    4      0.88      1.11
    7   21    4      0.33     -0.17
    8   21    4      1.48      1.11
    9   21    4     -0.60      2.30
   10   21    4     -2.57      1.00
    1    1    5     -9.02     10.00
    0    2    5     -0.16    -69.94
    2    2    5     -2.08      2.40
    0    4    5     -0.29     31.66
    0    5    5      0.73     10.83
   15   15    5     -1.41      1.83
   14   16    5     -0.88     -2.31
   15   16    5     -3.62     -1.27
   16   16    5      0.00     -0.49
   12   17    5      0.72     -2.15
   13   17    5     -0.41     -3.20
   14   17    5      0.99     -3.40
   15   17    5     -1.31     -2.54
   11   18    5     -0.73      1.77
   12   18    5      2.95     -0.40
   13   18    5      0.20      0.70
   14   18    5      0.05      0.52
    9   19    5     -0.12     -1.95
   10   19    5     -2.39     -0.34
   11   19    5     -2.81      0.31
   12   19    5      0.42     -0.48
   13   19    5      0.37      1.21
    6   20    5     -2.00     -4.27
    7   20    5     -2.35     -1.76
    8   20    5     -2.88     -0.78
    9   20    5      1.54      0.81
   10   20    5      1.27      0.01
   11   20    5     -0.60     -0.99
    0   21    5      0.03      1.65
    1   21    5      1.33      0.18
    2   21    5     -1.28     -1.93
    3   21    5     -0.76      0.70
    4   21    5     -0.40      1.06
    5   21    5     -0.34     -0.37
    6   21    5     -0.22     -0.21
    7   21    5     -0.13      1.17
    8   21    5     -0.95      0.63
    9   21    5      1.27      1.24
    1    1    6      0.02      8.47
    1    3    6      4.57    -25.16
    0    7    6     -6.58      0.47
   15   15    6      0.05     -4.25
   13   16    6     -1.54      0.08
   14   16    6     -0.61      2.40
   15   16    6     -0.53      1.12
   16   16    6      0.05     -1.22
   12   17    6      1.49      0.68
   13   17    6     -0.24      1.87
   14   17    6     -1.12      2.43
   15   17    6     -1.10      0.67
   10   18    6     -0.85     -3.19
   11   18    6     -4.50     -0.36
   12   18    6     -0.24      1.12
   13   18    6      2.52      0.20
   14   18    6     -0.50      0.04
    8   19    6     -1.47      0.02
    9   19    6      0.22     -0.04
   10   19    6      1.88     -0.64
   11   19    6      0.31     -1.28
   12   19    6      2.20     -1.92
   13   19    6      3.72     -1.03
    5   20    6      0.47     -1.49
    6   20    6      0.46     -4.62
    7   20    6      1.05     -2.60
    8   20    6     -0.24      1.22
    9   20    6     -1.38      1.22
   10   20    6      1.38      1.54
   11   20    6      1.90      1.21
    0   21    6     -2.52     -0.14
    1   21    6      0.12      1.42
    2   21    6      3.81      0.58
    3   21    6      1.34      0.29
    4   21    6     -1.85      1.17
    5   21    6     -1.09      0.33
    6   21    6      1.90      1.00
    7   21    6      3.26      2.53
    8   21    6      2.14      1.58
    9   21    6     -0.85     -1.43
    0    1    7     -0.36      2.97
   14   15    7     -0.82      2.73
   15   15    7      0.97      1.23
   13   16    7     -3.00     -3.86
   14   16    7     -2.61     -0.12
   15   16    7      3.15      1.19
   16   16    7      2.16      1.90
   12   17    7     -2.33     -0.75
   13   17    7     -1.80      0.58
   14   17    7      0.72      1.11
   15   17    7      3.23      0.97
   10   18    7      1.34      1.41
   11   18    7      1.92     -0.43
   12   18    7     -0.60      2.60
   13   18    7      0.48      3.92
   14   18    7      0.53      1.88
    8   19    7     -2.74     -1.03
    9   19    7     -3.24     -0.96
   10   19    7      0.15     -0.06
   11   19    7      0.38     -0.66
   12   19    7     -0.46     -0.29
    4   20    7     -0.53     -3.20
    5   20    7     -0.16      0.66
    6   20    7     -0.02     -0.25
    7   20    7     -4.62     -2.53
    8   20    7     -3.43     -0.09
    9   20    7      0.42      1.85
   10   20    7      0.57      1.24
   11   20    7     -0.41      1.67
    0   21    7      0.29      0.42
    1   21    7      0.55      0.08
    2   21    7     -0.96     -1.09
    3   21    7     -0.49     -2.39
    4   21    7     -0.84     -1.08
    5   21    7     -0.74     -0.12
    6   21    7      0.14     -0.37
    7   21    7     -1.11     -0.65
    8   21    7     -1.15      0.73
    9   21    7      0.47      0.96
    1    1    8     17.35      0.61
    0    7    8     -3.71      0.08
   14   15    8      2.58      0.84
   15   15    8      2.17     -0.28
   13   16    8      2.74      2.38
   14   16    8      2.95      3.19
   15   16    8      1.65      1.47
   16   16    8      0.54     -0.02
   11   17    8      2.11      0.49
   12   17    8      0.07     -1.46
   13   17    8     -1.36      1.19
   14   17    8      1.30      1.07
   15   17    8      2.09     -0.45
   10   18    8     -0.08      2.87
   11   18    8      0.43      4.12
   12   18    8     -0.79     -0.43
   13   18    8     -1.15     -1.57
   14   18    8      0.72     -1.05
    7   19    8     -0.11     -4.71
    8   19    8     -0.73     -3.88
    9   19    8     -0.64     -0.54
   10   19    8      0.21      0.62
   11   19    8      0.65      0.18
   12   19    8     -0.27     -1.17
    3   20    8     -4.19     -4.17
    4   20    8     -0.17     -3.21
    5   20    8      1.48      1.13
    6   20    8      0.99      1.55
    7   20    8      1.08     -1.03
    8   20    8     -3.39     -0.62
    9   20    8     -2.21      2.11
   10   20    8      0.61      1.54
    0   21    8     -2.38     -0.23
    1   21    8      1.26     -1.49
    2   21    8      1.80     -0.63
    3   21    8      0.86     -0.09
    4   21    8      0.32      1.46
    5   21    8      0.47      2.75
    6   21    8     -0.81      2.05
    7   21    8      0.87      1.16
    8   21    8     -1.12     -0.29
   14   15    9     -0.32     -1.29
   15   15    9      0.85     -0.41
   13   16    9     -1.21     -1.95
   14   16    9     -2.59     -2.02
   15   16    9     -1.24      0.29
   16   16    9     -0.38      0.23
   11   17    9     -2.55      0.02
   12   17    9     -0.99     -1.07
   13   17    9     -1.57     -2.46
   14   17    9     -2.60      0.07
    9   18    9      0.94      1.05
   10   18    9      0.64     -0.45
   11   18    9     -2.06      2.83
   12   18    9     -2.54      3.37
   13   18    9     -1.07     -0.14
    7   19    9     -4.26     -0.77
    8   19    9     -2.97     -3.60
    9   19    9     -1.75     -1.70
   10   19    9     -0.48      0.92
   11   19    9      0.13      0.25
   12   19    9     -1.32     -0.43
    1   20    9      0.22      1.10
    2   20    9      0.93      1.38
    3   20    9      0.98      2.47
    4   20    9      0.43      0.47
    5   20    9      1.46     -1.08
    6   20    9     -1.88     -0.02
    7   20    9     -0.48     -1.47
    8   20    9      1.59     -2.22
    9   20    9     -1.84     -0.77
   10   20    9     -1.53      1.22
    0   21    9      0.43      0.22
    1   21    9      0.50     -0.61
    2   21    9      2.45      0.45
    3   21    9      1.43     -0.04
    4   21    9     -0.83     -1.35
    5   21    9     -0.53     -0.78
    6   21    9     -0.77      0.24
    7   21    9      0.31      0.76
    8   21    9      1.80      1.78
   14   14   10     -0.20      3.93
   13   15   10     -3.28      4.22
   14   15   10     -2.16      2.78
   15   15   10     -0.12     -3.03
   12   16   10      0.40      2.50
   13   16   10      0.24      4.23
   14   16   10     -2.34      0.40
   15   16   10     -1.41     -2.20
   11   17   10     -0.07     -3.59
   12   17   10     -1.68      1.55
   13   17   10      0.10     -0.44
   14   17   10      0.04     -1.47
    9   18   10     -0.49      1.00
   10   18   10      1.84      0.49
   11   18   10      0.42     -0.36
   12   18   10      0.69      1.02
   13   18   10      1.28     -1.24
    6   19   10     -0.22     -2.07
    7   19   10     -1.10      0.32
    8   19   10      1.23      0.06
    9   19   10      1.24     -1.48
   10   19   10      0.49      0.32
   11   19   10      0.56      1.43
    0   20   10      4.59     -0.09
    1   20   10      0.40     -3.46
    2   20   10     -5.02     -4.52
    3   20   10     -1.52     -0.04
    4   20   10      0.79      1.59
    5   20   10     -1.02      0.88
    6   20   10     -1.42      0.92
    7   20   10     -3.97      0.22
    8   20   10     -1.45     -1.74
    9   20   10     -0.11     -1.25
   10   20   10     -0.44      0.90
    0   21   10      1.95      0.02
    1   21   10      0.32     -1.22
    2   21   10     -0.97     -1.00
    3   21   10      1.49      1.78
    4   21   10      1.99      2.18
    5   21   10     -0.90      0.32
    6   21   10     -0.98     -0.04
    7   21   10     -1.42     -1.02
   14   14   11      3.38      3.26
   13   15   11     -1.70     -2.55
   14   15   11      0.46      0.35
   15   15   11      0.63      0.71
   12   16   11     -1.34     -4.18
   13   16   11     -1.99     -3.03
   14   16   11     -1.27     -1.28
   15   16   11     -0.12      0.78
   10   17   11     -0.61     -0.38
   11   17   11      2.75     -3.18
   12   17   11     -0.41     -2.79
   13   17   11     -1.84      0.63
   14   17   11     -1.25     -1.07
    8   18   11     -0.45      4.08
    9   18   11     -3.84      2.45
   10   18   11     -2.25     -1.71
   11   18   11      1.08     -1.44
   12   18   11      0.78      0.05
   13   18   11      0.15      0.81
    5   19   11     -2.28      2.28
    6   19   11     -1.70      0.44
    7   19   11     -1.06     -1.66
    8   19   11      1.05     -0.23
    9   19   11      1.30      1.20
   10   19   11      0.83      0.25
   11   19   11      0.42      1.13
    0   20   11      0.00     -3.62
    1   20   11      1.96     -1.23
    2   20   11      0.09      0.52
    3   20   11     -2.33      1.01
    4   20   11     -0.66      1.27
    5   20   11     -0.85     -0.22
    6   20   11      0.62     -0.97
    7   20   11      2.12     -0.26
    8   20   11      1.63     -0.90
    9   20   11      1.29     -1.25
    0   21   11      0.07     -0.97
    1   21   11      1.29     -0.42
    2   21   11      1.52      0.34
    3   21   11      0.47     -0.01
    4   21   11      1.50     -0.31
    5   21   11      0.52     -2.14
    6   21   11     -0.13     -2.21
    7   21   11     -0.74      0.56
   14   14   12     -4.74      0.39
   13   15   12      1.00      0.51
   14   15   12     -2.04      1.35
   15   15   12      0.56      0.25
   11   16   12     -3.24      1.01
   12   16   12      0.90     -2.95
   13   16   12      2.23      0.84
   14   16   12      0.94      2.53
   15   16   12      1.32      1.14
   10   17   12     -4.38     -1.03
   11   17   12     -1.53     -0.32
   12   17   12      1.49     -2.52
   13   17   12      2.42     -0.73
    7   18   12      1.86     -1.63
    8   18   12      2.74     -1.37
    9   18   12      1.01     -0.29
   10   18   12     -2.56     -2.10
   11   18   12      1.81     -2.09
   12   18   12      2.64     -0.41
    4   19   12      1.33     -1.06
    5   19   12      3.31     -3.46
    6   19   12      2.00     -1.91
    7   19   12      0.58      0.71
    8   19   12      1.73     -0.68
    9   19   12      1.47     -0.45
   10   19   12     -0.28     -0.09
   11   19   12      0.84      1.12
    0   20   12     -1.43      0.21
    1   20   12     -0.83      0.28
    2   20   12      0.08      1.54
    3   20   12     -0.93      2.60
    4   20   12      0.24      2.05
    5   20   12      1.20      0.21
    6   20   12     -0.22     -0.66
    7   20   12     -1.52      0.50
    8   20   12     -0.07     -0.38
    9   20   12      0.23     -0.90
    0   21   12     -1.02      0.09
    1   21   12     -0.69     -0.36
    2   21   12      1.54     -1.72
    3   21   12      1.27     -1.24
    4   21   12      0.05     -0.23
    5   21   12     -1.22      1.29
    6   21   12     -0.55      0.70
   13   14   13      5.33     -0.64
   14   14   13     -0.31      0.11
   12   15   13      2.74     -6.51
   13   15   13      3.31     -1.81
   14   15   13     -1.06      4.52
   15   15   13     -2.71      2.64
   11   16   13     -2.19      1.00
   12   16   13      0.46     -1.94
   13   16   13      0.12     -0.21
   14   16   13     -0.07      3.00
    9   17   13      0.38     -3.41
   10   17   13      1.21     -0.15
   11   17   13     -0.64      2.36
   12   17   13      0.10      2.47
   13   17   13     -1.54      0.40
    6   18   13      0.32      3.21
    7   18   13     -0.04      2.43
    8   18   13     -1.53     -0.37
    9   18   13     -1.99     -1.61
   10   18   13     -2.50      0.11
   11   18   13     -0.51     -0.49
   12   18   13      2.24      0.57
    0   19   13      0.75     -5.32
    1   19   13     -1.82     -2.59
    2   19   13      0.26     -0.85
    3   19   13      1.60      0.12
    4   19   13      1.28     -2.63
    5   19   13      0.08     -1.45
    6   19   13      0.06     -0.87
    7   19   13     -0.37      0.90
    8   19   13     -1.18      1.97
    9   19   13      0.12      2.53
   10   19   13     -0.27      1.29
    0   20   13      0.53      1.89
    1   20   13      1.81      3.28
    2   20   13      2.70      1.27
    3   20   13      2.03      0.68
    4   20   13      1.43     -0.64
    5   20   13     -0.02     -0.05
    6   20   13      0.52     -1.52
    7   20   13      0.68     -0.44
    8   20   13     -0.17      0.39
    0   21   13      0.21      2.46
    1   21   13      1.74      2.93
    2   21   13      0.70     -0.11
    3   21   13     -0.13      0.29
    4   21   13      0.31      1.60
    5   21   13      0.26      1.67
   13   14   14     -3.14      2.33
   14   14   14     -0.15      1.70
   11   15   14      2.87     -0.33
   12   15   14      3.19      4.05
   13   15   14      0.20      1.07
   14   15   14      0.08      0.46
   15   15   14      0.29      1.75
   10   16   14      2.32      0.40
   11   16   14      0.19      3.27
   12   16   14      0.70      3.73
   13   16   14      0.50     -0.02
   14   16   14     -0.22     -0.36
    8   17   14      1.91      1.33
    9   17   14     -0.72      1.50
   10   17   14      0.64     -1.27
   11   17   14     -0.86     -0.27
   12   17   14      0.63     -0.58
    5   18   14     -0.62     -1.08
    6   18   14      0.12     -0.23
    7   18   14      1.03      0.74
    8   18   14      1.25      0.92
    9   18   14      0.56     -0.29
   10   18   14      1.33     -1.17
   11   18   14      0.40     -1.33
    0   19   14      2.45     -0.31
    1   19   14     -0.45      2.19
    2   19   14     -3.04      2.38
    3   19   14     -0.40      1.20
    4   19   14      1.41      0.32
    5   19   14      1.92     -0.16
    6   19   14     -0.08      2.28
    7   19   14     -0.24      1.32
    8   19   14     -1.73      0.18
    9   19   14     -0.56     -0.78
    0   20   14      5.02     -0.31
    1   20   14      2.57     -0.29
    2   20   14     -0.48      1.62
    3   20   14     -1.75      0.89
    4   20   14     -1.87      0.03
    5   20   14     -1.52     -0.06
    6   20   14     -3.55      0.53
    7   20   14     -0.66     -0.22
    0   21   14      0.83      0.01
    1   21   14      0.32      0.86
    2   21   14     -0.94      2.06
    3   21   14     -2.15     -0.42
    4   21   14     -2.02     -0.62
   13   13   15     -1.80     -1.38
   12   14   15      1.82      0.06
   13   14   15      0.34      2.33
   14   14   15     -1.89     -1.26
   11   15   15     -2.38     -1.92
   12   15   15     -1.53      0.98
   13   15   15     -0.34      1.24
   14   15   15     -1.79     -3.10
    9   16   15      0.26     -0.07
   10   16   15      0.32     -0.55
   11   16   15      2.49     -1.32
   12   16   15     -1.13      0.91
   13   16   15     -0.85      0.33
    7   17   15     -1.06      3.59
    8   17   15     -0.82      2.48
    9   17   15      0.52      1.87
   10   17   15      0.85     -0.71
   11   17   15      0.72     -1.85
   12   17   15     -1.42     -0.34
    3   18   15      2.15      0.37
    4   18   15      3.45      0.54
    5   18   15     -0.59      0.54
    6   18   15     -0.90      0.16
    7   18   15     -0.78     -0.40
    8   18   15     -1.29     -0.88
    9   18   15     -1.36     -0.04
   10   18   15     -0.92      0.23
    0   19   15      0.13      1.41
    1   19   15      3.73     -0.50
    2   19   15      1.71     -1.27
    3   19   15      0.83     -2.99
    4   19   15      1.43      0.03
    5   19   15      2.18     -0.72
    6   19   15      2.74      0.81
    7   19   15      1.12      1.07
    8   19   15     -1.99      1.78
    9   19   15     -2.47      0.27
    0   20   15      0.26      4.10
    1   20   15      1.20      0.63
    2   20   15     -0.70     -0.29
    3   20   15     -0.95     -1.16
    4   20   15     -1.03      0.29
    5   20   15      1.61      0.30
    6   20   15      1.66      1.45
    0   21   15      0.15      0.41
    1   21   15     -2.03     -0.94
   13   13   16      1.22      0.06
   12   14   16     -3.81     -2.95
   13   14   16     -1.74     -1.61
   14   14   16      2.03      0.00
   10   15   16     -4.01      3.40
   11   15   16     -2.49      1.69
   12   15   16     -0.52     -2.85
   13   15   16      0.42     -1.29
   14   15   16      2.00     -0.12
    8   16   16     -4.07      5.39
    9   16   16     -1.02      1.61
   10   16   16     -0.21      2.08
   11   16   16      1.30     -1.11
   12   16   16      1.87     -1.16
   13   16   16     -0.20      0.41
    6   17   16      3.06     -1.86
    7   17   16     -0.09      1.44
    8   17   16     -3.31      4.92
    9   17   16     -0.40      0.71
   10   17   16      1.77     -2.09
   11   17   16      0.83     -4.67
    0   18   16      2.73      0.09
    1   18   16      1.79     -3.86
    2   18   16      0.67      1.04
    3   18   16     -2.86      3.47
    4   18   16     -1.01      1.63
    5   18   16     -1.02     -0.30
    6   18   16     -2.50     -1.71
    7   18   16     -2.73     -0.04
    8   18   16      0.61      0.79
    9   18   16      3.78     -0.24
   10   18   16      3.34      0.01
    0   19   16      0.19      0.31
    1   19   16      1.07     -2.06
    2   19   16      1.25      0.64
    3   19   16      0.07      1.33
    4   19   16      2.85      0.16
    5   19   16      1.62     -0.26
    6   19   16     -1.86     -0.66
    7   19   16     -2.56     -0.62
    8   19   16     -0.32     -1.18
    0   20   16     -0.63      0.12
    1   20   16      0.43     -1.42
    2   20   16      1.33     -0.84
    3   20   16      1.60     -0.06
    4   20   16      2.13     -1.31
    5   20   16      0.96     -1.61
   12   13   17     -0.61      2.83
   13   13   17      0.70     -0.28
   11   14   17     -0.91     -1.50
   12   14   17      4.15     -3.03
   13   14   17      0.00      0.19
   14   14   17     -2.98      3.37
    9   15   17      3.89      0.25
   10   15   17     -1.41     -2.81
   11   15   17     -5.42     -0.13
   12   15   17      0.39     -0.94
   13   15   17      0.01      0.02
    7   16   17     -2.52     -1.07
    8   16   17     -1.02     -0.54
    9   16   17      2.18     -1.30
   10   16   17      4.33     -3.42
   11   16   17      0.11     -0.09
   12   16   17     -0.41     -1.05
    4   17   17      4.65     -1.21
    5   17   17      1.78      0.95
    6   17   17     -1.07      0.64
    7   17   17     -0.73     -1.42
    8   17   17     -1.40      0.79
    9   17   17     -0.26      1.46
   10   17   17      2.06     -0.37
   11   17   17      0.15     -0.65
    0   18   17     -0.21     -2.81
    1   18   17     -2.71     -2.54
    2   18   17     -0.11      0.73
    3   18   17      2.39      2.25
    4   18   17      2.38     -1.25
    5   18   17      1.69     -1.60
    6   18   17     -0.50     -2.82
    7   18   17     -0.48     -3.17
    8   18   17     -0.52     -1.84
    9   18   17     -0.81     -0.11
    0   19   17     -0.03     -4.64
    1   19   17      1.29     -4.09
    2   19   17      2.58     -1.63
    3   19   17      0.61      0.74
    4   19   17     -1.17     -0.86
    5   19   17      0.97     -0.52
    6   19   17     -0.05     -0.42
    7   19   17     -1.06      0.62
    0   20   17      0.25      0.73
    1   20   17      0.89      0.64
    2   20   17      0.77     -0.16
    3   20   17     -0.59      0.59
   12   12   18     -0.16     -3.79
   11   13   18      1.67      2.28
   12   13   18      5.04     -2.13
   13   13   18      0.04     -2.59
   10   14   18     -0.47     -2.33
   11   14   18     -4.06     -3.58
   12   14   18     -0.97     -2.83
   13   14   18      3.11     -0.30
   14   14   18      0.24      3.68
    8   15   18      1.75     -1.21
    9   15   18      1.72      1.68
   10   15   18     -0.31     -0.42
   11   15   18     -3.14     -0.73
   12   15   18     -1.46      1.37
   13   15   18      3.66      1.04
    6   16   18     -2.28      1.73
    7   16   18      1.25      1.28
    8   16   18      2.02     -0.40
    9   16   18     -0.14      1.58
   10   16   18     -3.08     -0.79
   11   16   18     -0.87      0.50
    0   17   18     -1.51      0.30
    1   17   18     -3.21      2.39
    2   17   18     -1.52      1.06
    3   17   18      0.99     -0.32
    4   17   18      0.85     -2.82
    5   17   18      1.26     -2.59
    6   17   18     -2.50      0.29
    7   17   18     -0.59      1.67
    8   17   18     -0.08      0.64
    9   17   18     -2.02     -0.01
   10   17   18     -3.41     -2.30
    0   18   18      4.09      0.12
    1   18   18      0.50      0.86
    2   18   18     -1.87     -0.82
    3   18   18      0.47      1.16
    4   18   18     -0.97     -0.09
    5   18   18     -2.86     -1.54
    6   18   18     -4.43     -0.70
    7   18   18     -1.52      0.49
    8   18   18      1.33      0.66
    0   19   18     -0.16     -0.06
    1   19   18     -0.95      1.01
    2   19   18     -0.89      0.35
    3   19   18      2.08      2.45
    4   19   18      0.68      2.73
    5   19   18     -1.26      1.54
   12   12   19      0.38      0.57
   10   13   19      0.45      0.47
   11   13   19     -1.44     -0.29
   12   13   19      0.53      1.39
   13   13   19      0.64      0.65
    9   14   19     -0.01     -1.83
   10   14   19      1.05      2.14
   11   14   19      1.81     -0.66
   12   14   19     -0.67      0.44
   13   14   19     -0.89     -1.49
    7   15   19      1.93     -0.69
    8   15   19      2.32      0.31
    9   15   19      1.95     -0.54
   10   15   19      1.79      1.45
   11   15   19      0.94     -1.21
   12   15   19     -2.15      1.12
    4   16   19     -1.00      2.11
    5   16   19      2.73     -0.46
    6   16   19      3.05      1.11
    7   16   19      1.09      1.50
    8   16   19     -1.20      0.85
    9   16   19     -0.21     -0.75
   10   16   19      1.17     -0.18
   11   16   19      1.58     -2.34
    0   17   19      0.14      1.76
    1   17   19     -0.33      1.06
    2   17   19     -2.62     -0.56
    3   17   19      0.62      0.03
    4   17   19     -1.75      0.55
    5   17   19      0.08     -0.31
    6   17   19      2.68      1.91
    7   17   19      1.71      3.00
    8   17   19     -0.57      0.95
    9   17   19     -0.79     -0.14
    0   18   19     -0.02      0.14
    1   18   19     -1.25      1.30
    2   18   19     -3.57      0.23
    3   18   19      0.20     -0.19
    4   18   19      0.80      0.66
    5   18   19      0.23     -0.05
    6   18   19      1.79      0.39
    7   18   19      1.13      0.46
    0   19   19     -0.06     -0.20
    1   19   19      0.59      0.91
    2   19   19     -0.22      0.75
    3   19   19      0.24      0.17
    4   19   19      1.25      0.44
   11   12   20      4.00     -4.61
   12   12   20      0.26     -0.10
    9   13   20     -0.85     -0.32
   10   13   20      1.82     -1.74
   11   13   20      0.02     -2.40
   12   13   20     -2.14     -1.87
   13   13   20     -0.40      0.42
    8   14   20      2.40     -0.77
    9   14   20      0.07     -2.59
   10   14   20     -3.20     -2.41
   11   14   20     -4.05     -1.76
   12   14   20     -0.99     -1.92
    5   15   20      3.12     -0.94
    6   15   20      2.89     -0.25
    7   15   20      0.33     -1.44
    8   15   20      1.69     -1.22
    9   15   20     -0.40     -1.57
   10   15   20     -1.84     -2.35
   11   15   20     -1.22     -1.53
    0   16   20     -2.82     -0.20
    1   16   20      0.68      3.61
    2   16   20      2.00      2.73
    3   16   20      3.02      2.39
    4   16   20      2.43      2.16
    5   16   20     -0.27      0.22
    6   16   20     -0.05      1.07
    7   16   20     -0.98      0.51
    8   16   20      0.35      0.28
    9   16   20     -0.59     -0.75
   10   16   20     -0.06     -1.67
    0   17   20     -4.17     -0.02
    1   17   20     -0.29     -1.42
    2   17   20     -0.30     -0.67
    3   17   20     -0.02     -0.74
    4   17   20      1.27     -0.82
    5   17   20     -0.97     -1.34
    6   17   20     -0.19     -0.71
    7   17   20     -0.12      1.21
    8   17   20     -0.07      1.48
    0   18   20      0.29      0.28
    1   18   20      2.36     -3.43
    2   18   20      0.03     -1.33
    3   18   20     -1.85      0.09
    4   18   20      0.24      0.02
    5   18   20     -0.48     -0.98
    6   18   20     -0.33     -1.21
   11   11   21     -0.33      0.29
   10   12   21     -1.90     -1.26
   11   12   21     -0.20      1.76
   12   12   21     -0.35      0.26
    8   13   21      3.12      1.22
    9   13   21     -0.71      0.35
   10   13   21     -2.77     -5.38
   11   13   21     -1.05      0.55
   12   13   21     -0.49      1.79
   13   13   21     -1.12      1.23
    6   14   21      1.93     -0.16
    7   14   21     -3.58     -1.88
    8   14   21     -3.11     -2.21
    9   14   21     -0.42      0.66
   10   14   21      1.07     -2.49
   11   14   21      1.75      0.97
   12   14   21      0.82      0.33
    3   15   21      0.89     -5.16
    4   15   21      2.57      1.59
    5   15   21      0.89      2.76
    6   15   21     -0.91     -2.19
    7   15   21     -3.61     -2.12
    8   15   21     -1.99     -3.12
    9   15   21      2.13      0.38
   10   15   21      2.45     -0.48
    0   16   21     -0.09      2.53
    1   16   21     -3.10      3.17
    2   16   21     -2.17      0.82
    3   16   21     -0.42     -1.68
    4   16   21      1.85     -0.67
    5   16   21      0.22     -0.85
    6   16   21     -0.37     -2.08
    7   16   21     -0.79     -1.17
    8   16   21     -0.66     -2.12
    9   16   21      0.14     -0.20
    0   17   21     -0.01     -1.82
    1   17   21      1.24     -1.19
    2   17   21      2.22      0.52
    3   17   21     -1.75      0.52
    4   17   21     -1.33     -0.71
    5   17   21     -0.88     -0.27
    6   17   21     -0.74      0.49
    7   17   21      0.25      1.08
    0   18   21      0.31      0.43
    1   18   21      0.65     -0.83
    2   18   21      2.30     -1.04
    3   18   21     -0.85      0.19
    4   18   21     -0.75      0.53
   10   11   22     -1.86      1.02
   11   11   22      0.10      1.83
    9   12   22      4.74      2.39
   10   12   22      2.98     -0.30
   11   12   22      2.33     -0.43
   12   12   22      0.00     -0.68
    7   13   22     -3.87      1.75
    8   13   22      0.79     -1.32
    9   13   22      4.35      1.02
   10   13   22     -0.13      1.15
   11   13   22     -1.88     -0.37
   12   13   22     -1.65      0.10
    4   14   22      0.21     -4.24
    5   14   22     -1.21     -6.75
    6   14   22     -2.33     -4.69
    7   14   22     -2.91     -0.10
    8   14   22     -2.49     -1.00
    9   14   22     -0.09     -0.19
   10   14   22     -0.67      1.04
   11   14   22     -0.21     -0.24
    0   15   22     -2.30      0.17
    1   15   22     -2.89      0.43
    2   15   22     -0.83     -0.54
    3   15   22      1.67     -2.25
    4   15   22      1.71     -0.05
    5   15   22      1.22      1.71
    6   15   22      3.40     -0.79
    7   15   22      3.51      0.79
    8   15   22      0.31      1.58
    9   15   22     -0.76      0.14
    0   16   22      1.19     -0.02
    1   16   22      0.15      0.10
    2   16   22     -0.32     -2.13
    3   16   22     -0.62     -3.51
    4   16   22     -0.65      1.39
    5   16   22     -1.45      4.34
    6   16   22     -0.03      1.17
    7   16   22      2.11      0.11
    8   16   22      1.01      0.58
    0   17   22     -1.73     -0.19
    1   17   22     -1.49     -1.03
    2   17   22      1.20     -2.56
    3   17   22      0.61     -2.11
    4   17   22     -1.29     -0.31
    5   17   22     -1.50     -0.35
   10   10   23      2.00      1.99
    9   11   23     -0.22      1.44
   10   11   23     -0.23      3.39
   11   11   23      0.52      0.60
    7   12   23      1.79      1.43
    8   12   23     -1.64     -0.32
    9   12   23     -1.61     -1.33
   10   12   23     -0.74      0.37
   11   12   23      0.88     -1.19
   12   12   23      0.36      0.46
    5   13   23     -2.15     -2.60
    6   13   23     -0.51     -0.74
    7   13   23      1.01      1.02
    8   13   23      0.86     -1.22
    9   13   23      0.85     -3.54
   10   13   23     -0.50     -0.33
   11   13   23     -0.83      0.28
    0   14   23     -0.22     -2.58
    1   14   23      2.18     -0.40
    2   14   23     -0.36      3.45
    3   14   23     -0.07      2.80
    4   14   23     -1.18     -0.92
    5   14   23     -2.63     -2.42
    6   14   23     -2.75     -0.67
    7   14   23     -0.26      1.79
    8   14   23      1.01      1.27
    9   14   23      1.84     -0.38
   10   14   23      1.49      1.63
    0   15   23     -0.40      3.23
    1   15   23      0.00      1.24
    2   15   23     -1.78     -0.13
    3   15   23     -0.30     -1.73
    4   15   23      1.38     -1.72
    5   15   23     -0.73      0.37
    6   15   23     -2.11      0.82
    7   15   23     -0.11      0.63
    8   15   23      1.46      1.49
    0   16   23     -0.34     -1.19
    1   16   23     -1.82     -0.33
    2   16   23     -2.03      1.97
    3   16   23     -0.60      0.26
    4   16   23      2.90     -1.08
    5   16   23      3.57      0.17
    6   16   23      0.76      0.13
    0   17   23     -0.23     -4.50
    1   17   23     -1.56     -2.37
    2   17   23     -1.03      1.27
    3   17   23     -0.62      1.16
    9   10   24      3.63     -2.23
   10   10   24      0.29     -0.35
    7   11   24     -0.68      3.24
    8   11   24     -0.39     -1.09
    9   11   24     -1.73     -2.97
   10   11   24     -2.12      0.39
   11   11   24     -1.06      0.04
    5   12   24     -3.98     -2.20
    6   12   24     -2.02      2.14
    7   12   24      1.32      0.27
    8   12   24      2.28     -1.01
    9   12   24      1.11     -0.99
   10   12   24      1.34      0.63
   11   12   24      0.29      0.59
    0   13   24     -2.05      0.00
    1   13   24     -1.31     -2.90
    2   13   24     -1.41     -0.32
    3   13   24     -0.57      0.38
    4   13   24     -0.33     -0.81
    5   13   24     -0.41      0.41
    6   13   24      1.47      1.04
    7   13   24      1.21      0.01
    8   13   24      1.20      0.98
    9   13   24      1.58      1.24
   10   13   24      0.95      0.60
    0   14   24     -2.51      0.01
    1   14   24     -0.10     -0.74
    2   14   24     -0.34     -0.04
    3   14   24     -1.69      1.27
    4   14   24     -1.83     -0.04
    5   14   24     -0.08      0.52
    6   14   24      0.56      0.70
    7   14   24      0.05      1.12
    8   14   24     -0.63      0.95
    0   15   24     -1.20      0.18
    1   15   24      0.92      2.42
    2   15   24      1.06      1.32
    3   15   24     -0.11      0.27
    4   15   24     -0.97     -0.78
    5   15   24     -0.30      1.42
    6   15   24     -0.37      1.14
    7   15   24      0.24      0.03
    0   16   24      1.81      0.07
    1   16   24      1.75     -0.41
    2   16   24      0.80     -1.13
    3   16   24     -0.25     -1.05
    4   16   24     -1.41     -1.53
    8    9   25     -1.19      1.79
    9    9   25     -2.36      2.97
    7   10   25      0.64     -5.02
    8   10   25      0.49     -0.54
    9   10   25      2.59      0.52
   10   10   25      1.58     -1.96
    5   11   25     -3.55      0.95
    6   11   25     -4.47     -4.24
    7   11   25      2.80     -1.87
    8   11   25      2.71     -1.42
    9   11   25      1.95     -0.57
   10   11   25     -1.20      0.68
   11   11   25     -2.41      2.38
    0   12   25     -0.47     -3.35
    1   12   25     -2.70     -0.91
    2   12   25     -0.25      3.98
    3   12   25      3.04     -0.56
    4   12   25      1.43     -5.36
    5   12   25     -1.93     -2.89
    6   12   25     -1.14      2.83
    7   12   25      3.64      2.92
    8   12   25      1.18     -1.19
    9   12   25     -1.11     -1.37
   10   12   25     -1.00     -0.16
    0   13   25      0.28     -3.42
    1   13   25      3.35     -3.25
    2   13   25      3.77      0.05
    3   13   25      0.84     -0.47
    4   13   25      0.31     -3.14
    5   13   25      1.43     -2.62
    6   13   25      2.04      2.64
    7   13   25      1.28      2.91
    8   13   25     -0.65      1.00
    9   13   25     -1.15     -0.40
    0   14   25      0.39     -0.23
    1   14   25      1.21     -0.94
    2   14   25     -0.07     -0.86
    3   14   25     -3.08      1.42
    4   14   25     -0.35      2.12
    5   14   25      2.80     -1.34
    6   14   25      2.06     -1.35
    7   14   25     -0.12     -0.51
    0   15   25      0.11      1.09
    1   15   25     -1.07      0.16
    2   15   25     -1.62     -1.68
    3   15   25     -1.96     -0.02
    4   15   25      0.68      1.84
    5   15   25      1.66      1.24
    8    8   26      0.12     -1.76
    7    9   26     -0.29     -0.45
    8    9   26      0.80     -2.06
    9    9   26      0.03     -0.50
    5   10   26      1.10     -0.54
    6   10   26      2.45     -0.95
    7   10   26      1.11     -0.20
    8   10   26      1.33      1.51
    9   10   26     -0.20      2.73
   10   10   26      0.00      1.24
    0   11   26     -3.82     -0.29
    1   11   26     -2.14     -1.41
    2   11   26     -2.73      0.14
    3   11   26      1.30     -0.02
    4   11   26      2.25     -2.48
    5   11   26      3.74     -0.48
    6   11   26     -1.42     -0.92
    7   11   26     -0.29      0.70
    8   11   26      2.26      2.40
    9   11   26      0.29      1.64
   10   11   26      0.97     -0.07
    0   12   26      0.93     -0.34
    1   12   26      1.71      0.28
    2   12   26     -0.77      2.17
    3   12   26      0.15      4.02
    4   12   26      1.47      0.64
    5   12   26      0.53     -1.98
    6   12   26     -2.90     -3.17
    7   12   26      0.12     -1.16
    8   12   26      2.40     -0.24
    9   12   26      0.04      0.05
    0   13   26      0.38     -0.13
    1   13   26      0.48     -0.71
    2   13   26      0.64     -0.69
    3   13   26      0.75      1.10
    4   13   26      1.04      0.79
    5   13   26      1.39     -1.65
    6   13   26      0.78     -3.29
    7   13   26     -0.51     -1.74
    0   14   26     -0.45     -0.21
    1   14   26     -0.73     -1.56
    2   14   26      0.78     -1.66
    3   14   26      0.36     -0.62
    4   14   26      0.54      1.63
    5   14   26      1.41      1.50
    0   15   26     -0.19      0.16
    1   15   26     -0.73      1.18
    2   15   26      0.61      0.73
    7    7   27     -2.55     -2.64
    6    8   27      1.63      1.86
    7    8   27     -3.32     -1.59
    8    8   27     -2.31     -2.09
    4    9   27      1.60     -4.54
    5    9   27     -3.17     -1.21
    6    9   27      2.20      1.58
    7    9   27      1.31      0.73
    8    9   27     -0.81     -0.12
    9    9   27     -1.00     -1.16
    0   10   27     -0.42     -3.95
    1   10   27      2.66     -2.53
    2   10   27      1.18      0.44
    3   10   27      2.70     -0.83
    4   10   27     -1.22     -1.64
    5   10   27     -6.45      0.12
    6   10   27      1.56      0.38
    7   10   27      1.97     -0.56
    8   10   27      0.63     -0.39
    9   10   27     -0.71      1.00
   10   10   27      1.16      1.14
    0   11   27     -0.19      0.51
    1   11   27      2.08     -0.13
    2   11   27      2.55     -1.36
    3   11   27      0.13     -0.58
    4   11   27     -2.30      1.06
    5   11   27     -3.63      0.76
    6   11   27     -1.21      0.36
    7   11   27     -2.41      0.12
    8   11   27      1.49      0.77
    9   11   27      0.38      1.58
    0   12   27     -0.04      1.38
    1   12   27      0.32      0.22
    2   12   27      2.33     -2.48
    3   12   27      0.74     -0.21
    4   12   27      1.21      1.75
    5   12   27      1.12      1.19
    6   12   27     -0.65     -0.05
    7   12   27     -2.49     -0.38
    0   13   27      0.36      1.10
    1   13   27      1.64      0.14
    2   13   27      1.84     -2.87
    3   13   27      0.12     -0.95
    4   13   27     -0.03      0.78
    5   13   27     -0.11      1.29
    0   14   27      0.28      1.09
    1   14   27     -0.33      0.99
    2   14   27     -1.03     -0.40
    6    6   28      7.29     -0.02
    5    7   28      1.52     -0.11
    6    7   28      5.13     -0.96
    7    7   28      4.00     -0.14
    2    8   28      1.31      0.59
    3    8   28      0.88      2.16
    4    8   28      3.24      1.39
    5    8   28     -1.11     -0.62
    6    8   28     -2.56      0.87
    7    8   28     -1.10      0.52
    8    8   28     -2.39      0.04
    0    9   28     -2.79      0.08
    1    9   28     -2.03      1.62
    2    9   28     -0.81      0.74
    3    9   28      0.35      1.33
    4    9   28      5.49     -2.33
    5    9   28     -0.70     -1.42
    6    9   28     -3.47      0.90
    7    9   28      0.13     -1.03
    8    9   28      0.18     -2.33
    9    9   28     -0.20      0.00
    0   10   28      0.07      0.27
    1   10   28      1.31      0.67
    2   10   28      1.03      0.48
    3   10   28     -1.25     -1.90
    4   10   28      2.47     -3.48
    5   10   28     -0.11      1.56
    6   10   28      0.19      1.71
    7   10   28      2.00     -0.67
    8   10   28      0.32     -1.35
    0   11   28      1.28      0.05
    1   11   28      0.43     -1.06
    2   11   28     -0.15      0.22
    3   11   28     -1.66     -0.31
    4   11   28     -0.16      0.08
    5   11   28      0.34      1.83
    6   11   28      2.49      0.02
    7   11   28      1.30     -0.05
    0   12   28      4.00     -0.50
    1   12   28      0.83     -1.22
    2   12   28     -0.60      1.18
    3   12   28     -0.34      3.20
    4   12   28     -0.80      2.88
    5   12   28     -0.38     -0.17
    0   13   28      1.32     -0.17
    1   13   28     -0.15     -1.33
    2   13   28     -0.68     -0.94
    4    5   29      5.13      1.92
    5    5   29      0.66     -0.73
    2    6   29     -0.59     -2.86
    3    6   29     -1.41     -0.24
    4    6   29     -0.10      1.21
    5    6   29      2.96      2.35
    6    6   29      2.37     -2.37
    0    7   29     -0.16      3.59
    1    7   29     -1.83      1.05
    2    7   29      1.38     -0.87
    3    7   29      0.93     -0.02
    4    7   29     -2.90      0.62
    5    7   29      0.01      1.23
    6    7   29     -1.44     -1.26
    7    7   29     -1.64      1.67
    0    8   29     -0.16      3.08
    1    8   29     -2.15      2.95
    2    8   29      0.20     -0.75
    3    8   29      0.49     -2.31
    4    8   29     -0.35      0.04
    5    8   29      2.39      0.39
    6    8   29     -1.06      0.66
    7    8   29     -0.68      2.45
    8    8   29     -0.70      0.64
    0    9   29      0.17      1.21
    1    9   29     -1.62      1.42
    2    9   29     -0.17     -1.06
    3    9   29     -1.05     -1.72
    4    9   29     -1.13     -0.57
    5    9   29      1.53     -1.78
    6    9   29     -0.24     -0.31
    7    9   29      0.20      0.91
    8    9   29      0.56      0.28
    0   10   29      0.11      1.65
    1   10   29     -2.67      0.00
    2   10   29      0.27     -1.18
    3   10   29     -0.12      0.70
    4   10   29     -1.13     -0.48
    5   10   29      1.14     -1.67
    6   10   29      1.70     -0.32
    7   10   29      1.28     -0.87
    0   11   29      0.03      3.26
    1   11   29     -0.60      0.56
    2   11   29      0.13     -0.59
    3   11   29     -1.30      1.23
    4   11   29     -1.98     -0.09
    5   11   29     -0.48     -0.06
    0   12   29     -0.03      1.11
    1   12   29      1.52      0.18
    2   12   29      0.76      0.26
    2    3   30     -1.69      0.28
    3    3   30      0.11      0.72
    0    4   30      3.52      0.10
    1    4   30      2.63     -2.46
    2    4   30     -1.75     -1.11
    3    4   30     -4.97      0.71
    4    4   30      0.06      3.07
    0    5   30     -3.35     -0.15
    1    5   30     -0.58      1.12
    2    5   30      0.91     -0.31
    3    5   30     -2.35     -1.09
    4    5   30     -1.63      0.54
    5    5   30     -0.26      3.67
    0    6   30     -2.42     -0.47
    1    6   30      0.03      3.73
    2    6   30      2.87      0.50
    3    6   30      2.59     -2.06
    4    6   30      0.08     -2.49
    5    6   30     -0.63      1.85
    6    6   30     -0.32      0.91
    0    7   30     -1.75     -0.53
    1    7   30     -1.10      1.46
    2    7   30      1.16     -1.04
    3    7   30      4.76     -1.72
    4    7   30      1.17     -0.77
    5    7   30     -0.83      0.10
    6    7   30     -0.33     -1.42
    7    7   30     -0.43      0.21
    0    8   30      1.78     -0.07
    1    8   30      1.50      0.52
    2    8   30      0.42     -0.01
    3    8   30      1.29     -1.09
    4    8   30     -1.34      0.00
    5    8   30     -1.46      0.36
    6    8   30     -1.30     -0.26
    7    8   30     -1.79      1.16
    0    9   30      0.86      0.28
    1    9   30      0.51     -1.84
    2    9   30     -0.81     -0.89
    3    9   30     -0.84     -0.03
    4    9   30     -0.57      0.40
    5    9   30      0.20     -0.80
    6    9   30     -0.48     -1.19
    0   10   30     -0.14      0.18
    1   10   30     -0.91     -1.23
    2   10   30     -0.86     -2.41
    3   10   30      0.51     -1.17
    4   10   30      1.25      0.57
    0   11   30     -1.22      0.35
    1   11   30     -1.42      0.56
    0    1   31      0.02     -2.02
    1    1   31      0.75      0.65
    0    2   31     -0.21     -2.95
    1    2   31      2.36     -0.01
    2    2   31      3.13      2.95
    0    3   31     -0.44     -0.36
    1    3   31      0.98     -0.17
    2    3   31      1.84      1.41
    3    3   31      1.32      0.97
    0    4   31     -0.27     -5.40
    1    4   31     -1.15     -4.85
    2    4   31     -2.16     -0.11
    3    4   31     -1.96      3.35
    4    4   31      2.01      1.58
    0    5   31     -0.10     -2.25
    1    5   31     -1.78     -2.10
    2    5   31     -2.56      0.35
    3    5   31     -2.04      1.54
    4    5   31     -0.58      0.43
    5    5   31     -1.98     -1.89
    0    6   31      0.10     -0.14
    1    6   31      1.14     -1.11
    2    6   31      1.06     -1.36
    3    6   31     -0.71     -2.27
    4    6   31     -2.87     -1.72
    5    6   31     -2.91     -1.07
    6    6   31      1.86      1.51
    0    7   31      0.26      1.39
    1    7   31      0.49      0.45
    2    7   31      1.14     -0.35
    3    7   31      1.44     -2.46
    4    7   31     -0.36     -0.86
    5    7   31     -3.37      1.75
    6    7   31     -0.68      3.10
    0    8   31      0.09      1.13
    1    8   31     -0.64      1.08
    2    8   31     -0.37      1.09
    3    8   31      0.60     -0.18
    4    8   31      1.14      0.43
    5    8   31     -0.57      1.08
    0    9   31      0.17     -1.33
    1    9   31      0.35     -0.67
    2    9   31      0.64      0.25
    3    9   31      0.13      1.54
    0    0    0      0.00      0.00
# SQUEEZE RESULTS (Version =  91117)
# Note: Data are Listed for all Voids in the P1 Unit Cell
# i.e. Centre of Gravity, Solvent Accessible Volume,
# Recovered number of Electrons in the Void and
# Details about the Squeezed Material
loop_
  _platon_squeeze_void_nr
  _platon_squeeze_void_average_x
  _platon_squeeze_void_average_y
  _platon_squeeze_void_average_z
  _platon_squeeze_void_volume
  _platon_squeeze_void_count_electrons
  _platon_squeeze_void_content
   1  0.000  0.000 -0.007      3484       731 ' '
# Missing Reflections Below sin(th)/lambda = 0.25
loop_
  _platon_missing_refln_index_h
  _platon_missing_refln_index_k
  _platon_missing_refln_index_l
  _platon_missing_refln_theta
    0    1    0     1.134
    1    1    0     1.604
    0    2    0     2.268
    1    2    0     2.536
    0    3    0     3.403
    2    3    0     4.091
    0    1    1     1.378
    1    1    1     1.784
    0    2    1     2.399
    1    2    1     2.654
    2    3    1     4.166
    0    1    2     1.933
    1    1    2     2.241
    0    2    2     2.756
    1    2    2     2.981
    2    2    2     3.571
    3    3    2     5.065
    4    4    2     6.617
    0    1    3     2.607
    2    2    3     3.977
    0    3    3     4.136
    1    4    3     5.238
    0    2    4     3.868
    0    4    4     5.519
    1    4    4     5.635
    1    1    5     4.231
    0    2    5     4.526
    2    2    5     5.065
    0    4    5     6.000
    0    5    5     6.904
    1    1    6     4.967
    1    3    6     5.917
    0    7    6     9.261
    0    1    7     5.602
    1    1    8     6.475
    0    7    8    10.161
_platon_squeeze_void_probe_radius                  1.20
_platon_squeeze_details
)
TITL p20210117e1_a.res in P4(3)22
CELL   17.9580   17.9580   26.0252     90.00     90.00     90.00
SPGR P4322
# Solvent Accessible Volume =      3498
# Electrons Found in S.A.V. =       709
# Note: Atoms in Void are Labelled as Cxxx and Qxxx for all Others
C101 0.994 0.638 0.975 !       2.49 eA-3
C102 0.168 0.748 0.175 !       1.93 eA-3
C103 0.641 0.138 0.305 !       1.93 eA-3
C104 0.866 0.699 0.852 !       1.71 eA-3
C105 0.843 0.795 0.759 !       1.63 eA-3
C106 0.183 0.169 0.941 !       1.51 eA-3
Q107 0.119 0.814 0.429 !       1.50 eA-3
C108 0.179 0.192 0.928 !       1.47 eA-3
Q109 0.891 0.823 0.608 !       1.45 eA-3
C110 0.132 0.777 0.204 !       1.43 eA-3
C111 0.127 0.831 0.177 !       1.40 eA-3
C112 0.146 0.813 0.533 !       1.40 eA-3
C113 0.799 0.850 0.258 !       1.40 eA-3
Q114 0.484 0.924 0.666 !       1.40 eA-3
C115 0.146 0.767 0.018 !       1.39 eA-3
Q116 0.771 0.122 0.830 !       1.38 eA-3
Q117 0.182 0.187 0.622 !       1.35 eA-3
C118 0.215 0.312 0.588 !       1.35 eA-3
C119 0.839 0.810 0.508 !       1.33 eA-3
C120 0.997 0.841 0.405 !       1.33 eA-3
C121 0.837 0.810 0.244 !       1.31 eA-3
C122 0.323 0.186 0.698 !       1.31 eA-3
C123 0.821 0.141 0.025 !       1.27 eA-3
C124 0.180 0.184 0.290 !       1.26 eA-3
C125 0.713 0.799 0.133 !       1.24 eA-3
C126 0.177 0.265 0.592 !       1.24 eA-3
C127 0.858 0.401 0.476 !       1.23 eA-3
C128 0.755 0.111 0.166 !       1.22 eA-3
C129 0.846 0.801 0.367 !       1.15 eA-3
C130 0.299 0.235 0.650 !       1.14 eA-3
Q131 0.938 0.998 0.900 !       1.14 eA-3
Q132 0.047 0.318 0.057 !       1.14 eA-3
Q133 0.724 0.842 0.797 !       1.13 eA-3
Q134 0.920 0.223 0.603 !       1.13 eA-3
C135 0.779 0.982 0.843 !       1.13 eA-3
Q136 0.924 0.200 0.289 !       1.12 eA-3
C137 0.823 0.279 0.433 !       1.11 eA-3
C138 0.187 0.202 0.525 !       1.11 eA-3
Q139 0.908 0.260 0.940 !       1.10 eA-3
C140 0.813 0.703 0.132 !       1.10 eA-3
C141 0.928 0.675 0.069 !       1.10 eA-3
C142 0.247 0.876 0.618 !       1.09 eA-3
Q143 0.954 0.033 0.911 !       1.08 eA-3
C144 0.250 0.343 0.577 !       1.06 eA-3
C145 0.144 0.203 0.948 !       1.05 eA-3
Q146 0.204 0.924 0.591 !       1.04 eA-3
C147 0.305 0.926 0.655 !       1.03 eA-3
C148 0.339 0.077 0.645 !       1.03 eA-3
Q149 0.058 0.124 0.507 !       1.03 eA-3
C150 0.802 0.767 0.084 !       1.02 eA-3
Q151 0.452 0.954 0.762 !       1.01 eA-3
C152 0.303 0.768 0.815 !       1.01 eA-3
Q153 0.925 0.093 0.712 !       1.00 eA-3
Q154 0.038 1.000 0.046 !       0.99 eA-3
C155 0.857 0.720 0.052 !       0.99 eA-3
C156 0.030 0.848 0.371 !       0.99 eA-3
Q157 0.793 0.122 0.167 !       0.99 eA-3
C158 0.902 0.955 0.607 !       0.99 eA-3
Q159 0.830 0.849 0.352 !       0.98 eA-3
Q160 0.846 0.441 0.603 !       0.98 eA-3
Q161 0.401 0.887 0.619 !       0.98 eA-3
C162 0.836 0.876 0.460 !       0.97 eA-3
C163 0.909 0.249 0.696 !       0.97 eA-3
Q164 0.706 0.721 0.057 !       0.96 eA-3
Q165 0.066 1.000 0.897 !       0.96 eA-3
Q166 0.329 0.755 0.416 !       0.96 eA-3
Q167 0.220 0.205 0.009 !       0.96 eA-3
C168 0.976 0.798 0.735 !       0.96 eA-3
C169 0.273 0.844 0.876 !       0.96 eA-3
C170 0.987 0.155 0.069 !       0.96 eA-3
Q171 0.878 0.546 0.866 !       0.95 eA-3
Q172 0.276 0.890 0.861 !       0.95 eA-3
C173 0.183 0.188 0.360 !       0.95 eA-3
Q174 0.313 0.905 0.557 !       0.94 eA-3
C175 0.338 0.874 0.626 !       0.94 eA-3
Q176 0.430 0.201 0.697 !       0.93 eA-3
C177 0.812 0.093 0.764 !       0.92 eA-3
C178 0.608 0.106 0.335 !       0.92 eA-3
Q179 0.031 0.869 0.553 !       0.91 eA-3
Q180 0.187 0.076 0.764 !       0.91 eA-3
C181 1.000 0.686-0.007 !       0.91 eA-3
Q182 0.033 0.734 0.069 !       0.90 eA-3
Q183 0.201 0.246 0.264 !       0.89 eA-3
Q184 0.214 0.909 0.688 !       0.88 eA-3
Q185 0.921 0.981 0.640 !       0.88 eA-3
C186 0.199 0.048 0.250 !       0.88 eA-3
Q187 0.181 0.767 0.837 !       0.87 eA-3
C188 0.055 0.204 0.115 !       0.85 eA-3
Q189 0.176 0.059 0.912 !       0.84 eA-3
C190 0.079 0.356 0.414 !       0.84 eA-3
C191 0.063 0.177 0.983 !       0.84 eA-3
Q192 0.220 0.317 0.505 !       0.84 eA-3
C193 0.801 0.045 0.750 !       0.84 eA-3
Q194 0.257 0.783 0.228 !       0.84 eA-3
Q195 0.194 0.188 0.655 !       0.84 eA-3
Q196 0.782 0.174 0.450 !       0.84 eA-3
Q197 0.092 0.281 0.273 !       0.84 eA-3
C198 0.209 0.769 0.000 !       0.84 eA-3
C199 0.168 0.782 0.524 !       0.83 eA-3
)
;
_shelx_fab_checksum              2444
_olex2_submission_special_instructions 'No special instructions were received'
loop_
_space_group_symop_operation_xyz
'x, y, z'
'-y, x, z+3/4'
'-x, -y, z+1/2'
'y, -x, z+1/4'
'x, -y, -z+1/2'
'-x, y, -z'
'y, x, -z+1/4'
'-y, -x, -z+3/4'
loop_
_atom_site_label
_atom_site_type_symbol
_atom_site_fract_x
_atom_site_fract_y
_atom_site_fract_z
_atom_site_U_iso_or_equiv
_atom_site_adp_type
_atom_site_occupancy
_atom_site_site_symmetry_order
_atom_site_calc_flag
_atom_site_refinement_flags_posn
_atom_site_refinement_flags_adp
_atom_site_refinement_flags_occupancy
_atom_site_disorder_assembly
_atom_site_disorder_group
Zn1 Zn 0.500000 0.24710(7) 1.000000 0.0152(3) Uani 1 2 d S T P . .
Zn02 Zn 0.66818(5) 0.24875(5) 0.92240(3) 0.0183(2) Uani 1 1 d . . . . .
O003 O 0.4222(3) 0.6668(3) 0.4966(2) 0.0237(12) Uani 1 1 d . . . . .
Cl00 Cl 0.7525(3) 0.2475(3) 0.875000 0.0479(15) Uani 0.5 2 d S T P . .
O005 O 0.5914(3) 0.2887(3) 0.8767(2) 0.0258(13) Uani 1 1 d . . . . .
O006 O -0.1688(3) 0.4147(3) 0.74437(19) 0.0243(12) Uani 1 1 d . . . . .
O007 O 0.4967(3) 0.2393(3) 0.92040(18) 0.0260(12) Uani 1 1 d . . . . .
O008 O 0.3026(3) 0.6950(3) 0.4843(2) 0.0254(13) Uani 1 1 d . . . . .
O009 O -0.1412(3) 0.3439(3) 0.8125(2) 0.0275(14) Uani 1 1 d . . . . .
C00A C 0.5230(5) 0.2745(4) 0.8839(3) 0.0226(18) Uani 1 1 d . . . . .
C00B C 0.3545(4) 0.6620(4) 0.5076(3) 0.0194(17) Uani 1 1 d . . . . .
N00C N 0.2369(4) 0.3765(5) 0.7520(3) 0.044(2) Uani 1 1 d . . . . .
N00D N 0.3308(4) 0.4359(5) 0.7022(3) 0.0371(19) Uani 1 1 d . . . . .
C00E C -0.1242(5) 0.3821(4) 0.7725(3) 0.0232(18) Uani 1 1 d . . . . .
C00F C 0.4690(5) 0.3026(4) 0.8445(3) 0.0232(18) Uani 1 1 d . . . . .
C00G C -0.0424(4) 0.3866(5) 0.7597(3) 0.0262(19) Uani 1 1 d . . . . .
C00H C 0.3332(4) 0.6120(4) 0.5516(3) 0.0216(17) Uani 1 1 d . . . . .
C00I C 0.3954(5) 0.2773(5) 0.8462(3) 0.028(2) Uani 1 1 d . . . . .
H00I H 0.380375 0.242390 0.870449 0.034 Uiso 1 1 d R U . . .
C00J C 0.4914(4) 0.3542(5) 0.8071(3) 0.031(2) Uani 1 1 d . U . . .
H00J H 0.540373 0.371106 0.806609 0.037 Uiso 1 1 d R U . . .
N00K N 0.2021(4) 0.4554(5) 0.6829(3) 0.045(2) Uani 1 1 d . . . . .
C00L C 0.3880(4) 0.5721(4) 0.5769(3) 0.0229(18) Uani 1 1 d . . . . .
H00L H 0.437186 0.576633 0.566142 0.027 Uiso 1 1 d R U . . .
C00M C 0.3705(5) 0.5255(5) 0.6174(3) 0.029(2) Uani 1 1 d . . . . .
H00M H 0.407952 0.500499 0.634970 0.035 Uiso 1 1 d R U . . .
C00N C 0.3648(4) 0.3590(5) 0.7750(3) 0.031(2) Uani 1 1 d . . . . .
C00O C 0.3449(5) 0.3060(5) 0.8119(3) 0.033(2) Uani 1 1 d . . . . .
H00O H 0.296020 0.289000 0.812918 0.040 Uiso 1 1 d R U . . .
C00P C 0.2771(5) 0.4669(6) 0.6745(4) 0.043(3) Uani 1 1 d . . . . .
C00Q C 0.0113(5) 0.3598(6) 0.7937(4) 0.043(3) Uani 1 1 d . . . . .
H00Q H -0.002865 0.338235 0.824726 0.051 Uiso 1 1 d R U . . .
C00R C 0.2963(5) 0.5154(6) 0.6315(4) 0.039(2) Uani 1 1 d . . . . .
C00S C -0.0216(5) 0.4203(6) 0.7145(4) 0.043(3) Uani 1 1 d . . . . .
H00S H -0.058213 0.441101 0.693700 0.051 Uiso 1 1 d R U . . .
C00T C 0.3084(5) 0.3909(6) 0.7405(4) 0.042(3) Uani 1 1 d . . . . .
C00U C 0.1877(5) 0.4112(6) 0.7230(4) 0.044(3) Uani 1 1 d . . . . .
C00V C 0.4390(5) 0.3822(6) 0.7724(4) 0.039(2) Uani 1 1 d . . . . .
H00V H 0.453590 0.415963 0.747224 0.047 Uiso 1 1 d R U . . .
C00W C 0.0867(5) 0.3666(6) 0.7804(4) 0.048(3) Uani 1 1 d . . . . .
H00W H 0.122884 0.348149 0.802573 0.058 Uiso 1 1 d R U . . .
C00X C 0.2587(5) 0.6059(5) 0.5661(3) 0.038(2) Uani 1 1 d . . . . .
H00X H 0.221901 0.633167 0.549404 0.046 Uiso 1 1 d R U . . .
C00Y C 0.1070(5) 0.4015(6) 0.7361(4) 0.045(3) Uani 1 1 d . . . . .
C00Z C 0.0521(5) 0.4282(6) 0.7022(4) 0.047(3) Uani 1 1 d . . . . .
H00Z H 0.065467 0.448438 0.670633 0.057 Uiso 1 1 d R U . . .
C010 C 0.2403(5) 0.5555(6) 0.6058(3) 0.042(3) Uani 1 1 d . . . . .
H010 H 0.190973 0.550764 0.616088 0.050 Uiso 1 1 d R U . . .
N1 N -0.0539(9) 0.4067(14) 0.9329(7) 0.082(6) Uani 0.5 1 d D U P . .
C2 C -0.1240(15) 0.388(2) 0.9436(12) 0.111(10) Uani 0.5 1 d D U P . .
H2A H -0.148971 0.383032 0.911130 0.167 Uiso 0.5 1 d R U P . .
H2B H -0.128491 0.342702 0.962640 0.167 Uiso 0.5 1 d R U P . .
H2C H -0.146251 0.428162 0.962640 0.167 Uiso 0.5 1 d R U P . .
C7 C 0.0151(16) 0.433(2) 0.9282(13) 0.122(11) Uani 0.5 1 d D U P . .
H7A H 0.030111 0.433503 0.892812 0.183 Uiso 0.5 1 d R U P . .
H7B H 0.031331 0.477313 0.944892 0.183 Uiso 0.5 1 d R U P . .
H7C H 0.037181 0.390213 0.944892 0.183 Uiso 0.5 1 d R U P . .
N2 N 0.0058(3) 0.0645(4) 0.65518(16) 0.053(4) Uani 0.5 1 d D U P . .
C13 C -0.0077(7) 0.1013(5) 0.60671(19) 0.074(4) Uani 0.5 1 d D U P . .
H13A H -0.034844 0.066006 0.584913 0.111 Uiso 0.5 1 d R U P . .
H13B H 0.039816 0.114006 0.590423 0.111 Uiso 0.5 1 d R U P . .
H13C H -0.037494 0.146556 0.611173 0.111 Uiso 0.5 1 d R U P . .
C60 C 0.0678(3) 0.0875(7) 0.6869(3) 0.079(4) Uani 0.5 1 d D U P . .
H60A H 0.114969 0.072532 0.671006 0.118 Uiso 0.5 1 d R U P . .
H60B H 0.077129 0.105812 0.721726 0.118 Uiso 0.5 1 d R U P . .
H60C H 0.044769 0.127002 0.666326 0.118 Uiso 0.5 1 d R U P . .
loop_
_atom_site_aniso_label
_atom_site_aniso_U_11
_atom_site_aniso_U_22
_atom_site_aniso_U_33
_atom_site_aniso_U_23
_atom_site_aniso_U_13
_atom_site_aniso_U_12
Zn1 0.0172(6) 0.0147(6) 0.0138(5) 0.000 0.0007(5) 0.000
Zn02 0.0200(5) 0.0183(4) 0.0166(4) 0.0012(4) 0.0007(3) -0.0012(4)
O003 0.019(3) 0.019(3) 0.033(3) 0.005(3) 0.004(3) -0.009(2)
Cl00 0.048(2) 0.048(2) 0.047(4) 0.007(2) 0.007(2) -0.008(4)
O005 0.020(3) 0.035(3) 0.023(3) 0.006(3) 0.000(2) 0.001(2)
O006 0.022(3) 0.029(3) 0.021(3) 0.004(3) 0.002(3) 0.004(3)
O007 0.029(3) 0.032(3) 0.016(3) -0.001(3) -0.004(2) -0.013(2)
O008 0.031(3) 0.025(3) 0.020(3) 0.002(2) 0.006(2) -0.005(3)
O009 0.016(3) 0.038(4) 0.029(3) 0.012(3) 0.002(2) 0.002(2)
C00A 0.028(5) 0.026(4) 0.014(4) -0.002(3) 0.000(3) -0.001(3)
C00B 0.023(4) 0.018(4) 0.017(4) -0.001(3) 0.000(3) 0.000(3)
N00C 0.017(4) 0.074(6) 0.041(4) 0.036(4) -0.001(4) 0.004(4)
N00D 0.016(4) 0.062(5) 0.033(4) 0.026(4) 0.004(3) 0.006(4)
C00E 0.025(4) 0.021(4) 0.024(4) 0.001(4) 0.004(4) -0.002(3)
C00F 0.028(4) 0.024(4) 0.018(4) 0.008(3) 0.005(3) 0.007(3)
C00G 0.017(4) 0.028(5) 0.033(5) 0.014(4) 0.003(4) 0.005(3)
C00H 0.016(4) 0.030(4) 0.019(4) 0.005(3) 0.000(3) -0.001(3)
C00I 0.032(5) 0.030(5) 0.022(4) 0.009(4) 0.003(4) -0.002(4)
C00J 0.008(4) 0.045(5) 0.041(5) 0.014(4) 0.007(4) 0.001(4)
N00K 0.017(4) 0.066(6) 0.053(5) 0.038(5) 0.003(4) -0.001(4)
C00L 0.020(4) 0.028(4) 0.020(4) -0.005(4) 0.002(3) -0.003(3)
C00M 0.018(4) 0.036(5) 0.033(5) 0.014(4) 0.002(4) 0.001(4)
C00N 0.011(4) 0.054(6) 0.030(5) 0.019(4) 0.006(4) 0.005(4)
C00O 0.018(4) 0.044(5) 0.039(5) 0.015(4) 0.007(4) -0.001(4)
C00P 0.017(4) 0.070(7) 0.041(5) 0.025(5) 0.007(4) 0.006(4)
C00Q 0.028(5) 0.068(7) 0.032(5) 0.033(5) -0.001(4) -0.001(5)
C00R 0.031(5) 0.056(7) 0.031(5) 0.020(5) 0.002(4) 0.004(4)
C00S 0.022(5) 0.068(7) 0.038(5) 0.029(5) -0.003(4) 0.008(5)
C00T 0.026(5) 0.063(7) 0.037(5) 0.031(5) 0.002(4) 0.007(4)
C00U 0.017(5) 0.064(7) 0.051(6) 0.029(6) 0.003(4) -0.001(5)
C00V 0.024(5) 0.062(7) 0.031(5) 0.032(5) 0.004(4) 0.006(4)
C00W 0.014(4) 0.081(8) 0.049(6) 0.042(6) -0.004(4) -0.003(5)
C00X 0.025(5) 0.055(6) 0.035(5) 0.025(4) -0.003(4) -0.006(4)
C00Y 0.019(5) 0.069(7) 0.046(6) 0.033(5) 0.003(4) 0.006(5)
C00Z 0.030(5) 0.069(8) 0.043(6) 0.024(6) 0.008(5) 0.009(5)
C010 0.013(5) 0.072(7) 0.041(5) 0.035(5) 0.001(4) 0.000(4)
N1 0.091(9) 0.114(13) 0.041(9) 0.005(9) -0.018(8) -0.022(9)
C2 0.095(10) 0.17(2) 0.067(15) 0.005(16) -0.016(11) -0.037(12)
C7 0.106(10) 0.18(2) 0.078(17) -0.012(18) -0.006(12) -0.052(13)
N2 0.053(4) 0.052(4) 0.055(4) -0.0019(13) 0.0029(13) 0.0013(14)
C13 0.075(5) 0.075(5) 0.071(4) 0.006(3) -0.002(2) 0.002(3)
C60 0.075(5) 0.082(5) 0.079(5) -0.004(3) -0.009(3) -0.004(3)
loop_
_atom_type_symbol
_atom_type_description
_atom_type_scat_dispersion_real
_atom_type_scat_dispersion_imag
_atom_type_scat_source
C C 0.0033 0.0016 'International Tables Vol C Tables 4.2.6.8 and 6.1.1.4'
H H 0.0000 0.0000 'International Tables Vol C Tables 4.2.6.8 and 6.1.1.4'
Cl Cl 0.1484 0.1585 'International Tables Vol C Tables 4.2.6.8 and 6.1.1.4'
N N 0.0061 0.0033 'International Tables Vol C Tables 4.2.6.8 and 6.1.1.4'
O O 0.0106 0.0060 'International Tables Vol C Tables 4.2.6.8 and 6.1.1.4'
Zn Zn 0.2839 1.4301 'International Tables Vol C Tables 4.2.6.8 and 6.1.1.4'
loop_
_geom_angle_atom_site_label_1
_geom_angle_atom_site_label_2
_geom_angle_atom_site_label_3
_geom_angle
_geom_angle_site_symmetry_1
_geom_angle_site_symmetry_3
_geom_angle_publ_flag
O003 Zn1 O003 84.3(3) 3_665 5_566 ?
O006 Zn1 O003 171.6(2) 8_656 5_566 ?
O006 Zn1 O003 90.6(2) 4 5_566 ?
O006 Zn1 O003 171.6(2) 4 3_665 ?
O006 Zn1 O003 90.6(2) 8_656 3_665 ?
O006 Zn1 O006 95.2(3) 4 8_656 ?
O007 Zn1 O003 91.6(2) . 3_665 ?
O007 Zn1 O003 94.2(2) . 5_566 ?
O007 Zn1 O003 91.6(2) 6_657 5_566 ?
O007 Zn1 O003 94.2(2) 6_657 3_665 ?
O007 Zn1 O006 82.1(2) . 4 ?
O007 Zn1 O006 92.6(2) . 8_656 ?
O007 Zn1 O006 82.1(2) 6_657 8_656 ?
O007 Zn1 O006 92.6(2) 6_657 4 ?
O007 Zn1 O007 172.2(3) . 6_657 ?
Cl00 Zn02 O005 99.6(2) . . ?
Cl00 Zn02 O008 108.39(18) . 3_665 ?
Cl00 Zn02 O009 101.5(2) . 8_656 ?
O005 Zn02 O008 119.7(2) . 3_665 ?
O005 Zn02 O009 113.6(2) . 8_656 ?
O008 Zn02 O009 111.4(2) 3_665 8_656 ?
C00B O003 Zn1 133.7(5) . 3_664 ?
Zn02 Cl00 Zn02 112.4(4) 8_666 . ?
C00A O005 Zn02 121.2(5) . . ?
C00E O006 Zn1 138.2(5) . 2_554 ?
C00A O007 Zn1 136.2(5) . . ?
C00B O008 Zn02 115.8(5) . 3_664 ?
C00E O009 Zn02 116.8(5) . 8_566 ?
O005 C00A C00F 117.2(7) . . ?
O007 C00A O005 126.0(7) . . ?
O007 C00A C00F 116.8(7) . . ?
O003 C00B O008 125.3(7) . . ?
O003 C00B C00H 117.5(7) . . ?
O008 C00B C00H 117.2(7) . . ?
C00U N00C C00T 115.0(8) . . ?
C00P N00D C00T 115.9(7) . . ?
O006 C00E O009 125.5(7) . . ?
O006 C00E C00G 118.4(7) . . ?
O009 C00E C00G 116.1(7) . . ?
C00I C00F C00A 118.8(7) . . ?
C00I C00F C00J 120.5(7) . . ?
C00J C00F C00A 120.8(7) . . ?
C00Q C00G C00E 120.9(7) . . ?
C00S C00G C00E 118.5(7) . . ?
C00S C00G C00Q 120.5(8) . . ?
C00L C00H C00B 119.3(7) . . ?
C00L C00H C00X 120.8(7) . . ?
C00X C00H C00B 119.8(7) . . ?
C00F C00I H00I 120.9 . . ?
C00O C00I C00F 118.9(8) . . ?
C00O C00I H00I 120.2 . . ?
C00F C00J H00J 119.7 . . ?
C00V C00J C00F 119.5(8) . . ?
C00V C00J H00J 120.7 . . ?
C00U N00K C00P 113.7(8) . . ?
C00H C00L H00L 119.2 . . ?
C00M C00L C00H 121.0(8) . . ?
C00M C00L H00L 119.9 . . ?
C00L C00M H00M 120.3 . . ?
C00L C00M C00R 119.8(8) . . ?
C00R C00M H00M 120.0 . . ?
C00O C00N C00T 120.5(8) . . ?
C00V C00N C00O 118.7(8) . . ?
C00V C00N C00T 120.8(8) . . ?
C00I C00O C00N 122.2(8) . . ?
C00I C00O H00O 118.8 . . ?
C00N C00O H00O 119.0 . . ?
N00D C00P N00K 124.2(8) . . ?
N00D C00P C00R 119.7(8) . . ?
N00K C00P C00R 116.1(8) . . ?
C00G C00Q H00Q 120.4 . . ?
C00G C00Q C00W 118.7(8) . . ?
C00W C00Q H00Q 120.9 . . ?
C00M C00R C00P 120.3(8) . . ?
C00M C00R C010 119.5(8) . . ?
C010 C00R C00P 120.1(8) . . ?
C00G C00S H00S 118.8 . . ?
C00Z C00S C00G 120.6(8) . . ?
C00Z C00S H00S 120.4 . . ?
N00C C00T N00D 124.4(8) . . ?
N00C C00T C00N 116.7(7) . . ?
N00D C00T C00N 118.7(8) . . ?
N00C C00U N00K 126.7(8) . . ?
N00C C00U C00Y 117.5(8) . . ?
N00K C00U C00Y 115.8(8) . . ?
C00J C00V H00V 120.0 . . ?
C00N C00V C00J 120.2(8) . . ?
C00N C00V H00V 119.8 . . ?
C00Q C00W H00W 119.4 . . ?
C00Y C00W C00Q 120.6(8) . . ?
C00Y C00W H00W 120.1 . . ?
C00H C00X H00X 120.9 . . ?
C00H C00X C010 118.2(8) . . ?
C010 C00X H00X 120.9 . . ?
C00W C00Y C00U 120.4(8) . . ?
C00W C00Y C00Z 120.0(9) . . ?
C00Z C00Y C00U 119.6(8) . . ?
C00S C00Z C00Y 119.7(9) . . ?
C00S C00Z H00Z 119.7 . . ?
C00Y C00Z H00Z 120.5 . . ?
C00R C010 C00X 120.6(8) . . ?
C00R C010 H010 119.8 . . ?
C00X C010 H010 119.5 . . ?
C7 N1 C2 171(3) . . ?
N1 C2 H2A 106.4 . . ?
N1 C2 H2B 113.6 . . ?
N1 C2 H2C 108.4 . . ?
H2A C2 H2B 109.5 . . ?
H2A C2 H2C 109.4 . . ?
H2B C2 H2C 109.5 . . ?
N1 C7 H7A 110.9 . . ?
N1 C7 H7B 122.3 . . ?
N1 C7 H7C 93.8 . . ?
H7A C7 H7B 109.5 . . ?
H7A C7 H7C 109.5 . . ?
H7B C7 H7C 109.5 . . ?
C13 N2 C60 119.76(11) . . ?
C13 N2 H60C 83.9 . . ?
C60 N2 H60C 40.8 . . ?
N2 C13 H13A 107.0 . . ?
N2 C13 H13B 109.8 . . ?
N2 C13 H13C 111.6 . . ?
H13A C13 H13B 109.5 . . ?
H13A C13 H13C 109.5 . . ?
H13B C13 H13C 109.5 . . ?
N2 C60 H60A 110.3 . . ?
N2 C60 H60B 139.2 . . ?
N2 C60 H60C 64.6 . . ?
H60A C60 H60B 109.5 . . ?
H60A C60 H60C 109.5 . . ?
H60B C60 H60C 109.5 . . ?
loop_
_geom_bond_atom_site_label_1
_geom_bond_atom_site_label_2
_geom_bond_distance
_geom_bond_site_symmetry_2
_geom_bond_publ_flag
Zn1 O003 2.085(5) 5_566 ?
Zn1 O003 2.085(5) 3_665 ?
Zn1 O006 2.085(6) 4 ?
Zn1 O006 2.085(6) 8_656 ?
Zn1 O007 2.077(5) 6_657 ?
Zn1 O007 2.077(5) . ?
Zn02 Cl00 1.953(5) . ?
Zn02 O005 1.958(5) . ?
Zn02 O008 1.974(5) 3_665 ?
Zn02 O009 1.984(5) 8_656 ?
O003 C00B 1.252(9) . ?
O005 C00A 1.268(10) . ?
O006 C00E 1.233(9) . ?
O007 C00A 1.235(9) . ?
O008 C00B 1.259(9) . ?
O009 C00E 1.283(9) . ?
C00A C00F 1.498(11) . ?
C00B C00H 1.505(11) . ?
N00C C00T 1.343(11) . ?
N00C C00U 1.319(11) . ?
N00D C00P 1.324(11) . ?
N00D C00T 1.346(11) . ?
C00E C00G 1.508(11) . ?
C00F C00I 1.398(12) . ?
C00F C00J 1.404(11) . ?
C00G C00Q 1.395(12) . ?
C00G C00S 1.374(12) . ?
C00H C00L 1.384(11) . ?
C00H C00X 1.394(12) . ?
C00I H00I 0.9303 . ?
C00I C00O 1.372(12) . ?
C00J H00J 0.9302 . ?
C00J C00V 1.398(12) . ?
N00K C00P 1.380(11) . ?
N00K C00U 1.335(12) . ?
C00L H00L 0.9303 . ?
C00L C00M 1.382(11) . ?
C00M H00M 0.9300 . ?
C00M C00R 1.394(12) . ?
C00N C00O 1.398(12) . ?
C00N C00T 1.470(12) . ?
C00N C00V 1.397(12) . ?
C00O H00O 0.9299 . ?
C00P C00R 1.462(13) . ?
C00Q H00Q 0.9302 . ?
C00Q C00W 1.403(13) . ?
C00R C010 1.404(12) . ?
C00S H00S 0.9298 . ?
C00S C00Z 1.369(13) . ?
C00U C00Y 1.499(12) . ?
C00V H00V 0.9300 . ?
C00W H00W 0.9306 . ?
C00W C00Y 1.362(13) . ?
C00X H00X 0.9304 . ?
C00X C010 1.412(12) . ?
C00Y C00Z 1.407(13) . ?
C00Z H00Z 0.9299 . ?
C010 H010 0.9301 . ?
N1 C2 1.33(2) . ?
N1 C7 1.33(2) . ?
C2 H2A 0.9601 . ?
C2 H2B 0.9598 . ?
C2 H2C 0.9599 . ?
C7 H7A 0.9597 . ?
C7 H7B 0.9596 . ?
C7 H7C 0.9603 . ?
N2 C13 1.44501(14) . ?
N2 C60 1.44500(15) . ?
N2 H60C 1.3547 . ?
C13 H13A 0.9804 . ?
C13 H13B 0.9798 . ?
C13 H13C 0.9798 . ?
C60 H60A 0.9800 . ?
C60 H60B 0.9801 . ?
C60 H60C 0.9801 . ?
loop_
_geom_torsion_atom_site_label_1
_geom_torsion_atom_site_label_2
_geom_torsion_atom_site_label_3
_geom_torsion_atom_site_label_4
_geom_torsion
_geom_torsion_site_symmetry_1
_geom_torsion_site_symmetry_2
_geom_torsion_site_symmetry_3
_geom_torsion_site_symmetry_4
_geom_torsion_publ_flag
Zn1 O003 C00B O008 66.9(10) 3_664 . . . ?
Zn1 O003 C00B C00H -114.1(7) 3_664 . . . ?
Zn1 O006 C00E O009 61.7(12) 2_554 . . . ?
Zn1 O006 C00E C00G -118.3(8) 2_554 . . . ?
Zn1 O007 C00A O005 55.5(12) . . . . ?
Zn1 O007 C00A C00F -124.7(7) . . . . ?
Zn02 O005 C00A O007 4.5(11) . . . . ?
Zn02 O005 C00A C00F -175.4(5) . . . . ?
Zn02 O008 C00B O003 5.4(10) 3_664 . . . ?
Zn02 O008 C00B C00H -173.6(5) 3_664 . . . ?
Zn02 O009 C00E O006 3.8(11) 8_566 . . . ?
Zn02 O009 C00E C00G -176.3(6) 8_566 . . . ?
O003 C00B C00H C00L -1.9(11) . . . . ?
O003 C00B C00H C00X 178.6(8) . . . . ?
O005 C00A C00F C00I 169.0(8) . . . . ?
O005 C00A C00F C00J -11.8(12) . . . . ?
O006 C00E C00G C00Q 171.0(9) . . . . ?
O006 C00E C00G C00S -6.5(13) . . . . ?
O007 C00A C00F C00I -10.9(11) . . . . ?
O007 C00A C00F C00J 168.3(8) . . . . ?
O008 C00B C00H C00L 177.2(7) . . . . ?
O008 C00B C00H C00X -2.3(11) . . . . ?
O009 C00E C00G C00Q -8.9(13) . . . . ?
O009 C00E C00G C00S 173.5(8) . . . . ?
C00A C00F C00I C00O 176.7(8) . . . . ?
C00A C00F C00J C00V -177.0(8) . . . . ?
C00B C00H C00L C00M -179.9(7) . . . . ?
C00B C00H C00X C010 176.7(8) . . . . ?
N00C C00U C00Y C00W 8.7(18) . . . . ?
N00C C00U C00Y C00Z -170.8(11) . . . . ?
N00D C00P C00R C00M 4.1(16) . . . . ?
N00D C00P C00R C010 -172.4(10) . . . . ?
C00E C00G C00Q C00W -178.8(9) . . . . ?
C00E C00G C00S C00Z 177.5(10) . . . . ?
C00F C00I C00O C00N 0.7(14) . . . . ?
C00F C00J C00V C00N 0.1(15) . . . . ?
C00G C00Q C00W C00Y 2.8(17) . . . . ?
C00G C00S C00Z C00Y 0.0(18) . . . . ?
C00H C00L C00M C00R 3.3(13) . . . . ?
C00H C00X C010 C00R 3.0(15) . . . . ?
C00I C00F C00J C00V 2.2(14) . . . . ?
C00J C00F C00I C00O -2.6(13) . . . . ?
N00K C00P C00R C00M -174.8(10) . . . . ?
N00K C00P C00R C010 8.8(16) . . . . ?
N00K C00U C00Y C00W -170.5(11) . . . . ?
N00K C00U C00Y C00Z 10.0(17) . . . . ?
C00L C00H C00X C010 -2.7(13) . . . . ?
C00L C00M C00R C00P -179.4(9) . . . . ?
C00L C00M C00R C010 -2.9(15) . . . . ?
C00M C00R C010 C00X -0.2(16) . . . . ?
C00O C00N C00T N00C 11.1(15) . . . . ?
C00O C00N C00T N00D -173.3(9) . . . . ?
C00O C00N C00V C00J -1.9(15) . . . . ?
C00P N00D C00T N00C -0.4(16) . . . . ?
C00P N00D C00T C00N -175.6(10) . . . . ?
C00P N00K C00U N00C -3.4(18) . . . . ?
C00P N00K C00U C00Y 175.7(10) . . . . ?
C00P C00R C010 C00X 176.3(10) . . . . ?
C00Q C00G C00S C00Z 0.0(16) . . . . ?
C00Q C00W C00Y C00U 177.7(11) . . . . ?
C00Q C00W C00Y C00Z -2.8(19) . . . . ?
C00S C00G C00Q C00W -1.4(16) . . . . ?
C00T N00C C00U N00K 3.1(18) . . . . ?
C00T N00C C00U C00Y -176.0(11) . . . . ?
C00T N00D C00P N00K 0.0(16) . . . . ?
C00T N00D C00P C00R -178.8(10) . . . . ?
C00T C00N C00O C00I -177.2(9) . . . . ?
C00T C00N C00V C00J 176.8(10) . . . . ?
C00U N00C C00T N00D -1.0(17) . . . . ?
C00U N00C C00T C00N 174.3(10) . . . . ?
C00U N00K C00P N00D 1.7(17) . . . . ?
C00U N00K C00P C00R -179.5(10) . . . . ?
C00U C00Y C00Z C00S -179.1(11) . . . . ?
C00V C00N C00O C00I 1.6(15) . . . . ?
C00V C00N C00T N00C -167.6(10) . . . . ?
C00V C00N C00T N00D 8.0(16) . . . . ?
C00W C00Y C00Z C00S 1.4(19) . . . . ?
C00X C00H C00L C00M -0.4(12) . . . . ?
loop_
_smtbx_masks_void_nr
_smtbx_masks_void_average_x
_smtbx_masks_void_average_y
_smtbx_masks_void_average_z
_smtbx_masks_void_volume
_smtbx_masks_void_count_electrons
_smtbx_masks_void_content
1 0.000 0.000 -0.586 3642.8 0.0 ?
