#------------------------------------------------------------------------------
#$Date: 2016-03-25 23:10:29 +0200 (Fri, 25 Mar 2016) $
#$Revision: 180028 $
#$URL: svn://www.crystallography.net/cod/cif/7/03/22/7032229.cif $
#------------------------------------------------------------------------------
#
# This file is available in the Crystallography Open Database (COD),
# http://www.crystallography.net/
#
# All data on this site have been placed in the public domain by the
# contributors.
#
data_7032229
loop_
_publ_author_name
'Liu, Jian-Qiang'
'Wu, Jian'
'Jia, Zhen-Bin'
'Chen, Hong-Lang'
'Li, Qing-Lin'
'Sakiyama, Hiroshi'
'Soares, Thereza'
'Ren Fei,'
'Daiguebonne, Carole'
'Guillou, Olivier'
'Ng, Seik Weng'
_publ_section_title
;
 Two isoreticular metal-organic frameworks with CdSO4-like topology:
 selective gas sorption and drug delivery.
;
_journal_issue                   46
_journal_name_full
'Dalton transactions (Cambridge, England : 2003)'
_journal_page_first              17265
_journal_page_last               17273
_journal_paper_doi               10.1039/c4dt01890g
_journal_volume                  43
_journal_year                    2014
_chemical_formula_moiety         '[Cu (H2 O) (C10 H8 N2) (C15 H10 O4)], 4H2 O'
_chemical_formula_sum            'C25 H28 Cu N2 O9'
_chemical_formula_weight         564.03
_chemical_name_systematic
;
 ?
;
_space_group_crystal_system      monoclinic
_space_group_IT_number           15
_space_group_name_Hall           '-C 2yc'
_space_group_name_H-M_alt        'C 1 2/c 1'
_symmetry_space_group_name_Hall  '-C 2yc'
_symmetry_space_group_name_H-M   'C 1 2/c 1'
_atom_sites_solution_hydrogens   mixed
_audit_creation_method           SHELXL-2013
_cell_angle_alpha                90
_cell_angle_beta                 100.460(2)
_cell_angle_gamma                90
_cell_formula_units_Z            4
_cell_length_a                   13.7352(16)
_cell_length_b                   17.888(2)
_cell_length_c                   11.0251(14)
_cell_measurement_reflns_used    1602
_cell_measurement_temperature    298(2)
_cell_measurement_theta_max      24.7357
_cell_measurement_theta_min      2.4639
_cell_volume                     2663.8(5)
_computing_cell_refinement       'SAINT (Bruker, 2011)'
_computing_data_collection       'APEX2 (Bruker, 2011)'
_computing_data_reduction        SAINT
_computing_molecular_graphics    'X-Seed (Barbour, 2001)'
_computing_publication_material  'publCIF (Westrip, 2010)'
_computing_structure_refinement  'SHELXL-2013 (Sheldrick, 2008)'
_computing_structure_solution    'SHELXS-97 (Sheldrick, 2008)'
_diffrn_ambient_temperature      298(2)
_diffrn_measured_fraction_theta_full 0.998
_diffrn_measured_fraction_theta_max 0.991
_diffrn_measurement_device_type  'Bruker SMART APEX diffractometer'
_diffrn_measurement_method       '\w scans'
_diffrn_radiation_monochromator  graphite
_diffrn_radiation_source         'fine-focus sealed tube'
_diffrn_radiation_type           MoK\a
_diffrn_radiation_wavelength     0.71073
_diffrn_reflns_av_R_equivalents  0.0821
_diffrn_reflns_av_unetI/netI     0.0960
_diffrn_reflns_Laue_measured_fraction_full 0.998
_diffrn_reflns_Laue_measured_fraction_max 0.991
_diffrn_reflns_limit_h_max       13
_diffrn_reflns_limit_h_min       -17
_diffrn_reflns_limit_k_max       23
_diffrn_reflns_limit_k_min       -23
_diffrn_reflns_limit_l_max       12
_diffrn_reflns_limit_l_min       -14
_diffrn_reflns_number            7680
_diffrn_reflns_point_group_measured_fraction_full 0.998
_diffrn_reflns_point_group_measured_fraction_max 0.991
_diffrn_reflns_theta_full        25.242
_diffrn_reflns_theta_max         27.496
_diffrn_reflns_theta_min         1.889
_diffrn_standards_decay_%        0
_diffrn_standards_interval_count 0
_diffrn_standards_interval_time  0
_diffrn_standards_number         0
_exptl_absorpt_coefficient_mu    0.873
_exptl_absorpt_correction_T_max  1.000000
_exptl_absorpt_correction_T_min  0.5720004
_exptl_absorpt_correction_type   multi-scan
_exptl_absorpt_process_details   'SADABS (Sheldrick, 1996)'
_exptl_crystal_colour            blue
_exptl_crystal_density_diffrn    1.406
_exptl_crystal_description       prism
_exptl_crystal_F_000             1172
_exptl_crystal_size_max          0.240
_exptl_crystal_size_mid          0.180
_exptl_crystal_size_min          0.120
_refine_diff_density_max         0.421
_refine_diff_density_min         -0.445
_refine_diff_density_rms         0.078
_refine_ls_extinction_method     none
_refine_ls_goodness_of_fit_ref   0.912
_refine_ls_hydrogen_treatment    constr
_refine_ls_matrix_type           full
_refine_ls_number_parameters     147
_refine_ls_number_reflns         3041
_refine_ls_number_restraints     6
_refine_ls_restrained_S_all      0.912
_refine_ls_R_factor_all          0.1099
_refine_ls_R_factor_gt           0.0588
_refine_ls_shift/su_max          0.001
_refine_ls_shift/su_mean         0.001
_refine_ls_structure_factor_coef Fsqd
_refine_ls_weighting_details
;
 w=1/[\s^2^(Fo^2^)+(0.1065P)^2^]
 where P=(Fo^2^+2Fc^2^)/3
;
_refine_ls_weighting_scheme      calc
_refine_ls_wR_factor_gt          0.1698
_refine_ls_wR_factor_ref         0.1942
_reflns_number_gt                1460
_reflns_number_total             3041
_reflns_threshold_expression     'I > 2\s(I)'
_cod_data_source_file            c4dt01890g2.cif
_cod_data_source_block           2
_cod_depositor_comments
'Adding full bibliography for 7032228--7032229.cif.'
_cod_original_cell_volume        2663.7(6)
_cod_database_code               7032229
#BEGIN Tags that were not found in dictionaries:
_shelx_estimated_absorpt_t_min   0.818
_shelx_estimated_absorpt_t_max   0.902
_shelxl_version_number           2013-2
_shelx_res_file
;
TITL  C2/c
rem   16 water molecules in unit cell not found, included in formula
CELL  0.71073 13.7352 17.8876 11.0251 90.000 100.460 90.000
ZERR  4        0.0016  0.0021  0.0014  0.000   0.002  0.000
LATT  7
SYMM  X,-Y,1/2+Z
SFAC  C H N O Cu
UNIT  100 112 8 36 4
ACTA
SIZE  0.24 0.18 0.12
OMIT -3 55
L.S.  25 0 34
BOND  $H
CONF
FMAP  2
PLAN -1
ABIN
ISOR  0.01 O1w
WGHT    0.106500
FVAR       0.39036
PART  -1
CU1   5    0.498913    0.498825    0.470049    10.50000    0.02086    0.02537 =
         0.07415    0.00490    0.00172   -0.00540
PART   0
O1    4    0.612001    0.434277    0.550806    11.00000    0.02904    0.03761 =
         0.16082    0.01100    0.00721    0.00381
O2    4    0.668058    0.424844    0.372732    11.00000    0.10396    0.14372 =
         0.09814    0.01912   -0.02225    0.05435
PART  -1
O1W   4    0.508641    0.491930    0.264275    10.50000    0.02745    0.04901 =
         0.04969    0.00148   -0.02689   -0.01394
AFIX   3
H11   2    0.451791    0.496218    0.221322    10.50000   -1.50000
H12   2    0.532910    0.450497    0.249712    10.50000   -1.50000
AFIX   0
PART   0
C1    1    0.673479    0.412190    0.484153    11.00000    0.03787    0.04921 =
         0.10635    0.00365   -0.01128    0.00312
AFIX  66
C2    1    0.760751    0.367685    0.554244    11.00000    0.03272    0.05067 =
         0.08184   -0.00064   -0.00378    0.00301
C3    1    0.822604    0.329498    0.488772    11.00000    0.05916    0.11635 =
         0.07403   -0.01856   -0.00644    0.03032
AFIX  43
H3    2    0.812332    0.332902    0.403223    11.00000   -1.20000
AFIX  65
C4    1    0.899812    0.286223    0.551163    11.00000    0.06104    0.11039 =
         0.08851   -0.03639   -0.01630    0.04024
AFIX  43
H4    2    0.941196    0.260673    0.507358    11.00000   -1.20000
AFIX  65
C5    1    0.915166    0.281134    0.679027    11.00000    0.03325    0.04666 =
         0.11328   -0.00623   -0.00681   -0.00136
C6    1    0.853313    0.319321    0.744500    11.00000    0.05930    0.08760 =
         0.08125    0.02190    0.00995    0.01595
AFIX  43
H6    2    0.863587    0.315917    0.830049    11.00000   -1.20000
AFIX  65
C7    1    0.776105    0.362596    0.682110    11.00000    0.04528    0.07650 =
         0.08711    0.00553    0.02175    0.01578
AFIX  43
H7    2    0.734721    0.388146    0.725916    11.00000   -1.20000
AFIX   0
N1    3    0.407804    0.409582    0.498136    11.00000    0.02952    0.02793 =
         0.10093    0.00286    0.00506   -0.00663
C8    1    1.000000    0.231873    0.750000    10.50000    0.05261    0.04689 =
         0.14558    0.00000   -0.03048    0.00000
AFIX  23
H8A   2    1.025918    0.200016    0.692136    10.50000   -1.20000
H8B   2    0.974082    0.200017    0.807865    10.50000   -1.20000
AFIX   0
C9    1    0.322982    0.402401    0.417308    11.00000    0.04096    0.04166 =
         0.11852    0.02377   -0.00569   -0.01464
AFIX  43
H9    2    0.305148    0.440318    0.359854    11.00000   -1.20000
AFIX   0
C10   1    0.259927    0.341105    0.414644    11.00000    0.04174    0.04773 =
         0.08406    0.01539   -0.01430   -0.01771
AFIX  43
H10   2    0.202493    0.338711    0.355291    11.00000   -1.20000
AFIX   0
C11   1    0.282228    0.283227    0.500339    11.00000    0.03351    0.03482 =
         0.05801   -0.00222    0.00556   -0.01268
C12   1    0.370512    0.291673    0.585504    11.00000    0.04501    0.04693 =
         0.05656    0.00781   -0.00425   -0.01730
AFIX  43
H12A  2    0.389502    0.255343    0.645475    11.00000   -1.20000
AFIX   0
C13   1    0.430014    0.354332    0.580705    11.00000    0.03700    0.04716 =
         0.07997   -0.00244   -0.00540   -0.01576
AFIX  43
H13   2    0.488482    0.358030    0.638072    11.00000   -1.20000
eqiv  $1 1-x,y,1/2-z
htab  o1w o2_$1
htab  o1w o2

AFIX   0
HKLF  4

REM   C2/c
REM R1 =  0.0588 for    1460 Fo > 4sig(Fo)  and  0.1099 for all    3041 data
REM    147 parameters refined using      6 restraints

END

WGHT      0.1067      0.0000

REM Highest difference peak  0.421,  deepest hole -0.445,  1-sigma level  0.078
Q1    1   0.5054  0.5015  0.6109  11.00000  0.05    0.42
;
_shelx_res_checksum              72063
_shelx_hkl_file
;
  -2   0   0 997.702  17.362   1
  -4   0   0 738.813  13.595   2
  -4   0   0 738.760  18.784   1
  -6   0   0 1000.97   26.80   1
  -6   0   0 1011.60   19.32   2
  -8   0   0 2151.59   46.87   1
  -8   0   0 2097.32   33.24   2
 -10   0   0 1344.30   40.68   1
 -10   0   0 1340.46   28.38   2
 -12   0   0 1271.09   30.08   2
 -12   0   0 1266.30   43.67   1
 -14   0   0 118.221  17.983   1
 -16   0   0 127.976  25.748   1
 -15   1   0 142.376  26.282   1
 -13   1   0 155.556  12.626   2
 -13   1   0 157.639  18.940   1
 -11   1   0 1266.72   41.37   1
 -11   1   0 1250.98   29.79   2
  -9   1   0 659.928  19.297   2
  -9   1   0 657.208  26.196   1
  -7   1   0 1275.74   32.24   1
  -7   1   0 1273.86   24.75   2
  -5   1   0 706.213  19.707   1
  -5   1   0 639.899  14.940   2
  -3   1   0 32.0783  3.0019   2
  -3   1   0 28.6243  4.1756   1
  -1   1   0 436.581   9.150   1
  -1  -1   0 4599.83   61.95   1
  -3  -1   0 20.7165  5.0546   1
  -5  -1   0 650.447  13.155   2
  -5  -1   0 673.759  20.501   1
  -7  -1   0 1240.05   33.15   1
  -7  -1   0 1241.67   22.08   2
  -9  -1   0 651.159  26.968   1
  -9  -1   0 659.739  17.844   2
 -11  -1   0 1184.11   40.79   1
 -11  -1   0 1175.76   26.58   2
 -13  -1   0 166.075  19.228   1
 -15  -1   0 99.5737 23.4120   1
 -17  -1   0 124.075  27.406   1
 -16   2   0 172.275  23.054   1
 -14   2   0 72.9596 20.9115   1
 -14   2   0 51.3027  9.0237   2
 -12   2   0 381.795  17.918   2
 -12   2   0 407.874  25.875   1
 -10   2   0 720.218  28.924   1
 -10   2   0 702.630  22.098   2
  -8   2   0 683.651  24.507   1
  -8   2   0 678.209  19.666   2
  -6   2   0 3525.26   54.55   1
  -6   2   0 3459.86   45.13   2
  -4   2   0 1662.99   25.79   2
  -4   2   0 1678.28   28.84   1
  -2   2   0 5250.37   63.99   1
   0  -2   0 917.835  17.539   1
  -2  -2   0 5423.80   66.74   1
  -4  -2   0 1649.52   19.66   2
  -4  -2   0 1615.31   31.69   1
  -6  -2   0 3403.30   37.67   2
  -6  -2   0 3361.73   57.74   1
  -8  -2   0 634.757  25.620   1
  -8  -2   0 640.238  15.735   2
 -10  -2   0 629.222  17.499   2
 -10  -2   0 654.882  29.091   1
 -12  -2   0 382.566  25.457   1
 -14  -2   0 51.7683 18.8615   1
 -16  -2   0 133.723  26.659   1
 -15   3   0 64.3140 21.4359   1
 -15   3   0 72.4074 11.0242   2
 -13   3   0 257.299  16.399   2
 -13   3   0 267.843  23.581   1
 -11   3   0 805.220  25.782   2
 -11   3   0 826.812  32.646   1
  -9   3   0 1017.30   31.96   1
  -9   3   0 1013.65   26.56   2
  -7   3   0 1624.26   35.40   1
  -7   3   0 1592.02   31.06   2
  -5   3   0 2405.44   36.13   2
  -5   3   0 2377.70   39.42   1
  -3   3   0 550.899  13.797   2
  -3   3   0 525.150  15.176   1
   1  -3   0 3180.93   46.37   1
  -1  -3   0 3318.78   47.25   1
  -3  -3   0 503.090  16.203   1
   3   3   0 492.449  12.273   3
  -5  -3   0 2297.15   43.99   1
  -5  -3   0 2369.99   26.72   2
  -7  -3   0 1529.28   38.53   1
  -7  -3   0 1502.41   22.73   2
  -9  -3   0 917.544  32.899   1
  -9  -3   0 885.660  19.142   2
 -11  -3   0 728.385  33.035   1
 -13  -3   0 226.474  22.565   1
 -15  -3   0 70.6972 21.1074   1
 -17  -3   0 89.6449 26.0373   1
 -16   4   0 88.2786 12.9464   2
 -14   4   0 465.311  30.983   1
 -14   4   0 444.518  22.432   2
 -12   4   0 69.6448 17.9082   1
 -12   4   0 56.6521  9.1033   2
 -10   4   0 1305.86   38.87   1
 -10   4   0 1314.10   33.04   2
  -8   4   0 1295.50   30.35   2
  -8   4   0 1339.08   33.79   1
  -6   4   0 1682.61   34.25   1
  -6   4   0 1667.22   32.23   2
  -4   4   0 751.397  18.790   2
  -4   4   0 717.235  20.467   1
  -2   4   0 9999.99  123.75   1
   0  -4   0 5.22811 3.34342   1
  -2  -4   0 9739.48  117.12   1
   2   4   0 9874.99   99.08   3
  -4  -4   0 697.330  22.462   1
   4   4   0 699.982  16.824   3
  -6  -4   0 1652.05   22.26   2
  -6  -4   0 1626.96   39.82   1
  -8  -4   0 1253.92   38.90   1
  -8  -4   0 1246.67   21.79   2
 -10  -4   0 1222.16   42.58   1
 -12  -4   0 75.5798 19.2825   1
 -14  -4   0 404.063  30.227   1
 -16  -4   0 101.532  25.171   1
 -15   5   0 368.288  22.210   2
 -13   5   0 372.877  26.024   1
 -13   5   0 361.283  20.363   2
 -11   5   0 14.5204  6.2267   2
 -11   5   0  1.2583 10.5708   1
  -9   5   0 1817.72   42.98   1
  -9   5   0 1798.96   39.04   2
  -7   5   0 1090.36   28.88   1
  -7   5   0 1093.51   27.86   2
  -5   5   0 4813.35   71.00   1
  -5   5   0 4665.20   60.17   2
  -3   5   0 8031.19  100.57   1
   1  -5   0 68.2545  7.1393   1
  -1  -5   0 63.5650  7.1108   1
   1   5   0 61.1010  4.5154   3
  -3  -5   0 8327.18  107.61   1
   3   5   0 8010.97   85.77   3
  -5  -5   0 4438.22   73.09   1
  -5  -5   0 4266.38   42.06   2
   5   5   0 4278.79   57.00   3
  -7  -5   0 963.508  33.115   1
  -7  -5   0 984.598  17.420   2
  -9  -5   0 1656.00   48.60   1
 -11  -5   0 12.1968 12.8308   1
 -13  -5   0 366.419  28.268   1
 -15  -5   0 333.143  29.921   1
 -17  -5   0 115.595  28.303   1
 -16   6   0 168.882  17.416   2
 -14   6   0 466.971  24.308   2
 -12   6   0 274.941  21.878   1
 -12   6   0 263.178  17.680   2
 -10   6   0 33.8012  7.7398   2
 -10   6   0 45.6532 12.2877   1
  -8   6   0 1217.51   33.09   1
  -8   6   0 1212.68   31.79   2
  -6   6   0 925.267  28.642   1
  -6   6   0 853.400  24.315   2
  -4   6   0 6475.58   89.78   1
  -2   6   0 1419.38   32.51   1
   0  -6   0 611.748  21.590   1
  -2  -6   0 1393.49   34.04   1
   2   6   0 1362.35   24.41   3
  -4  -6   0 6177.55   58.02   2
  -4  -6   0 6260.55   93.52   1
   4   6   0 6209.29   72.63   3
  -6  -6   0 752.762  29.465   1
  -6  -6   0 767.848  14.236   2
  -8  -6   0 1094.67   38.99   1
 -10  -6   0 26.4928 14.4086   1
 -12  -6   0 249.444  23.595   1
 -14  -6   0 402.912  31.827   1
 -16  -6   0 177.700  25.651   1
 -17   7   0 -0.5452  8.8036   2
 -15   7   0 312.773  21.970   2
 -13   7   0 424.023  23.579   2
 -11   7   0 552.719  27.247   1
 -11   7   0 546.171  24.478   2
  -9   7   0 127.221  11.917   2
  -9   7   0 119.618  12.990   1
  -7   7   0 410.991  18.109   2
  -7   7   0 403.178  20.454   1
  -5   7   0 173.624  13.976   1
  -5   7   0 159.084  10.824   2
  -3   7   0 6779.84   94.78   1
   1  -7   0 148.796  11.945   1
  -1  -7   0 154.977  11.838   1
   1   7   0 156.486   8.359   3
  -3  -7   0 6773.15   99.31   1
   3   7   0 6751.78   76.95   3
  -5  -7   0 158.750   6.666   2
  -5  -7   0 185.673  15.413   1
   5   7   0 156.720   9.514   3
  -7  -7   0 387.400  23.446   1
  -7  -7   0 372.190  10.612   2
  -9  -7   0 102.571  15.395   1
 -11  -7   0 520.951  32.845   1
 -13  -7   0 381.468  30.870   1
 -15  -7   0 267.139  29.220   1
 -16   8   0 109.215  15.975   2
 -14   8   0 294.737  21.069   2
 -12   8   0 460.077  23.854   2
 -12   8   0 386.434  25.466   1
 -10   8   0 260.624  18.890   1
 -10   8   0 257.201  16.750   2
  -8   8   0 630.961  24.152   2
  -8   8   0 645.255  26.201   1
  -6   8   0 361.543  20.053   1
  -6   8   0 345.929  16.828   2
  -4   8   0 4872.31   78.88   1
   2  -8   0 2013.49   47.67   1
  -2   8   0 1934.23   43.75   1
   0  -8   0 430.312  20.876   1
  -2  -8   0 1982.62   47.01   1
   2   8   0 1925.00   33.49   3
  -4  -8   0 4667.80   81.70   1
   4   8   0 4476.34   58.98   3
  -6  -8   0 343.198  10.282   2
  -6  -8   0 335.930  21.781   1
   6   8   0 332.107  14.799   3
  -8  -8   0 582.166  31.189   1
 -10  -8   0 245.238  23.259   1
 -12  -8   0 413.586  31.472   1
 -14  -8   0 290.060  29.435   1
 -16  -8   0 119.809  29.475   1
 -15   9   0 190.247  18.806   2
 -13   9   0 239.279  19.237   2
 -11   9   0 292.646  19.295   2
 -11   9   0 283.145  21.142   1
  -9   9   0 293.300  19.296   1
  -9   9   0 275.437  17.175   2
  -7   9   0 1366.96   40.77   1
  -7   9   0 1268.95   34.13   2
  -5   9   0 2691.07   57.43   1
  -3   9   0 635.604  25.329   1
   1  -9   0 1202.36   37.79   1
  -1  -9   0 1156.67   36.83   1
   1   9   0 1194.55   27.46   3
  -3  -9   0 589.672  26.428   1
   3   9   0 588.561  17.807   3
  -5  -9   0 2432.20   59.20   1
   5   9   0 2395.12   40.89   3
  -7  -9   0 1210.06   44.37   1
   7   9   0 1215.92   30.28   3
  -9  -9   0 229.774  22.017   1
 -11  -9   0 287.712  26.666   1
 -13  -9   0 237.543  26.938   1
 -15  -9   0 189.044  27.314   1
 -16  10   0 12.4320 10.1558   2
 -14  10   0 147.648  16.274   2
 -12  10   0 277.633  19.680   2
 -10  10   0 531.913  24.638   2
 -10  10   0 505.118  26.350   1
  -8  10   0 248.122  16.527   2
  -8  10   0 217.538  19.491   1
  -6  10   0 1283.78   40.63   1
  -6  10   0 1229.11   33.48   2
  -4  10   0 86.8793 11.7441   1
   2 -10   0 929.306  35.006   1
   0 -10   0 1296.79   41.40   1
   0  10   0 1317.22   31.96   3
  -2 -10   0 884.370  33.585   1
   2  10   0 897.908  23.901   3
  -4 -10   0 66.1191 13.2506   1
   4  10   0 63.1165  6.8881   3
  -6 -10   0 1124.82   42.07   1
   6  10   0 1124.94   27.79   3
  -8 -10   0 240.289  21.771   1
 -10 -10   0 508.836  33.793   1
 -12 -10   0 214.922  25.859   1
 -14 -10   0 197.867  33.912   1
 -15  11   0 -2.2801  7.8093   2
 -13  11   0 233.235  19.711   2
 -11  11   0 407.777  23.024   2
  -9  11   0 288.146  22.636   1
  -9  11   0 331.848  19.963   2
  -7  11   0 302.597  21.752   1
  -7  11   0 283.351  17.093   2
  -5  11   0 522.485  21.179   2
  -5  11   0 564.503  26.760   1
  -3  11   0 415.940  22.304   1
   1 -11   0 1431.26   45.76   1
  -1 -11   0 1360.28   44.58   1
   1  11   0 1400.87   33.03   3
  -3 -11   0 392.297  24.183   1
   3  11   0 389.497  15.844   3
  -5 -11   0 481.335  27.568   1
   5  11   0 466.314  17.025   3
  -7 -11   0 247.505  22.152   1
   7  11   0 260.341  14.504   3
  -9 -11   0 311.610  25.950   1
 -11 -11   0 380.988  31.625   1
 -13 -11   0 250.351  30.022   1
 -14  12   0 17.9326  9.7946   2
 -12  12   0 373.891  23.857   2
 -10  12   0 248.737  18.497   2
  -8  12   0 147.598  13.874   2
  -8  12   0 130.043  17.257   1
  -6  12   0 1022.32   38.22   1
  -6  12   0 959.709  31.128   2
  -4  12   0 307.214  20.662   1
   2 -12   0 658.555  32.322   1
   0 -12   0 1030.14   40.40   1
   0  12   0 1050.22   30.91   3
  -2 -12   0 667.293  32.189   1
   2  12   0 659.539  22.474   3
  -4 -12   0 276.764  21.866   1
   4  12   0 279.872  13.806   3
  -6 -12   0 920.874  40.299   1
   6  12   0 837.169  24.868   3
  -8 -12   0 132.980  18.222   1
   8  12   0 133.930  12.333   3
 -10 -12   0 210.235  23.687   1
 -12 -12   0 304.423  30.336   1
 -14 -12   0 43.5757 22.7495   1
 -13  13   0 93.3692 14.7330   2
 -11  13   0 244.914  18.952   2
  -9  13   0 334.673  21.078   2
  -7  13   0 312.875  19.148   2
  -7  13   0 287.187  23.175   1
  -5  13   0 521.225  28.076   1
  -5  13   0 473.465  21.753   2
  -3  13   0 269.685  20.022   1
   1 -13   0 1235.43   46.13   1
  -1 -13   0 1251.15   46.43   1
   1  13   0 1285.77   34.21   3
  -3 -13   0 302.885  23.200   1
   3  13   0 302.164  15.477   3
  -5 -13   0 443.724  29.158   1
   5  13   0 447.455  17.935   3
  -7 -13   0 249.845  23.546   1
  -9 -13   0 279.628  26.857   1
 -11 -13   0 208.365  25.542   1
 -13 -13   0 78.6072 24.8424   1
 -14  14   0 76.3167 14.6669   2
 -12  14   0 90.3845 14.4673   2
 -10  14   0 278.778  20.448   2
  -8  14   0 445.119  23.913   2
  -6  14   0 17.1794  7.0493   2
  -6  14   0 15.9577 12.5979   1
  -4  14   0 305.243  17.652   2
  -4  14   0 347.998  23.636   1
   2 -14   0 342.133  25.867   1
   0 -14   0 1899.31   60.16   1
   0  14   0 1878.98   45.21   3
  -2 -14   0 342.106  25.545   1
   2  14   0 380.868  18.721   3
  -4 -14   0 284.879  23.610   1
   4  14   0 281.495  15.247   3
  -6 -14   0 17.3486 12.8322   1
  -8 -14   0 387.869  30.426   1
 -10 -14   0 234.195  26.481   1
 -12 -14   0 47.4280 18.7271   1
 -13  15   0 14.6845  9.8926   2
 -11  15   0 103.028  14.716   2
  -9  15   0 193.732  17.731   2
  -7  15   0 421.950  23.148   2
  -5  15   0 75.5446 18.0380   1
  -5  15   0 79.3210 11.1457   2
  -3  15   0 331.988  23.693   1
   1 -15   0 520.114  32.607   1
  -1  15   0 529.806  24.860   3
  -1 -15   0 516.679  32.468   1
   1  15   0 533.335  23.776   3
  -3 -15   0 283.314  24.689   1
  -5 -15   0 82.8565 19.4051   1
  -7 -15   0 377.430  30.375   1
  -9 -15   0 178.797  23.747   1
 -11 -15   0 84.7679 23.1137   1
 -12  16   0 19.8832 10.5274   2
 -10  16   0 86.5308 13.8535   2
  -8  16   0 283.937  20.562   2
  -6  16   0 304.013  20.121   2
  -4  16   0 245.331  17.183   2
  -4  16   0 254.959  22.289   1
   2 -16   0 301.032  26.110   1
  -2  16   0 304.169  24.074   1
   0 -16   0 14.3819 12.6083   1
   0  16   0 5.38342 5.98938   3
  -2 -16   0 310.096  26.490   1
  -4 -16   0 227.154  23.574   1
  -6 -16   0 294.831  27.551   1
  -8 -16   0 234.197  26.103   1
 -10 -16   0 77.8739 20.8494   1
 -11  17   0 81.1252 14.4709   2
  -9  17   0 226.278  19.629   2
  -7  17   0 224.896  18.477   2
  -5  17   0 237.272  18.010   2
  -3  17   0 487.605  23.531   2
  -3  17   0 469.374  29.782   1
   1 -17   0 90.7082 20.9392   1
  -1 -17   0 121.915  23.237   1
  -3 -17   0 449.894  32.709   1
  -5 -17   0 196.353  22.941   1
  -7 -17   0 207.633  25.269   1
  -9 -17   0 240.894  28.449   1
 -11 -17   0 63.2428 24.1668   1
 -10  18   0 149.427  17.685   2
  -8  18   0 164.215  17.462   2
  -6  18   0 153.805  16.005   2
  -4  18   0 164.452  15.582   2
   2 -18   0 163.785  21.864   1
  -2  18   0 209.987  22.355   1
  -2  18   0 199.952  15.968   2
   0 -18   0 215.196  24.447   1
  -2 -18   0 192.962  23.281   1
  -4 -18   0 152.836  21.316   1
  -6 -18   0 89.2313 21.9170   1
  -8 -18   0 148.759  28.618   1
 -10 -18   0 137.682  30.167   1
  -9  19   0 107.246  15.917   2
  -7  19   0 68.3614 12.7046   2
  -5  19   0 202.627  18.039   2
  -3  19   0 51.7721 10.5230   2
   1 -19   0 150.817  22.104   1
  -1 -19   0 168.944  23.231   1
  -3 -19   0 75.0597 22.0168   1
  -5 -19   0 175.442  23.955   1
  -7 -19   0 51.9399 19.8055   1
  -9 -19   0 136.047  30.224   1
  -8  20   0 49.7620 12.4347   2
  -6  20   0 112.030  15.321   2
  -4  20   0 127.700  15.775   2
   0 -20   0 148.125  28.907   1
  -2 -20   0 169.056  30.188   1
  -4 -20   0 105.901  24.529   1
  -6 -20   0 97.4551 25.4351   1
  -8 -20   0 41.6974 20.7469   1
  -7  21   0 70.2793 13.8795   2
  -5  21   0 55.3488 12.1169   2
  -1 -21   0 171.004  24.992   1
  -3 -21   0 126.273  27.900   1
  -5 -21   0 72.7951 22.8787   1
  -6  22   0 75.6625 14.4021   2
  -2 -22   0 86.6625 25.3163   1
  -4 -22   0 59.4641 22.3577   1
  -3 -23   0 54.6333 23.8109   1
  -6 -22   1  4.1763 15.4661   1
  -4 -22   1 -1.9705 13.7326   1
  -6  22  -1 -1.8634  8.3953   2
  -7 -21   1  1.3938 14.4075   1
  -5 -21   1  0.9539 13.1999   1
  -3 -21   1 32.4460 18.3630   1
  -5  21  -1 10.9154  8.5383   2
  -7  21  -1 0.29347 9.03717   2
  -8 -20   1 -1.6459 14.4465   1
  -6 -20   1  7.2041 14.6368   1
  -4 -20   1 66.6898 21.4905   1
  -2 -20   1  4.6674 14.4456   1
  -4  20  -1 -2.1420  7.2962   2
  -6  20  -1 -2.0391  7.3448   2
  -8  20  -1 5.74268 9.10516   2
  -9 -19   1  6.7359 16.4350   1
  -7 -19   1  8.6993 14.4442   1
  -3 -19   1 120.962  24.458   1
  -1 -19   1 65.1401 19.9898   1
  -3  19  -1 38.5549 10.9154   3
  -3  19  -1 36.7312  9.1790   2
  -5  19  -1 4.01169 7.02910   2
  -7  19  -1 6.84809 8.12199   2
  -9  19  -1 1.59744 8.84998   2
 -10 -18   1  7.4565 16.3932   1
  -8 -18   1 15.0655 15.9281   1
  -6 -18   1 -3.0978 11.4265   1
  -4 -18   1 25.6748 14.8955   1
  -2 -18   1 183.290  22.777   1
   0  18  -1 -0.7697  6.2223   3
   0 -18   1  1.9222 11.0601   1
  -2  18  -1 23.4104  7.6990   2
  -2  18  -1 15.1591  8.1438   3
  -4  18  -1 7.31409 6.85994   2
  -6  18  -1 0.95536 6.97923   2
  -8  18  -1 11.5901  8.6968   2
 -10  18  -1 -2.9518  7.9378   2
 -11 -17   1 -5.8863 14.4617   1
  -9 -17   1 12.7665 14.9426   1
  -7 -17   1 12.1357 13.8832   1
  -5 -17   1 81.8027 20.1587   1
  -3 -17   1  9.5493 11.8427   1
   1  17  -1 98.3569 13.3166   3
  -1 -17   1 117.378  22.333   1
  -1  17  -1 101.259  13.966   3
  -1  17  -1 99.5177 11.1951   2
   1 -17   1 149.040  24.936   1
  -3  17  -1 43.9165  8.7687   2
  -5  17  -1 3.08018 6.15003   2
  -7  17  -1 13.8173  8.4018   2
  -9  17  -1 -0.5927  7.5058   2
 -11  17  -1 25.1277 10.6487   2
 -12 -16   1  9.8934 17.4298   1
 -10 -16   1  2.5981 14.3198   1
  -8 -16   1 24.4247 15.4566   1
  -6 -16   1 22.6259 13.8651   1
   4  16  -1 22.1880  7.3932   3
  -4 -16   1 27.8099 13.7999   1
   2  16  -1 4.48830 5.87923   3
  -2 -16   1  2.4427 10.2884   1
   0  16  -1 5.83776 6.33509   3
   0 -16   1 13.8107 12.3103   1
  -2  16  -1 11.4680 11.4866   1
  -2  16  -1 2.42824 5.27064   2
   2 -16   1  4.2148 10.1649   1
  -4  16  -1 4.18473 5.56607   2
  -6  16  -1 1.51529 5.66035   2
  -8  16  -1 32.8467  9.6607   2
 -10  16  -1 2.37759 8.12990   2
 -12  16  -1 21.9997 10.7865   2
 -11 -15   1 22.2069 16.5794   1
  -9 -15   1 15.1668 15.7935   1
  -7 -15   1 16.6348 13.2208   1
   5  15  -1 9.51302 5.88460   3
  -5 -15   1 12.3482 11.9554   1
   3  15  -1 11.4423  5.9767   3
  -3 -15   1 2.64891 9.19600   1
   1  15  -1 29.9044  8.0263   3
  -1 -15   1 34.5213 13.6837   1
  -1  15  -1 82.4470 11.6121   3
  -1  15  -1 68.7204  9.0902   2
   1 -15   1 98.9970 19.0382   1
  -3  15  -1 -0.4597  9.4722   1
  -3  15  -1 1.41778 4.60597   2
  -5  15  -1 27.6224  7.7544   2
  -7  15  -1 53.8756 10.3399   2
  -9  15  -1 14.3338  8.1228   2
 -11  15  -1 24.8798 10.1694   2
 -13  15  -1 6.56259 9.96540   2
 -12 -14   1 -0.2859 15.8796   1
 -10 -14   1  9.3748 13.3640   1
  -8 -14   1 141.093  19.751   1
   6  14  -1 37.9698  7.2176   3
  -6 -14   1 47.6609 16.0249   1
   4  14  -1 -1.2912  4.6705   3
  -4 -14   1 1.36483 8.09272   1
   2  14  -1 58.6771  9.3514   3
   0  14  -1 111.420   9.837   2
   0  14  -1 104.999  12.060   3
   0 -14   1 104.635  15.193   1
  -2  14  -1  9.9446 10.2209   1
  -2  14  -1 16.8459  5.8257   2
   2 -14   1 16.2215 10.6326   1
  -4  14  -1 75.4611 15.5664   1
  -4  14  -1 66.4964  9.4650   2
  -6  14  -1 0.81744 5.06547   2
  -8  14  -1 14.7967  7.7595   2
 -10  14  -1 3.39382 7.46255   2
 -12  14  -1 18.1372  9.9639   2
 -14  14  -1 -0.8196  8.3138   2
 -13 -13   1 30.8275 16.8023   1
 -11 -13   1 -0.2196 14.5375   1
   9  13  -1 12.2550  6.6830   3
  -9 -13   1 11.4432 11.7000   1
   7  13  -1 322.051  17.437   3
  -7 -13   1 325.825  26.000   1
   5  13  -1 5.01070 4.54196   3
  -5 -13   1  8.2088 10.9021   1
   3  13  -1 29.7820  6.9478   3
  -3 -13   1 48.3141 13.6202   1
   1  13  -1 2.48925 4.78603   3
  -1 -13   1 9.24094 8.85528   1
  -1  13  -1 94.1223  8.9924   2
   1 -13   1 129.891  19.651   1
  -3  13  -1 11.7644  9.9101   1
  -3  13  -1 13.9496  5.4589   2
  -5  13  -1 14.0840  6.1574   2
  -5  13  -1 19.7341 11.2497   1
  -7  13  -1 14.5828  6.9736   2
  -9  13  -1 16.9131  8.0024   2
 -11  13  -1 5.86696 7.86242   2
 -13  13  -1 19.1372 10.1705   2
 -14 -12   1  4.7169 18.6972   1
 -12 -12   1 35.4802 19.5336   1
 -10 -12   1 30.7476 13.7917   1
   8  12  -1 2.50383 5.65748   3
   6  12  -1 7.74003 4.71554   3
  -6 -12   1 -5.2820  9.0422   1
   4  12  -1 -0.0685  3.8825   3
  -4 -12   1 -1.6102  7.5544   1
   2  12  -1 2.14576 4.29312   3
  -2 -12   1 1.51738 7.12103   1
   0  12  -1 85.5228 10.0743   3
   0 -12   1 97.4320 13.2314   1
  -2  12  -1 59.4051  7.5331   2
   2 -12   1 62.1560 13.5587   1
  -4  12  -1 28.8806 10.8379   1
  -4  12  -1 18.5213  5.6783   2
  -6  12  -1 264.157  16.740   2
  -6  12  -1 232.706  19.006   1
  -8  12  -1 1.76055 5.72578   2
 -10  12  -1 3.10951 7.03485   2
 -12  12  -1 45.9193 11.6921   2
 -14  12  -1 4.10797 9.16471   2
 -15 -11   1 -11.795  16.680   1
 -13 -11   1  8.1198 17.7817   1
 -11 -11   1  3.3898 12.9060   1
   9  11  -1 1.74020 5.35526   3
  -9 -11   1  2.9191 11.0743   1
   7  11  -1 2.18779 4.86189   3
  -7 -11   1  7.9602 10.9383   1
   5  11  -1 159.781  11.410   3
  -5 -11   1 156.976  16.772   1
   3  11  -1 3.64239 3.62447   3
  -3 -11   1 3.72667 7.04022   1
   1  11  -1 5.52017 4.13581   3
  -1 -11   1 9.32812 7.57302   1
  -1  11  -1 246.600  12.405   2
   1 -11   1 267.688  19.137   1
  -3  11  -1 73.5288 10.6274   1
  -3  11  -1 85.4055  8.7495   2
  -5  11  -1 310.817  16.658   2
  -5  11  -1 305.972  19.512   1
  -7  11  -1 -2.8821  4.0057   2
  -7  11  -1 0.80689 9.47071   1
  -9  11  -1 3.61582 6.09484   2
 -11  11  -1 59.0546 11.7879   2
 -13  11  -1 -3.9732  7.5817   2
 -15  11  -1 3.15451 9.27074   2
 -14 -10   1 17.9150 16.5510   1
 -12 -10   1 -1.7671 14.3518   1
 -10 -10   1 45.2830 17.3677   1
   8  10  -1 159.378  13.335   3
  -8 -10   1 126.875  17.249   1
   6  10  -1 232.941  13.626   3
  -6 -10   1 234.900  19.844   1
   4  10  -1 15.9632  4.6769   3
  -4 -10   1 12.2457  8.6954   1
   2  10  -1 26.5185  5.5558   3
  -2 -10   1 49.3908 11.2808   1
   0  10  -1 33.9407  6.3209   3
   0 -10   1 43.9980 10.9430   1
  -2  10  -1 850.801  23.087   2
   2 -10   1 878.467  32.202   1
  -4  10  -1 13.1853  4.8543   2
  -4  10  -1 6.83698 7.65797   1
  -6  10  -1 46.5548  8.0806   2
  -6  10  -1 57.4241 13.0373   1
  -8  10  -1 2.19775 5.14160   2
  -8  10  -1 1.29169 9.22816   1
 -10  10  -1 19.5092  8.0344   2
 -12  10  -1 2.30317 6.77236   2
 -14  10  -1 -3.0934  8.4381   2
 -15  -9   1  5.9044 18.3368   1
 -13  -9   1  6.7457 14.9215   1
 -11  -9   1 -6.7579 12.1867   1
  -9  -9   1 206.770  21.379   1
   7   9  -1 47.6216  7.8549   3
  -7  -9   1 46.9500 14.4621   1
   5   9  -1 71.8116  7.8778   3
  -5  -9   1 80.2209 12.0729   1
   3   9  -1 2.13311 3.23703   3
  -3  -9   1 4.45594 6.84539   1
   1   9  -1 28.7319  5.5168   3
  -1  -9   1 34.5830  8.7785   1
   1  -9   1 99.7130 11.0569   1
  -3   9  -1 238.907  12.555   2
  -3   9  -1 215.281  14.438   1
  -5   9  -1 19.4730  9.0443   1
  -5   9  -1 18.3477  5.4313   2
  -7   9  -1 12.4155 10.1972   1
  -7   9  -1 19.1615  6.1800   2
  -9   9  -1 28.9478  7.9166   2
  -9   9  -1 32.1962 11.0657   1
 -11   9  -1 58.3781 10.7341   2
 -13   9  -1 1.85950 7.53639   2
 -15   9  -1 7.26842 9.15871   2
 -16  -8   1  6.1951 18.2970   1
 -14  -8   1 -0.2777 14.9552   1
 -12  -8   1 67.1068 20.0065   1
 -10  -8   1 89.9254 19.1516   1
   8   8  -1 44.0400  7.9552   3
  -8  -8   1 53.9905 15.1797   1
   6   8  -1 166.043  11.020   3
  -6  -8   1 136.359  14.811   1
   4   8  -1 82.6404  7.5800   3
  -4  -8   1 77.2298 10.8595   1
   2   8  -1 480.084  16.929   3
  -2  -8   1 474.912  20.924   1
   0  -8   1 45.7350  9.0435   1
  -2   8  -1 12.5307  6.4290   1
  -2   8  -1 29.1777  4.8360   2
  -4   8  -1 111.921  11.101   1
  -4   8  -1 110.844   8.941   2
  -6   8  -1 13.1065  8.3202   1
  -6   8  -1 7.61248 4.58484   2
  -8   8  -1 311.636  17.231   2
  -8   8  -1 277.398  16.537   1
 -10   8  -1 1.78942 8.69468   1
 -10   8  -1 2.90435 5.73368   2
 -12   8  -1 50.0635 10.5263   2
 -14   8  -1 5.16194 8.34954   2
 -16   8  -1 27.6738 11.3760   2
 -15  -7   1  0.6887 14.9524   1
 -13  -7   1 48.7517 18.2713   1
 -11  -7   1 12.4695 12.5485   1
  -9  -7   1 82.1899 17.0517   1
   7   7  -1 39.7469  6.8852   3
  -7  -7   1 33.9817 11.3437   1
   5   7  -1 48.2402  6.4659   3
  -5  -7   1 40.1235 10.3664   1
   3   7  -1 270.279  12.036   3
  -3  -7   1 277.799  16.038   1
   1   7  -1 -0.4753  2.0071   3
  -1  -7   1 2.36219 4.24998   1
  -1   7  -1 40.9029  4.5299   2
   1  -7   1 61.9635  9.3068   1
  -3   7  -1 163.144   9.766   2
  -3   7  -1 160.571  11.472   1
  -5   7  -1 33.4929  5.8923   2
  -5   7  -1 37.2020  8.8444   1
  -7   7  -1 11.2917  7.4762   1
  -7   7  -1 8.46476 4.64076   2
  -9   7  -1 113.501  12.253   1
  -9   7  -1 102.921  11.058   2
 -11   7  -1 90.5294 11.9970   2
 -13   7  -1 13.4706  8.2302   2
 -15   7  -1 4.24932 8.36585   2
 -16  -6   1 -0.6072 14.6154   1
 -14  -6   1 24.8948 16.0562   1
 -12  -6   1 11.9738 13.3978   1
 -10  -6   1 21.4609 12.8724   1
  -8  -6   1 0.48795 6.03183   1
   6   6  -1 15.1219  4.8264   3
  -6  -6   1 17.2865  7.9470   1
   4   6  -1 1104.30   24.59   3
  -4  -6   1 1127.21   32.11   1
   2   6  -1 37.4425  4.6481   3
   0  -6   1 3.06092 3.32343   1
  -2   6  -1 19.8975  3.5020   2
  -2   6  -1 36.6623  6.7916   1
  -4   6  -1 496.733  16.677   2
  -4   6  -1 497.682  18.367   1
  -6   6  -1 1.13805 3.23632   2
  -6   6  -1 16.0919  6.4439   1
  -8   6  -1 13.5627  5.3129   2
  -8   6  -1 10.6122  7.7046   1
 -10   6  -1 16.7096  6.6823   2
 -10   6  -1 23.0955 11.4342   1
 -12   6  -1 -1.5999  4.9718   2
 -14   6  -1 -2.4824  7.0450   2
 -16   6  -1 18.8407  9.7933   2
 -17  -5   1  1.0506 15.9271   1
 -15  -5   1 -2.1829 13.7544   1
 -13  -5   1  9.2126 13.4812   1
 -11  -5   1 124.983  16.908   1
  -9  -5   1 78.3300 16.0112   1
  -7  -5   1 27.8886  9.1466   1
  -7  -5   1 13.9728  2.8324   2
   5   5  -1 50.8015  6.5165   3
  -5  -5   1 53.7026  8.1587   1
   3   5  -1 2233.61   34.66   3
  -3  -5   1 2062.04   41.07   1
   1   5  -1 523.542  14.933   3
  -1  -5   1 532.388  16.974   1
  -1   5  -1 154.036   6.905   2
   1  -5   1 164.581   9.351   1
  -3   5  -1 105.374   6.905   2
  -3   5  -1 111.909   8.159   1
  -5   5  -1 138.682   9.369   1
  -5   5  -1 124.283   8.752   2
  -7   5  -1 34.2974  8.3794   1
  -7   5  -1 31.2131  5.9784   2
  -9   5  -1 38.8683  7.5052   2
  -9   5  -1 51.2250 12.4129   1
 -11   5  -1 135.088  16.225   1
 -11   5  -1 135.262  12.155   2
 -13   5  -1 -2.1112  6.0062   2
 -15   5  -1 23.1079  9.4550   2
 -17   5  -1 6.87754 8.83920   2
 -16  -4   1 15.4854 17.4463   1
 -14  -4   1  9.9766 16.3062   1
 -12  -4   1  2.2531 13.0550   1
 -10  -4   1 33.8869 13.2795   1
  -8  -4   1 96.9197  5.9482   2
  -8  -4   1 75.9072 11.4468   1
  -6  -4   1 64.2335  9.1047   1
   4   4  -1 1514.38   28.14   3
  -4  -4   1 1492.41   33.10   1
   0  -4   1 2321.89   36.66   1
  -2   4  -1 4182.72   45.43   2
  -2   4  -1 4110.13   54.69   1
  -4   4  -1 48.9597  5.8443   1
  -4   4  -1 50.7596  5.2736   2
  -6   4  -1 95.2170  8.4139   1
  -6   4  -1 107.073   8.256   2
  -8   4  -1 5.98622 7.93232   1
  -8   4  -1 4.06541 3.94852   2
 -10   4  -1 97.3178 10.2217   2
 -10   4  -1 101.329  13.470   1
 -12   4  -1 14.5218  6.7618   2
 -12   4  -1 21.7720 14.2554   1
 -14   4  -1 4.24371 6.83388   2
 -16   4  -1 9.05844 8.13232   2
 -17  -3   1 -5.3068 15.6146   1
 -15  -3   1 33.4109 17.3813   1
 -13  -3   1 56.8073 18.4557   1
 -11  -3   1  5.4995 12.2504   1
  -9  -3   1 87.0647 12.2606   1
  -9  -3   1 96.3611  6.6422   2
  -7  -3   1 0.27266 1.83251   2
  -7  -3   1 -2.4682  5.8527   1
   5   3  -1 8.65257 3.52510   3
  -5  -3   1 3.47577 5.28993   1
   3   3  -1 3859.97   47.94   3
  -3  -3   1 3757.28   53.75   1
  -1   3  -1 3173.86   32.63   2
  -1   3  -1 2962.83   41.33   1
   1  -3   1 3082.65   43.33   1
  -3   3  -1 31.3423  4.0556   1
  -3   3  -1 27.6687  3.4563   2
  -5   3  -1 1199.42   23.70   2
  -5   3  -1 1208.11   24.99   1
  -7   3  -1 1.08010 6.39840   1
  -7   3  -1 2.41277 2.82824   2
  -9   3  -1 548.725  23.764   1
  -9   3  -1 555.716  19.693   2
 -11   3  -1 106.653  15.895   1
 -11   3  -1 92.6536 10.2653   2
 -13   3  -1  7.0792 14.7178   1
 -13   3  -1 4.14404 5.99093   2
 -15   3  -1 4.64832 6.78085   2
 -16  -2   1 12.8081 15.8199   1
 -14  -2   1 117.696  17.811   1
 -12  -2   1 110.535  20.907   1
 -10  -2   1 33.0867 12.8447   1
 -10  -2   1 29.8697  5.1211   2
  -8  -2   1 187.356  14.931   1
  -8  -2   1 201.087   8.496   2
  -6  -2   1 65.8617  8.8274   1
  -6  -2   1 66.3355  4.3274   2
  -2   2  -1 1805.05   22.85   2
  -2   2  -1 1826.52   25.21   1
  -4   2  -1 539.877  13.642   2
  -4   2  -1 584.685  15.229   1
  -6   2  -1 2167.89   33.90   2
  -6   2  -1 2184.34   40.20   1
  -8   2  -1 618.596  23.490   1
  -8   2  -1 604.235  18.854   2
 -10   2  -1 0.46866 3.85909   2
 -10   2  -1 -4.1415  9.4337   1
 -12   2  -1 8.76426 5.48683   2
 -12   2  -1  7.1705 13.2705   1
 -14   2  -1 2.18380 5.93598   2
 -14   2  -1  3.2698 15.3393   1
 -17  -1   1  5.3397 17.5627   1
 -15  -1   1 72.2789 20.7034   1
 -13  -1   1 248.335  22.287   1
 -11  -1   1 -3.7538 11.3064   1
 -11  -1   1 0.57750 3.67623   2
  -9  -1   1 -5.3446  7.4187   1
  -9  -1   1 -0.2967  2.5357   2
  -7  -1   1 0.29996 1.95755   2
  -7  -1   1 -1.7324  6.7101   1
  -5  -1   1 77.3148  4.4459   2
  -5  -1   1 75.5494  8.0039   1
  -1  -1   1 6.01037 2.00127   1
  -1   1  -1 0.23016 1.02681   1
  -3   1  -1 797.058  14.358   2
  -3   1  -1 801.033  16.609   1
  -5   1  -1 357.322  11.176   2
  -5   1  -1 368.358  14.195   1
  -7   1  -1 65.6497 11.3219   1
  -7   1  -1 62.2147  6.2731   2
  -9   1  -1 8.07164 4.12378   2
  -9   1  -1 13.7505 10.0143   1
 -11   1  -1 4.45858 4.86261   2
 -11   1  -1 -4.3676 11.2719   1
 -13   1  -1 -1.6751  4.7303   2
 -13   1  -1  3.1608 13.5863   1
 -15   1  -1  5.9253 16.4802   1
 -16   0   1 12.4235 16.2440   1
 -14   0   1 -9.8514 13.4664   1
 -12   0   1 -0.7966 12.5373   1
 -12   0   1 -0.2555  4.0610   2
 -10   0   1  4.5426 11.0482   1
 -10   0   1 1.72898 3.39338   2
  -8   0   1 -3.4075  6.9307   1
  -8   0   1 0.45133 2.40424   2
  -6   0   1 -2.7990  5.5828   1
  -6   0   1 0.55309 1.87748   2
  -4   0   1 -0.1908  3.9410   1
  -4   0   1 0.30919 1.29854   2
  -2   0   1 -1.1579  1.8275   1
   0   0   1 3.23316 0.99503   1
  -2   0  -1 1.77975 2.19553   1
  -4   0  -1 -0.5380  3.3893   1
  -4   0  -1 1.86307 1.55102   2
  -6   0  -1 -0.8299  2.0242   2
  -6   0  -1 -1.6605  5.6958   1
  -8   0  -1 -5.7530  6.9130   1
  -8   0  -1 -0.6931  2.7726   2
 -10   0  -1 -2.7068  3.4460   2
 -10   0  -1  2.6757 10.1420   1
 -12   0  -1 -3.7139 11.7514   1
 -12   0  -1 -0.6563  4.4852   2
 -14   0  -1 -1.7802 14.9926   1
 -14   0  -1 0.09086 5.48621   2
 -17   1   1 13.4792 18.0943   1
 -15   1   1 100.436  23.158   1
 -13   1   1 275.734  23.582   1
 -13   1   1 262.732  15.172   2
 -11   1   1 -0.2182 11.4271   1
 -11   1   1 1.97759 4.19968   2
  -9   1   1 1.44046 2.96804   2
  -9   1   1 0.35775 8.15432   1
  -7   1   1 0.66282 6.85504   1
  -7   1   1 0.78426 2.26481   2
  -5   1   1 68.1504  5.3596   2
  -5   1   1 90.4476  7.6564   1
  -3   1   1 455.870  13.060   1
  -1   1   1 390.458  10.103   1
  -1  -1  -1 152.962   6.253   1
  -3  -1  -1 724.791  17.628   1
  -3  -1  -1 757.646  12.554   2
  -5  -1  -1 336.873   9.821   2
  -5  -1  -1 324.728  14.049   1
  -7  -1  -1 56.2082  5.4200   2
  -7  -1  -1 60.9320  8.8884   1
  -9  -1  -1 8.45090 3.71403   2
  -9  -1  -1 10.2159  9.7324   1
 -11  -1  -1 -1.2304 11.8472   1
 -11  -1  -1 1.87672 4.00771   2
 -13  -1  -1 -2.4705  4.2743   2
 -13  -1  -1 -0.4304 13.3108   1
 -15  -1  -1  4.8957 16.9751   1
 -16   2   1  1.5507 16.6619   1
 -14   2   1 122.853  18.666   1
 -14   2   1 126.095  12.650   2
 -12   2   1 108.073  10.540   2
 -12   2   1 107.990  15.761   1
 -10   2   1 42.1679 13.5794   1
 -10   2   1 33.1238  6.2493   2
  -8   2   1 197.716  14.028   1
  -8   2   1 195.429  10.874   2
  -6   2   1 66.8260  7.8292   1
  -6   2   1 67.9905  6.3084   2
  -4   2   1 135.919   8.807   1
  -2   2   1 313.483  11.168   1
   0  -2  -1 7.05706 2.64440   1
  -2  -2  -1 1712.01   30.57   1
  -4  -2  -1 513.081  11.159   2
  -4  -2  -1 513.513  17.155   1
  -6  -2  -1 1908.37   41.10   1
  -6  -2  -1 1926.53   27.22   2
  -8  -2  -1 552.987  23.985   1
  -8  -2  -1 525.246  14.982   2
 -10  -2  -1 -2.7237 10.4149   1
 -10  -2  -1 -1.0645  3.3237   2
 -12  -2  -1  5.4981 14.0740   1
 -12  -2  -1 4.15312 4.50299   2
 -14  -2  -1  2.7480 15.3947   1
 -16  -2  -1 -5.5289 14.6184   1
 -17   3   1 -8.9707 17.4055   1
 -15   3   1 17.4267  8.0815   2
 -15   3   1 34.6096 18.8466   1
 -13   3   1 82.6576 19.6156   1
 -13   3   1 47.8951  8.6725   2
 -11   3   1 2.48767 4.71446   2
 -11   3   1 16.8694 12.4971   1
  -9   3   1 103.328  11.958   1
  -9   3   1 100.273   9.130   2
  -7   3   1 1.77384 6.17911   1
  -7   3   1 0.27188 2.80915   2
  -5   3   1 16.1143  6.4456   1
  -3   3   1 3921.07   57.43   1
   1  -3  -1 68.7875  6.2355   1
  -1   3   1 76.8435  6.2871   1
  -1  -3  -1 3147.82   48.45   1
  -3  -3  -1 17.2704  5.5421   1
  -3  -3  -1 26.3533  3.0812   2
  -5  -3  -1 1067.50   29.25   1
  -5  -3  -1 1073.28   17.97   2
  -7  -3  -1 2.55351 2.97435   2
  -7  -3  -1 6.10801 7.41375   1
  -9  -3  -1 481.514  24.887   1
  -9  -3  -1 472.529  15.271   2
 -11  -3  -1 75.0743  8.4839   2
 -11  -3  -1 75.8268 18.0375   1
 -13  -3  -1 15.2792 15.0430   1
 -15  -3  -1 -6.5139 13.6070   1
 -17  -3  -1 11.2083 17.8200   1
 -16   4   1 31.5199 20.4392   1
 -14   4   1 14.0295  7.0133   2
 -14   4   1 10.8719 15.8756   1
 -12   4   1 12.7626 13.4511   1
 -12   4   1 8.07057 5.64836   2
 -10   4   1 13.8342  5.5442   2
 -10   4   1 20.6848 11.5133   1
  -8   4   1 98.2871  8.8269   2
  -8   4   1 99.6188 10.8745   1
  -6   4   1 65.8562  7.1708   2
  -6   4   1 64.7299  8.7206   1
  -4   4   1 1585.52   34.73   1
  -2   4   1 3476.89   53.85   1
   0  -4  -1 2369.98   43.20   1
  -2  -4  -1 3775.70   59.06   1
  -2  -4  -1 3937.56   40.71   2
  -4  -4  -1 55.4091  4.5331   2
  -4  -4  -1 51.4218  7.8146   1
  -6  -4  -1 84.5530  6.3278   2
  -6  -4  -1 80.7783 10.4043   1
  -8  -4  -1 4.81775 8.44874   1
  -8  -4  -1 -0.2253  3.4699   2
 -10  -4  -1 84.6947  8.3827   2
 -10  -4  -1 77.1257 16.6744   1
 -12  -4  -1  6.7356 13.2625   1
 -14  -4  -1 13.9772 16.0229   1
 -16  -4  -1  7.8481 17.7492   1
 -15   5   1  5.9583 15.6219   1
 -15   5   1 0.49853 7.03873   2
 -13   5   1 1.39294 6.61097   2
 -13   5   1 10.7410 14.5461   1
 -11   5   1 147.938  12.542   2
 -11   5   1 145.654  16.218   1
  -9   5   1 84.7495 14.3764   1
  -9   5   1 54.5104  8.1473   2
  -7   5   1 12.1867  4.3456   2
  -7   5   1 21.7214  8.9036   1
  -5   5   1 48.4352 10.0168   1
  -3   5   1 2437.17   46.25   1
   1  -5  -1 556.554  20.794   1
  -1  -5  -1 144.789   7.046   2
  -1  -5  -1 152.895  10.790   1
  -3  -5  -1 101.245   9.561   1
  -3  -5  -1 103.670   5.736   2
   3   5   1 109.801   5.922   3
  -5  -5  -1 119.066   6.724   2
  -5  -5  -1 119.499  11.994   1
  -7  -5  -1 27.5181 10.3441   1
  -7  -5  -1 30.0048  4.5094   2
  -9  -5  -1 43.7645 14.0126   1
  -9  -5  -1 39.5105  6.1737   2
 -11  -5  -1 108.182  20.927   1
 -13  -5  -1 -1.3392 13.2783   1
 -15  -5  -1 25.0474 18.5078   1
 -17  -5  -1 -0.0816 18.4476   1
 -16   6   1 -5.7719  7.8515   2
 -14   6   1 18.3379  8.4591   2
 -14   6   1 39.9389 18.9116   1
 -12   6   1 -1.5246  5.3710   2
 -12   6   1 -0.3253 12.0884   1
 -10   6   1 7.76207 9.84718   1
 -10   6   1 12.6602  5.8089   2
  -8   6   1 2.68641 4.34257   2
  -8   6   1 -1.6712  7.8805   1
  -6   6   1 25.3808  9.4729   1
  -4   6   1 1180.04   32.82   1
  -2   6   1 49.2358  7.4112   1
   0  -6  -1 4.54181 5.03820   1
  -2  -6  -1 19.8079  3.3420   2
  -2  -6  -1 30.8903  8.2534   1
   2   6   1 22.8640  2.9744   3
  -4  -6  -1 440.980  12.089   2
   4   6   1 454.536  13.237   3
  -6  -6  -1 3.52837 6.76882   1
  -6  -6  -1 1.06762 2.81891   2
  -8  -6  -1 6.37917 3.99386   2
  -8  -6  -1 13.3567 10.8717   1
 -10  -6  -1 13.0627 12.6072   1
 -12  -6  -1 -7.7220 12.2906   1
 -14  -6  -1  2.2201 15.6394   1
 -16  -6  -1 17.2078 19.3184   1
 -17   7   1 -6.6762  8.6952   2
 -15   7   1 13.3160  8.7679   2
 -13   7   1 38.2094  9.5503   2
 -13   7   1 53.3399 18.1350   1
 -11   7   1 12.1987  6.4617   2
 -11   7   1 14.4466 11.9188   1
  -9   7   1 96.1802 12.8110   1
  -9   7   1 86.7251 10.2967   2
  -7   7   1 53.2347 13.3459   1
  -7   7   1 34.2666  6.5521   2
  -5   7   1 77.4003 13.0638   1
  -3   7   1 276.805  16.213   1
   1  -7  -1 0.29434 4.22304   1
  -1  -7  -1 40.2297  8.9296   1
   1   7   1 40.1061  3.9812   3
  -3  -7  -1 145.596   7.805   2
  -3  -7  -1 129.341  12.472   1
   3   7   1 142.018   7.207   3
  -5  -7  -1 28.0766  3.9192   2
  -5  -7  -1 24.5431  8.5413   1
   5   7   1 29.5072  4.7748   3
  -7  -7  -1 4.65196 7.88038   1
  -7  -7  -1 2.52796 2.92141   2
  -9  -7  -1 94.6743 18.5186   1
 -11  -7  -1 54.1734 18.9644   1
 -13  -7  -1  8.7424 15.8281   1
 -15  -7  -1 14.9398 18.1212   1
 -16   8   1 16.1987  9.8254   2
 -14   8   1 0.02875 7.08939   2
 -14   8   1 -3.4746 15.2554   1
 -12   8   1 59.1427 16.8622   1
 -12   8   1 47.3502  9.8048   2
 -10   8   1 111.676  17.962   1
 -10   8   1 81.9024 10.5852   2
  -8   8   1 54.5154  8.3876   2
  -8   8   1 50.2331 14.7553   1
  -6   8   1 179.737  16.142   1
  -4   8   1 88.4863 11.2286   1
   2  -8  -1 475.741  23.699   1
   0  -8  -1 49.6268 10.5555   1
  -2  -8  -1 33.6472  9.2976   1
   2   8   1 24.0925  3.6935   3
  -4  -8  -1 97.7190  6.7705   2
  -4  -8  -1 98.8157 11.7718   1
   4   8   1 104.504   7.250   3
  -6  -8  -1 7.26244 2.75244   2
  -6  -8  -1 10.0126  8.6673   1
  -8  -8  -1 237.232  21.424   1
 -10  -8  -1  7.3987 12.8962   1
 -12  -8  -1 49.5207 19.7288   1
 -14  -8  -1  4.6703 16.1682   1
 -16  -8  -1 36.6877 23.2225   1
 -15   9   1 16.3979  9.4766   2
 -13   9   1  1.4737 13.3956   1
 -13   9   1 0.68775 6.66882   2
 -11   9   1 -1.9510  5.5171   2
 -11   9   1  2.9760 11.2656   1
  -9   9   1 215.450  15.582   2
  -9   9   1 216.469  19.354   1
  -7   9   1 45.5091 14.0990   1
  -7   9   1 44.8223  8.0596   2
  -5   9   1 96.7843 12.7260   1
  -3   9   1 3.41186 7.12422   1
   1  -9  -1 49.2500 11.4951   1
  -1  -9  -1 91.7062 11.7459   1
   1   9   1 91.1003  6.8317   3
  -3  -9  -1 165.679  15.334   1
   3   9   1 196.329   9.061   3
  -5  -9  -1 15.7887  3.7180   2
  -5  -9  -1 37.1621 10.6201   1
   5   9   1 11.0232  4.1408   3
  -9  -9  -1 24.6292 13.2695   1
 -11  -9  -1 39.1537 17.5319   1
 -13  -9  -1  2.8756 15.6782   1
 -15  -9  -1 16.2764 18.9934   1
 -16  10   1 20.8905 10.5218   2
 -14  10   1 3.57122 7.78339   2
 -12  10   1 9.56762 7.23888   2
 -12  10   1  1.1410 12.4668   1
 -10  10   1 31.4927 14.2968   1
 -10  10   1 26.4371  7.9660   2
  -8  10   1 155.378  17.803   1
  -8  10   1 168.589  13.601   2
  -6  10   1 261.191  20.272   1
  -4  10   1 26.0337 10.5758   1
   2 -10  -1 33.8747 10.9408   1
   0 -10  -1 52.5035 12.6273   1
   0  10   1 44.2942  6.1919   3
  -2 -10  -1 795.778  33.239   1
   2  10   1 795.634  19.914   3
  -4 -10  -1 21.6043  9.8117   1
   4  10   1 8.78395 3.56760   3
  -6 -10  -1 47.5137 13.6770   1
   6  10   1 35.5877  6.0316   3
  -8 -10  -1 -1.6902  9.6123   1
 -10 -10  -1 22.6606 14.9775   1
 -12 -10  -1  9.8785 15.9365   1
 -14 -10  -1  2.9735 17.5218   1
 -15  11   1 -2.5912  8.1482   2
 -13  11   1 9.55487 7.97340   2
 -11  11   1 -7.8318 12.2394   1
 -11  11   1 -2.2761  5.1362   2
  -9  11   1 1.27590 5.36745   2
  -9  11   1 -3.0881 12.7147   1
  -7  11   1  9.3796 11.9462   1
  -7  11   1 5.39143 5.44234   2
  -5  11   1 179.669  17.404   1
  -3  11   1 0.72362 7.34188   1
   1 -11  -1 12.2019  9.0207   1
  -1 -11  -1 252.387  20.129   1
   1  11   1 268.973  12.718   3
  -3 -11  -1 94.8500 16.4159   1
   3  11   1 75.5066  6.7705   3
  -5 -11  -1 265.485  21.798   1
   5  11   1 258.979  12.198   3
  -7 -11  -1 6.25813 8.96633   1
  -9 -11  -1 -4.6953  9.5029   1
 -11 -11  -1 68.2930 19.2701   1
 -13 -11  -1 -8.2639 14.1877   1
 -14  12   1 -0.6472  7.7681   2
 -12  12   1 10.6773  8.2099   2
 -10  12   1 35.1511  9.3621   2
 -10  12   1 21.7398 16.5742   1
  -8  12   1 0.01974 4.70363   2
  -8  12   1 -9.7058 10.5801   1
  -6  12   1  9.5366 11.7767   1
  -4  12   1 -1.3084  8.3361   1
   2 -12  -1 -0.4378  7.5840   1
   0 -12  -1 105.892  18.072   1
   0  12   1 87.8548  8.9697   3
  -2 -12  -1 56.1289 14.2800   1
   2  12   1 50.3012  6.5096   3
  -4 -12  -1 22.2798 10.9358   1
   4  12   1 18.0434  4.6929   3
  -6 -12  -1 202.963  20.306   1
  -8 -12  -1  4.9633 10.2804   1
 -10 -12  -1 -8.9512 11.2327   1
 -12 -12  -1 25.6695 18.6170   1
 -14 -12  -1  5.4457 17.2585   1
 -15  13   1 28.1571 11.2622   2
 -13  13   1 33.3427 10.5636   2
 -11  13   1 5.82153 7.49276   2
  -9  13   1 7.05183 6.56299   2
  -9  13   1  7.0718 14.6248   1
  -7  13   1 338.947  25.828   1
  -7  13   1 314.003  19.127   2
  -5  13   1  4.9138 10.4147   1
  -3  13   1 55.6577 14.5045   1
   1 -13  -1 -1.6493  7.6970   1
  -1 -13  -1 105.856  15.284   1
   1  13   1 106.299   9.779   3
  -3 -13  -1 7.00250 8.90650   1
  -5 -13  -1 19.8722 11.9777   1
  -7 -13  -1 13.4260 11.7316   1
  -9 -13  -1 11.2911 12.4474   1
 -11 -13  -1  1.3295 13.9384   1
 -13 -13  -1 20.4620 19.0903   1
 -14  14   1 3.64263 8.82459   2
 -12  14   1 -0.5977  7.1167   2
 -10  14   1 8.02029 7.72240   2
  -8  14   1 124.211  14.069   2
  -8  14   1 111.546  22.687   1
  -6  14   1 40.4321 15.6791   1
  -4  14   1 2.72861 9.87822   1
   2 -14  -1 55.7205 16.2884   1
  -2  14   1 24.0974 12.2298   1
   0 -14  -1 113.427  16.653   1
   0  14   1 112.311  10.868   3
  -2 -14  -1 24.0476 12.1818   1
  -4 -14  -1 90.1093 19.1075   1
  -6 -14  -1  4.3383 10.7365   1
  -8 -14  -1  7.9340 13.6748   1
 -10 -14  -1  6.3981 14.2287   1
 -12 -14  -1  8.1009 16.9830   1
 -13  15   1 32.4438 10.9588   2
 -11  15   1 15.4221  8.8956   2
  -9  15   1 30.6018  9.5487   2
  -7  15   1 18.7846  8.2543   2
  -7  15   1  7.9268 14.3510   1
  -5  15   1 14.2467 12.9859   1
  -3  15   1 22.6779 13.3577   1
   1 -15  -1 26.7196 13.7415   1
  -1 -15  -1 100.681  20.214   1
  -3 -15  -1  6.3118 10.2450   1
  -5 -15  -1 34.6378 14.6381   1
  -7 -15  -1 37.4355 16.7167   1
  -9 -15  -1 -3.4315 11.8900   1
 -11 -15  -1 17.4187 18.0586   1
 -12  16   1 13.6786  9.7427   2
 -10  16   1 4.11068 7.30658   2
  -8  16   1 25.2584  9.3407   2
  -6  16   1 13.6874 13.8500   1
  -6  16   1 11.5708  7.6306   2
  -4  16   1 21.6775 14.1250   1
   2 -16  -1 2.28242 9.73118   1
  -2  16   1 -1.1153 10.6992   1
   0 -16  -1 14.8048 12.0098   1
  -2 -16  -1  8.6754 11.5928   1
  -4 -16  -1 10.5754 11.9547   1
  -6 -16  -1 -3.1672  9.8675   1
  -8 -16  -1 19.1855 15.0580   1
 -10 -16  -1  5.4239 14.6304   1
 -11  17   1 0.51947 7.78090   2
  -9  17   1 18.1963  9.3380   2
  -7  17   1 -0.5054  6.7343   2
  -5  17   1 73.3105 19.9636   1
  -3  17   1 15.8711 13.9865   1
   1 -17  -1 88.2909 21.3959   1
  -1 -17  -1 128.836  24.585   1
  -3 -17  -1 41.8888 17.0612   1
  -5 -17  -1  7.5312 11.7156   1
  -7 -17  -1 21.4036 15.6865   1
  -9 -17  -1 11.6665 14.8051   1
 -10  18   1 9.41720 9.42888   2
  -8  18   1 0.34394 7.56636   2
  -6  18   1 4.58974 7.41711   2
  -4  18   1 25.5949 15.5453   1
   2 -18  -1 181.242  23.296   1
  -2  18   1 191.924  22.465   1
   0 -18  -1  0.8905 11.3037   1
  -2 -18  -1 39.0996 17.0922   1
  -4 -18  -1  8.4281 12.9272   1
  -6 -18  -1  5.8971 13.0644   1
  -8 -18  -1 11.4265 16.1750   1
  -9  19   1 -5.2112  7.9080   2
  -7  19   1 9.43633 8.62644   2
  -5  19   1 6.58493 7.56526   2
  -3  19   1 114.919  24.162   1
   1 -19  -1 33.0233 17.8361   1
  -1 -19  -1  5.0579 13.3145   1
  -3 -19  -1 37.3217 17.9429   1
  -5 -19  -1  3.9329 13.3703   1
  -7 -19  -1  2.1919 13.6265   1
  -8  20   1 1.36268 8.58313   2
  -6  20   1 4.16732 8.38513   2
  -4  20   1 79.8995 13.1481   2
  -2  20   1 -1.9985 13.7969   1
   0 -20  -1  0.1258 12.6851   1
  -2 -20  -1  7.4111 15.2203   1
  -4 -20  -1  5.6672 13.8678   1
  -6 -20  -1  2.8361 12.8665   1
  -7  21   1 0.55053 8.49042   2
  -5  21   1 0.01168 7.73038   2
   1 -21  -1 15.3752 16.4787   1
  -1  21   1 42.9212 20.0073   1
  -1 -21  -1 -2.0011 13.4822   1
  -3 -21  -1 -0.6383 13.8465   1
  -5 -21  -1  2.8078 14.0505   1
  -6  22   1 7.16935 9.45785   2
   0 -22  -1 26.5521 18.9267   1
  -2 -22  -1  3.7896 14.7681   1
  -4 -22  -1  4.5374 15.9794   1
  -1 -23  -1 -1.8930 15.6749   1
  -6 -22   2 37.0118 20.0905   1
  -7 -21   2 38.3720 18.6904   1
  -5 -21   2 14.5394 15.4688   1
  -3  21  -2 72.0203 14.5254   3
  -7  21  -2 17.1030 10.2363   2
  -8 -20   2 31.0973 19.0091   1
  -6 -20   2 29.9994 18.4044   1
  -4 -20   2 36.8338 17.9901   1
  -2  20  -2 106.346  16.093   3
  -4  20  -2 73.3192 14.2480   3
  -6  20  -2 47.7104 11.6461   2
  -8  20  -2 36.6123 11.8643   2
  -9 -19   2 55.5647 21.5187   1
  -7 -19   2 59.5689 21.3038   1
  -5 -19   2 72.7884 20.9011   1
  -3 -19   2 113.689  23.675   1
   1  19  -2 146.067  17.490   3
  -1  19  -2 111.776  15.729   3
  -3  19  -2 119.065  16.101   3
  -5  19  -2 124.793  14.644   2
  -7  19  -2 44.1894 11.1345   2
  -9  19  -2 113.762  16.461   2
 -10 -18   2 83.6074 25.0474   1
  -8 -18   2 91.8734 24.3904   1
  -6 -18   2 151.898  26.491   1
  -4 -18   2 65.2627 18.0873   1
   2  18  -2 108.302  15.221   3
  -2 -18   2 102.746  22.622   1
   0  18  -2 82.1671 13.4428   3
  -2  18  -2 37.3191 10.4181   3
  -4  18  -2 173.267  15.286   2
  -6  18  -2 112.086  14.157   2
  -8  18  -2 80.4363 13.5228   2
 -10  18  -2 28.5530 11.2091   2
 -11 -17   2 35.5570 17.8217   1
  -9 -17   2 74.3188 20.2044   1
  -7 -17   2 145.751  26.407   1
   5  17  -2 47.6968 10.2591   3
  -5 -17   2 58.3689 17.2829   1
   3  17  -2 391.009  23.762   3
  -3 -17   2 347.734  28.328   1
   1  17  -2 68.0019 12.5489   3
  -1 -17   2 83.6409 19.5457   1
  -1  17  -2 18.9511  8.3698   3
  -3  17  -2 58.1644  9.3814   2
  -5  17  -2 98.8793 12.4253   2
  -7  17  -2 178.322  16.922   2
  -9  17  -2 45.2672 11.4888   2
 -11  17  -2  9.4736 10.0325   2
 -12 -16   2 42.7779 21.2360   1
 -10 -16   2 61.3827 17.3797   1
  -8 -16   2 101.944  21.470   1
   6  16  -2 32.2820  8.4946   3
  -6 -16   2 42.9364 16.0803   1
   4  16  -2 363.160  21.788   3
  -4 -16   2 349.496  27.397   1
   2  16  -2 474.579  26.083   3
  -2 -16   2 450.421  30.065   1
   0  16  -2 24.4333  8.3215   3
   0 -16   2 32.5890 14.4908   1
  -2  16  -2 165.908  13.151   2
  -4  16  -2 44.8224  8.7500   2
  -6  16  -2 220.234  17.150   2
  -8  16  -2 220.173  18.529   2
 -10  16  -2 46.1615 11.8540   2
 -12  16  -2 37.4238 12.4052   2
 -11 -15   2 43.7490 19.4121   1
   9  15  -2 208.425  17.583   3
  -9 -15   2 191.820  23.718   1
   7  15  -2 112.674  12.484   3
  -7 -15   2 121.437  18.460   1
   5  15  -2 197.569  15.873   3
  -5 -15   2 177.966  20.352   1
   3  15  -2 203.683  16.542   3
  -3 -15   2 185.929  19.634   1
   1  15  -2 185.642  16.350   3
  -1 -15   2 157.410  17.834   1
  -1  15  -2 267.487  19.762   3
  -1  15  -2 260.789  14.514   2
   1 -15   2 275.528  22.874   1
  -3  15  -2 204.989  14.220   2
  -5  15  -2 102.111  11.795   2
  -7  15  -2 302.150  20.094   2
  -9  15  -2 125.119  15.351   2
 -11  15  -2 20.2410 10.3205   2
 -13  15  -2 30.6073 12.1324   2
 -12 -14   2 27.8640 14.3335   1
  10  14  -2 141.184  15.394   3
   8  14  -2 325.456  19.394   3
  -8 -14   2 365.585  29.367   1
   6  14  -2 43.9021  8.5402   3
  -6 -14   2 62.7391 17.2630   1
   4  14  -2 106.686  11.922   3
  -4 -14   2 129.659  16.969   1
   2  14  -2 20.7315  7.2428   3
  -2 -14   2 9.47829 9.16817   1
   0  14  -2 695.310  29.777   3
   0  14  -2 707.735  21.296   2
   0 -14   2 672.096  33.084   1
  -2  14  -2 425.849  18.228   2
  -4  14  -2 95.3204 10.4623   2
  -6  14  -2 134.655  13.086   2
  -8  14  -2 231.113  18.047   2
 -10  14  -2 56.9093 12.1210   2
 -12  14  -2 -3.0656  8.1072   2
 -13 -13   2 97.8989 26.2771   1
   9  13  -2 289.900  18.789   3
  -9 -13   2 258.895  25.485   1
   7  13  -2 5.44483 5.31357   3
  -7 -13   2 10.3501 11.1577   1
   5  13  -2 162.993  13.233   3
  -5 -13   2 181.451  18.794   1
   3  13  -2 117.745  12.012   3
  -3 -13   2 118.540  15.284   1
   1  13  -2 616.228  17.854   2
   1  13  -2 651.925  27.280   3
  -1 -13   2 641.382  31.044   1
  -1  13  -2 386.875  16.066   2
   1 -13   2 384.969  24.069   1
  -3  13  -2 179.943  12.439   2
  -5  13  -2 74.8046  9.7982   2
  -7  13  -2 137.696  13.725   2
  -9  13  -2 120.603  14.544   2
 -11  13  -2 105.546  14.962   2
 -13  13  -2 13.9288  9.9046   2
 -14 -12   2 39.2547 19.7753   1
 -12 -12   2 177.991  24.823   1
  10  12  -2 296.571  19.623   3
 -10 -12   2 311.784  29.260   1
   8  12  -2 5.24511 5.62269   3
  -8 -12   2  6.0819 10.2837   1
   6  12  -2 235.359  15.100   3
  -6 -12   2 260.157  21.734   1
   4  12  -2 114.421  11.099   3
  -4 -12   2 110.137  14.255   1
   2  12  -2 776.692  28.386   3
  -2 -12   2 697.646  30.963   1
   0  12  -2 595.487  17.860   2
   0  12  -2 588.468  25.655   3
   0 -12   2 585.730  27.957   1
  -2  12  -2 136.735  10.047   2
  -2  12  -2 130.146  12.978   1
   2 -12   2 134.827  14.448   1
  -4  12  -2 104.148  10.003   2
  -6  12  -2 295.878  17.112   2
  -8  12  -2 153.212  14.417   2
 -10  12  -2 124.644  14.952   2
 -12  12  -2 195.555  18.735   2
 -14  12  -2 -3.8966  8.8849   2
 -15 -11   2  6.4290 18.2235   1
 -13 -11   2 107.243  25.736   1
 -11 -11   2 283.883  27.895   1
   9  11  -2 74.4872 10.8693   3
  -9 -11   2 47.3365 17.7814   1
   5  11  -2 123.194  10.935   3
  -5 -11   2 149.346  16.041   1
   3  11  -2 256.516  15.398   3
  -3 -11   2 257.555  18.616   1
   1  11  -2 359.977  12.319   2
   1  11  -2 377.042  19.359   3
  -1 -11   2 354.786  20.800   1
  -1  11  -2 896.865  22.470   2
   1 -11   2 891.094  32.391   1
  -3  11  -2 98.7364  8.9175   2
  -3  11  -2 90.7461 10.7312   1
  -5  11  -2 271.569  15.393   2
  -7  11  -2 217.909  15.630   2
  -9  11  -2 186.043  16.070   2
 -11  11  -2 206.754  18.273   2
 -13  11  -2 109.783  15.854   2
 -15  11  -2 1.66331 9.62236   2
 -14 -10   2 112.962  26.584   1
 -12 -10   2 127.954  24.818   1
 -10 -10   2 229.114  23.759   1
   8  10  -2 157.647  13.959   3
  -8 -10   2 195.469  20.771   1
   6  10  -2 873.456  26.399   3
   4  10  -2 239.734  14.170   3
  -4 -10   2 234.405  17.678   1
   2  10  -2 289.934  15.977   3
   2  10  -2 283.933   9.304   2
  -2 -10   2 300.845  18.668   1
   0  10  -2 1004.62   31.04   3
   0  10  -2 974.281  21.135   2
   0 -10   2 1034.76   33.18   1
  -2  10  -2 491.753  20.598   1
  -2  10  -2 503.236  16.979   2
   2 -10   2 469.635  22.101   1
  -4  10  -2 394.583  16.739   2
  -4  10  -2 354.360  17.995   1
  -6  10  -2 105.364  10.615   2
  -8  10  -2 164.607  13.712   2
 -10  10  -2 660.137  28.777   2
 -12  10  -2 128.239  15.675   2
 -14  10  -2 60.4737 13.6165   2
 -15  -9   2 116.928  26.331   1
 -13  -9   2 221.539  25.524   1
 -11  -9   2 154.462  20.445   1
   9   9  -2 2.56225 5.78534   3
  -9  -9   2  5.5260 11.7739   1
   7   9  -2 278.385  15.691   3
  -7  -9   2 258.857  21.208   1
   3   9  -2 241.601   6.825   2
   3   9  -2 265.057  14.214   3
  -3  -9   2 255.625  16.776   1
   1   9  -2 375.214  11.039   2
   1   9  -2 382.868  17.692   3
  -1  -9   2 368.911  18.701   1
  -1   9  -2 313.590  12.017   2
   1  -9   2 316.040  17.026   1
  -3   9  -2 69.5593 10.4777   1
  -3   9  -2 57.5777  6.5803   2
  -5   9  -2 568.023  21.475   1
  -5   9  -2 561.811  20.344   2
  -7   9  -2 8.47821 5.42032   2
  -9   9  -2 345.216  19.879   2
 -11   9  -2 337.223  20.749   2
 -13   9  -2 60.1851 12.5932   2
 -15   9  -2 14.2177 10.4156   2
 -16  -8   2 94.1923 23.8012   1
 -14  -8   2 119.831  23.352   1
 -12  -8   2 262.475  24.861   1
 -10  -8   2  4.8470 11.3886   1
   8   8  -2 636.254  24.378   3
  -8  -8   2 660.105  32.090   1
  -4  -8   2 175.519  14.473   1
   2   8  -2 215.838  12.508   3
   2   8  -2 219.215   6.824   2
  -2  -8   2 226.872  14.202   1
   0   8  -2 50.1140  4.6177   2
   0  -8   2 63.6131  7.9928   1
  -2   8  -2 429.202  14.175   2
  -2   8  -2 430.171  17.070   1
   2  -8   2 424.074  18.074   1
  -4   8  -2 1075.97   27.92   1
  -4   8  -2 1139.75   26.80   2
  -6   8  -2 386.082  16.587   1
  -6   8  -2 404.245  17.715   2
  -8   8  -2 30.8031  7.4598   2
 -10   8  -2 104.698  12.499   2
 -12   8  -2 157.204  16.011   2
 -14   8  -2 126.655  16.283   2
 -16   8  -2 24.1702 11.2537   2
 -15  -7   2 110.989  23.072   1
 -13  -7   2 150.373  19.924   1
 -11  -7   2 110.042  20.980   1
  -9  -7   2 648.488  31.780   1
  -7  -7   2 197.869  16.561   1
   5   7  -2 716.484  22.066   3
  -5  -7   2 736.957  27.853   1
   1   7  -2 530.721  11.250   2
   1   7  -2 521.833  18.535   3
  -1  -7   2 526.339  18.927   1
  -1   7  -2 9.96991 2.62968   2
   1  -7   2 13.9125  5.3320   1
  -3   7  -2 6871.04   73.98   2
  -3   7  -2 6777.49   86.69   1
  -5   7  -2 938.301  24.513   1
  -5   7  -2 933.627  24.648   2
  -7   7  -2 392.125  16.810   1
  -7   7  -2 412.910  18.371   2
  -9   7  -2 8.48801 5.98385   2
 -11   7  -2 191.020  15.888   2
 -13   7  -2 138.245  15.596   2
 -15   7  -2 190.222  18.806   2
 -16  -6   2 151.497  22.579   1
 -14  -6   2 254.379  24.926   1
 -12  -6   2 239.848  22.661   1
 -10  -6   2 111.875  19.778   1
   8   6  -2 352.120  18.064   3
  -8  -6   2 351.159  22.017   1
   6   6  -2 322.170  15.219   3
  -6  -6   2 297.555  18.253   1
   0   6  -2 69.3124  4.4417   2
   0  -6   2 69.9027  6.4981   1
  -2   6  -2 389.163  12.260   2
  -2   6  -2 400.976  13.506   1
  -4   6  -2 2837.43   42.00   2
  -4   6  -2 2910.83   44.79   1
  -6   6  -2 431.916  15.798   1
  -6   6  -2 424.486  17.004   2
  -8   6  -2 138.991  11.634   2
  -8   6  -2 138.777  12.573   1
 -10   6  -2 46.7650  8.8717   2
 -12   6  -2 193.902  16.345   2
 -14   6  -2 85.5359 13.1890   2
 -16   6  -2 95.1146 14.4402   2
 -17  -5   2 20.6438 17.8408   1
 -15  -5   2 328.982  28.796   1
 -13  -5   2 374.387  27.576   1
 -11  -5   2 49.7959 15.6353   1
  -9  -5   2 212.914  17.915   1
   7   5  -2 500.683  19.796   3
  -7  -5   2 536.708  24.120   1
   5   5  -2 1379.23   30.49   3
  -5  -5   2 1423.65   35.03   1
   1   5  -2 21.0489  3.9546   3
  -1  -5   2 9.81164 3.44730   1
  -1   5  -2 127.287   6.042   2
   1  -5   2 119.742   7.026   1
  -3   5  -2 366.140  12.261   2
  -3   5  -2 363.988  11.421   1
  -5   5  -2 427.243  15.388   2
  -5   5  -2 444.174  14.298   1
  -7   5  -2 366.642  15.974   2
  -7   5  -2 368.250  16.767   1
  -9   5  -2 571.615  24.088   1
  -9   5  -2 597.254  22.527   2
 -11   5  -2 -0.3232  5.6594   2
 -13   5  -2 154.713  15.043   2
 -15   5  -2 40.7217 10.6531   2
 -16  -4   2 40.5452 19.9517   1
 -14  -4   2 266.471  24.141   1
 -12  -4   2 40.6071 15.4512   1
 -10  -4   2 415.657  25.030   1
  -2  -4   2 8.12055 3.52958   1
   0   4  -2 4.76184 1.53214   2
   0  -4   2 4.23645 2.14484   1
  -2   4  -2 890.198  16.071   1
  -2   4  -2 886.428  16.966   2
  -4   4  -2 980.588  21.045   2
  -4   4  -2 1018.12   19.60   1
  -6   4  -2 279.490  12.698   2
  -6   4  -2 288.403  13.466   1
  -8   4  -2 497.455  18.973   2
  -8   4  -2 510.667  21.232   1
 -10   4  -2 240.493  18.841   1
 -10   4  -2 217.076  14.348   2
 -12   4  -2 23.4633  7.6903   2
 -14   4  -2 147.995  14.701   2
 -16   4  -2 18.6686  9.0585   2
 -17  -3   2 112.908  24.900   1
 -15  -3   2 46.4420 18.3767   1
 -13  -3   2  0.2257 12.9030   1
 -11  -3   2 639.171  31.044   1
  -9  -3   2 214.912  17.400   1
  -9  -3   2 246.860   9.281   2
   5   3  -2 24.0833  4.6439   3
  -3  -3   2 29.0402  6.6509   1
   1   3  -2 166.730   7.991   3
  -1   3  -2 1337.55   18.90   2
  -3   3  -2 27.0015  3.5240   2
  -5   3  -2 1321.75   26.73   1
  -5   3  -2 1327.94   25.52   2
  -7   3  -2 305.979  13.643   2
  -7   3  -2 291.943  15.184   1
  -9   3  -2 316.041  19.127   1
  -9   3  -2 304.848  15.274   2
 -11   3  -2 342.004  22.741   1
 -11   3  -2 311.890  16.953   2
 -13   3  -2 110.708  12.332   2
 -15   3  -2 27.8045  9.3816   2
 -16  -2   2 108.930  24.545   1
 -14  -2   2 100.185  21.990   1
 -12  -2   2 525.784  29.451   1
 -10  -2   2 621.656  16.194   2
 -10  -2   2 502.889  26.148   1
  -8  -2   2 213.651   8.444   2
  -6  -2   2 166.445   6.338   2
  -6  -2   2 154.929  12.177   1
  -2   2  -2 210.934   7.223   2
  -4   2  -2 108.885   6.416   2
  -6   2  -2 1696.29   34.48   1
  -6   2  -2 1623.55   29.28   2
  -8   2  -2 991.012  30.005   1
  -8   2  -2 967.477  24.472   2
 -10   2  -2 238.084  18.372   1
 -10   2  -2 248.888  14.104   2
 -12   2  -2 268.261  21.905   1
 -12   2  -2 252.077  15.375   2
 -14   2  -2 86.9299 11.1656   2
 -17  -1   2 50.8495 22.0973   1
 -15  -1   2 38.3681 18.3243   1
 -13  -1   2 276.844  23.370   1
 -11  -1   2 630.868  18.458   2
 -11  -1   2 617.416  29.981   1
  -9  -1   2 862.667  19.636   2
  -9  -1   2 878.516  31.713   1
  -7  -1   2 27.7557  9.3159   1
  -7  -1   2 36.3656  4.1170   2
  -5  -1   2 281.757  14.130   1
  -1  -1   2 323.116   8.765   1
  -1   1  -2 4094.28   39.59   2
  -3   1  -2 393.764  11.095   1
  -3   1  -2 445.999  11.020   2
  -5   1  -2 14.0196  3.3596   2
  -5   1  -2 6.09952 5.55039   1
  -7   1  -2 1175.83   24.79   2
  -7   1  -2 1185.98   31.00   1
  -9   1  -2 411.599  16.130   2
  -9   1  -2 428.503  21.671   1
 -11   1  -2 200.073  18.427   1
 -11   1  -2 184.510  12.382   2
 -13   1  -2 55.1157  8.7871   2
 -13   1  -2 51.8277 18.6940   1
 -15   1  -2 62.9574 10.2997   2
 -16   0   2 58.2288 20.6777   1
 -14   0   2 16.6260 16.0508   1
 -12   0   2 709.431  33.745   1
 -12   0   2 705.176  21.595   2
 -10   0   2 959.193  23.258   2
 -10   0   2 1010.07   35.53   1
  -8   0   2 485.025  22.163   1
  -8   0   2 457.947  14.562   2
  -6   0   2 29.9972  8.3740   1
  -4   0   2 12.2541  5.0763   1
  -2   0   2 1165.03   22.67   1
   0   0   2 9286.46  118.70   1
  -2   0  -2 205.721   6.901   2
  -2   0  -2 204.259   7.934   1
  -4   0  -2 17.8960  2.8303   2
  -4   0  -2 14.2394  4.7605   1
  -6   0  -2 14.3265  3.5223   2
  -6   0  -2 15.5688  7.1287   1
  -8   0  -2 47.9359  6.0102   2
  -8   0  -2 54.4678 11.4407   1
 -10   0  -2 282.580  19.987   1
 -10   0  -2 256.135  13.163   2
 -12   0  -2 85.9640  9.7173   2
 -12   0  -2 95.9338 20.5622   1
 -14   0  -2 -0.9878  5.3907   2
 -17   1   2 71.2943 23.8253   1
 -15   1   2 51.3204 19.7264   1
 -13   1   2 304.717  15.959   2
 -13   1   2 283.197  23.316   1
 -11   1   2 621.436  20.524   2
 -11   1   2 623.099  29.437   1
  -9   1   2 919.562  31.865   1
  -9   1   2 850.537  22.301   2
  -7   1   2 29.7423  8.8263   1
  -7   1   2 39.2685  5.2173   2
  -5   1   2 723.126  20.988   1
  -3   1   2 310.824  12.974   1
   1  -1  -2 7757.91   69.96   2
  -1   1   2 7806.89   96.90   1
  -1  -1  -2 3830.65   51.84   1
  -1  -1  -2 3592.58   37.01   2
  -3  -1  -2 432.872  10.740   2
  -3  -1  -2 425.991  14.357   1
  -5  -1  -2 13.4280  6.2564   1
  -5  -1  -2 17.1083  3.3696   2
  -7  -1  -2 1124.97   31.80   1
  -7  -1  -2 1054.94   22.08   2
  -9  -1  -2 381.517  14.636   2
  -9  -1  -2 404.565  22.288   1
 -11  -1  -2 184.486  12.285   2
 -11  -1  -2 212.132  19.603   1
 -13  -1  -2 52.3789 18.7350   1
 -13  -1  -2 46.4936  8.2118   2
 -16   2   2 131.852  26.871   1
 -14   2   2 103.790  22.314   1
 -12   2   2 565.736  21.151   2
 -12   2   2 569.386  29.778   1
 -10   2   2 595.254  27.263   1
 -10   2   2 580.391  20.032   2
  -8   2   2 215.233  11.573   2
  -8   2   2 202.865  14.097   1
  -6   2   2 170.319  11.504   1
  -4   2   2 795.068  23.285   1
  -2   2   2 6977.69   87.00   1
   0  -2  -2 959.936  22.968   1
   0  -2  -2 1009.24   17.11   2
  -2  -2  -2 197.272   7.310   2
  -2  -2  -2 197.264  10.084   1
  -4  -2  -2 103.176   6.143   2
  -4  -2  -2 98.0396  8.6239   1
  -6  -2  -2 1494.08   25.49   2
  -6  -2  -2 1532.66   37.26   1
  -8  -2  -2 869.010  21.030   2
  -8  -2  -2 902.934  31.359   1
 -10  -2  -2 223.189  18.883   1
 -10  -2  -2 233.527  12.721   2
 -12  -2  -2 243.310  22.329   1
 -12  -2  -2 229.886  13.675   2
 -14  -2  -2 61.3000 20.2479   1
 -17   3   2 181.727  31.537   1
 -15   3   2 94.4369 22.7365   1
 -13   3   2 2.47558 5.03080   2
 -13   3   2  4.8858 14.1847   1
 -11   3   2 726.717  31.797   1
 -11   3   2 703.768  23.870   2
  -9   3   2 225.463  13.083   2
  -9   3   2 246.496  16.507   1
  -7   3   2 1191.61   32.14   1
  -5   3   2 26.7089  8.4609   1
  -3   3   2 3493.28   55.74   1
   1  -3  -2 169.870   7.774   2
  -1   3   2 187.810  10.474   1
  -1  -3  -2 1207.27   19.75   2
  -1  -3  -2 1177.08   28.04   1
  -3  -3  -2 21.4644  6.0596   1
  -3  -3  -2 21.8122  3.4044   2
  -5  -3  -2 1150.68   31.88   1
  -5  -3  -2 1155.62   20.83   2
  -7  -3  -2 256.481  11.041   2
  -7  -3  -2 257.274  17.225   1
  -9  -3  -2 263.238  19.712   1
  -9  -3  -2 247.191  12.016   2
 -11  -3  -2 261.840  22.522   1
 -11  -3  -2 287.036  14.267   2
 -13  -3  -2 107.228  23.161   1
 -15  -3  -2 44.4780 21.0573   1
 -16   4   2 83.3639 23.0324   1
 -14   4   2 314.253  26.284   1
 -14   4   2 298.071  18.373   2
 -12   4   2 34.6825  7.8354   2
 -12   4   2 39.6261 15.5439   1
 -10   4   2 489.494  20.138   2
 -10   4   2 495.348  24.404   1
  -8   4   2 687.416  25.821   1
  -8   4   2 617.654  20.981   2
  -6   4   2 1661.68   41.24   1
  -4   4   2 980.215  28.693   1
  -2   4   2 274.455  13.664   1
   0  -4  -2 4.96246 2.26133   2
   0  -4  -2 6.35178 4.45633   1
  -2  -4  -2 815.170  24.860   1
  -2  -4  -2 799.878  16.493   2
  -4  -4  -2 822.236  16.986   2
  -4  -4  -2 841.521  26.576   1
  -6  -4  -2 248.337  16.640   1
  -6  -4  -2 240.813  10.355   2
  -8  -4  -2 428.354  15.019   2
  -8  -4  -2 435.424  24.242   1
 -10  -4  -2 185.190  19.212   1
 -10  -4  -2 164.345  11.377   2
 -12  -4  -2 26.1572 16.1678   1
 -14  -4  -2 124.984  26.286   1
 -16  -4  -2 14.7734 19.7454   1
 -17   5   2 24.8257 22.3332   1
 -15   5   2 366.872  21.740   2
 -15   5   2 350.020  28.980   1
 -13   5   2 376.704  20.238   2
 -13   5   2 305.657  24.978   1
 -11   5   2 44.1048 14.1398   1
 -11   5   2 18.9808  6.7223   2
  -9   5   2 231.052  16.884   1
  -9   5   2 201.677  13.451   2
  -7   5   2 523.428  24.344   1
  -5   5   2 1485.63   38.82   1
  -3   5   2 1241.56   32.81   1
   1  -5  -2 26.5956  7.1517   1
  -1  -5  -2 113.127   6.966   2
  -1  -5  -2 112.862  10.381   1
  -3  -5  -2 310.137  10.842   2
  -3  -5  -2 315.673  16.622   1
  -5  -5  -2 357.052  19.175   1
  -5  -5  -2 370.053  12.204   2
  -7  -5  -2 299.985  12.229   2
  -7  -5  -2 298.815  20.013   1
  -9  -5  -2 459.993  16.528   2
  -9  -5  -2 442.739  26.933   1
 -11  -5  -2  7.7914 13.2105   1
 -13  -5  -2 154.086  21.790   1
 -15  -5  -2 64.0823 23.0232   1
 -16   6   2 165.814  29.827   1
 -16   6   2 164.890  16.762   2
 -14   6   2 169.923  22.077   1
 -12   6   2 240.747  16.613   2
 -12   6   2 213.696  20.090   1
 -10   6   2 95.7774 13.7514   1
 -10   6   2 90.9884 10.1738   2
  -8   6   2 366.598  21.749   1
  -6   6   2 349.030  20.362   1
  -4   6   2 1756.54   42.73   1
  -2   6   2 571.680  22.382   1
   0  -6  -2 58.0929  8.6596   1
   0  -6  -2 62.5782  6.1661   2
  -2  -6  -2 351.600  12.368   2
  -2  -6  -2 358.270  18.537   1
  -4  -6  -2 2355.36   52.10   1
  -4  -6  -2 2471.78   34.58   2
  -6  -6  -2 344.660  12.683   2
  -6  -6  -2 364.118  21.118   1
  -8  -6  -2 115.720   9.165   2
  -8  -6  -2 115.507  15.440   1
 -10  -6  -2 52.5688 16.6673   1
 -12  -6  -2 160.530  21.800   1
 -14  -6  -2 83.7900 23.8751   1
 -16  -6  -2 117.239  30.020   1
 -17   7   2 73.2605 14.1271   2
 -15   7   2 159.015  16.698   2
 -15   7   2 162.112  28.965   1
 -13   7   2 97.5004 21.0938   1
 -13   7   2 157.274  14.875   2
 -11   7   2 86.6197 17.9919   1
 -11   7   2 96.9165 11.5478   2
  -9   7   2 635.396  24.160   2
  -9   7   2 680.218  29.758   1
  -7   7   2 565.721  27.402   1
  -5   7   2 756.881  29.596   1
  -3   7   2 358.056  19.213   1
   1  -7  -2 577.921  25.878   1
  -1  -7  -2 14.3821  7.2889   1
  -1  -7  -2 11.3317  3.6441   2
  -3  -7  -2 6054.18   97.49   1
  -3  -7  -2 6093.99   66.87   2
   3   7   2 6186.80   65.17   3
  -5  -7  -2 732.433  29.933   1
  -5  -7  -2 746.748  18.374   2
  -7  -7  -2 302.625  12.615   2
  -7  -7  -2 303.766  21.645   1
  -9  -7  -2 -2.2158 11.2469   1
 -11  -7  -2 162.029  20.913   1
 -13  -7  -2 122.631  26.651   1
 -15  -7  -2 157.185  31.920   1
 -16   8   2 101.802  27.799   1
 -16   8   2 118.772  16.115   2
 -14   8   2 82.3196 22.4480   1
 -14   8   2 133.388  15.343   2
 -12   8   2 251.051  17.994   2
 -12   8   2 196.339  20.585   1
 -10   8   2  8.4458 11.8113   1
 -10   8   2 -1.6157  4.5656   2
  -8   8   2 692.321  32.710   1
  -6   8   2 315.080  21.685   1
  -4   8   2 421.735  22.458   1
   2  -8  -2 231.667  17.605   1
  -2   8   2 228.853  16.408   1
   0  -8  -2 72.4580 13.1139   1
  -2  -8  -2 385.248  15.152   2
  -2  -8  -2 381.716  21.714   1
   2   8   2 385.461  10.054   3
  -4  -8  -2 938.837  21.911   2
  -4  -8  -2 891.492  33.882   1
  -6  -8  -2 304.689  21.376   1
  -6  -8  -2 303.139  12.398   2
  -8  -8  -2 28.1184 13.3948   1
  -8  -8  -2 17.1294  4.7331   2
 -10  -8  -2 73.9755 19.7432   1
 -12  -8  -2 100.402  24.824   1
 -14  -8  -2 101.452  26.894   1
 -15   9   2 146.775  16.651   2
 -13   9   2 142.638  19.747   1
 -11   9   2 118.560  17.192   1
 -11   9   2 155.499  14.443   2
  -9   9   2  1.0085 13.2795   1
  -9   9   2 10.0960  5.9165   2
  -7   9   2 317.115  23.380   1
  -5   9   2 832.149  33.082   1
  -3   9   2 260.905  18.241   1
   1  -9  -2 384.908  23.654   1
  -1  -9  -2 272.343  19.789   1
   1   9   2 296.578  10.002   3
  -3  -9  -2 56.1671 12.2861   1
  -3  -9  -2 52.4650  6.7377   2
   3   9   2 45.2157  4.8329   3
  -5  -9  -2 449.371  15.585   2
  -5  -9  -2 448.443  25.722   1
  -7  -9  -2 9.93131 3.86906   2
  -7  -9  -2  7.7839 10.2901   1
  -9  -9  -2 239.663  23.001   1
 -11  -9  -2 242.858  25.698   1
 -13  -9  -2 52.3712 21.9139   1
 -15  -9  -2 25.9775 20.3386   1
 -16  10   2 4.65087 9.24960   2
 -14  10   2 110.754  14.766   2
 -14  10   2 45.8381 19.6902   1
 -12  10   2 69.7715 19.4944   1
 -12  10   2 124.070  14.414   2
 -10  10   2 181.904  20.744   1
 -10  10   2 198.820  15.622   2
  -8  10   2 134.463  17.917   1
  -6  10   2 1017.25   39.51   1
  -4  10   2 259.982  19.425   1
   2 -10  -2 298.189  22.126   1
   0 -10  -2 1020.34   39.92   1
   0  10   2 1094.07   23.99   3
  -2 -10  -2 463.444  26.523   1
   2  10   2 456.092  12.891   3
  -4 -10  -2 296.626  14.180   2
  -4 -10  -2 303.283  21.938   1
  -6 -10  -2 110.144  18.617   1
  -6 -10  -2 87.8056  7.8346   2
  -8 -10  -2 117.512  16.978   1
 -10 -10  -2 454.808  32.207   1
 -12 -10  -2 114.493  25.811   1
 -14 -10  -2 50.7708 22.6342   1
 -15  11   2 9.35841 8.83291   2
 -13  11   2 35.1972 18.4685   1
 -13  11   2 80.3883 13.0096   2
 -11  11   2 276.895  19.004   2
 -11  11   2 244.751  23.610   1
  -9  11   2 77.5507 11.0325   2
  -9  11   2 52.2525 18.0610   1
  -7  11   2 886.781  39.554   1
  -5  11   2 157.540  17.207   1
  -3  11   2 247.809  19.450   1
   1 -11  -2 376.769  25.650   1
  -1 -11  -2 878.123  38.320   1
   1  11   2 864.325  20.541   3
  -3 -11  -2 61.7867 14.2276   1
  -5 -11  -2 221.425  20.601   1
  -5 -11  -2 205.476  12.503   2
  -7 -11  -2 163.883  18.971   1
  -9 -11  -2 136.414  19.331   1
 -11 -11  -2 162.753  22.191   1
 -13 -11  -2 99.1835 25.7090   1
 -14  12   2 19.1242  9.3156   2
 -12  12   2 186.708  17.515   2
 -12  12   2 108.705  23.981   1
 -10  12   2 187.058  23.797   1
  -8  12   2  3.0790 12.7303   1
  -6  12   2 233.767  21.578   1
  -4  12   2 129.160  15.958   1
   2 -12  -2 766.607  37.787   1
   0 -12  -2 565.602  32.359   1
   0  12   2 606.054  19.363   3
  -2 -12  -2 129.475  16.245   1
  -4 -12  -2 99.7611 14.9913   1
  -6 -12  -2 215.071  21.361   1
  -8 -12  -2 112.555  21.159   1
 -10 -12  -2 100.637  23.034   1
 -12 -12  -2 168.847  29.627   1
 -14 -12  -2 -1.7599 15.3642   1
 -15  13   2 20.0382 10.3379   2
 -13  13   2 77.0980 13.6045   2
 -11  13   2 192.140  17.476   2
 -11  13   2 116.829  25.890   1
  -9  13   2 204.653  23.285   1
  -9  13   2 290.462  19.615   2
  -7  13   2 -0.3302 11.9107   1
  -5  13   2 174.460  19.197   1
  -3  13   2 116.418  15.621   1
   1 -13  -2 634.864  35.878   1
  -1 -13  -2 376.159  27.398   1
  -3 -13  -2 155.969  18.577   1
  -5 -13  -2 65.3506 16.4476   1
  -7 -13  -2 122.770  23.197   1
  -9 -13  -2 102.595  23.549   1
 -11 -13  -2 66.7640 20.5833   1
 -13 -13  -2 14.9333 17.6433   1
 -14  14   2 3.22110 8.43316   2
 -12  14   2 63.9440 12.4641   2
 -10  14   2 147.188  15.844   2
 -10  14   2 34.9485 19.8828   1
  -8  14   2 343.401  28.815   1
  -6  14   2 60.9527 17.7964   1
  -4  14   2 123.110  16.982   1
   2 -14  -2 20.0462 12.4309   1
  -2  14   2 0.81741 9.81983   1
   0 -14  -2 702.735  38.658   1
  -2 -14  -2 357.285  27.690   1
  -4 -14  -2 99.1779 19.2767   1
  -6 -14  -2 133.986  23.155   1
  -8 -14  -2 175.606  22.212   1
 -10 -14  -2 43.7792 19.4278   1
 -12 -14  -2 -2.0433 15.3936   1
 -13  15   2 14.1940  9.6997   2
 -11  15   2 95.5871 14.3483   2
  -9  15   2 74.0578 22.5612   1
  -7  15   2 66.5608 20.3127   1
  -5  15   2 190.828  21.274   1
  -3  15   2 175.233  19.922   1
   1 -15  -2 159.462  20.778   1
  -1 -15  -2 240.415  24.175   1
  -3 -15  -2 166.769  20.298   1
  -5 -15  -2 59.8450 18.1941   1
  -7 -15  -2 225.185  24.377   1
  -9 -15  -2 97.7511 23.2277   1
 -11 -15  -2 14.7880 17.7423   1
 -12  16   2 43.3437 11.6567   2
 -10  16   2 104.892  15.071   2
  -8  16   2 128.166  14.520   2
  -8  16   2 62.1190 21.8414   1
  -6  16   2 48.5753 17.8084   1
  -4  16   2 342.598  27.399   1
   2 -16  -2 473.191  34.365   1
  -2  16   2 403.496  29.669   1
   0 -16  -2 34.7864 15.6548   1
  -2 -16  -2 130.591  19.228   1
  -4 -16  -2 43.5664 16.6125   1
  -6 -16  -2 146.744  20.718   1
  -8 -16  -2 146.640  21.762   1
 -10 -16  -2 40.8095 20.7206   1
 -11  17   2 31.6880 11.0324   2
  -9  17   2 105.989  15.223   2
  -7  17   2 43.3324 19.8235   1
  -5  17   2 47.4190 18.6736   1
  -3  17   2 354.782  28.442   1
   1 -17  -2 62.8516 19.2875   1
  -1 -17  -2 24.8500 14.8666   1
  -3 -17  -2 60.4975 19.3806   1
  -5 -17  -2 55.8138 18.8153   1
  -7 -17  -2 119.459  24.303   1
  -9 -17  -2 36.6432 18.9124   1
 -10  18   2 82.8255 14.7310   2
  -8  18   2 89.0518 14.5577   2
  -6  18   2 140.941  21.349   1
  -4  18   2 90.0929 22.5166   1
  -2  18   2 113.108  24.577   1
   0 -18  -2 112.217  24.861   1
  -2 -18  -2 52.8525 18.9012   1
  -4 -18  -2 149.170  21.967   1
  -6 -18  -2 82.3727 22.6471   1
  -8 -18  -2 73.1637 22.6029   1
  -9  19   2 75.4335 13.8857   2
  -7  19   2 49.9146 12.1524   2
  -5  19   2 84.9703 24.0553   1
  -3  19   2 99.5896 24.3178   1
   1 -19  -2 129.996  27.304   1
  -1  19   2 105.091  24.344   1
  -1 -19  -2 119.883  27.110   1
  -3 -19  -2 106.811  25.094   1
  -5 -19  -2 85.7341 23.2263   1
  -7 -19  -2 28.3982 17.9365   1
  -8  20   2 37.4406 12.0509   2
  -6  20   2 69.2073 13.6884   2
  -4  20   2 52.2371 21.5118   1
  -2  20   2 148.818  28.075   1
   0 -20  -2 92.5116 24.9009   1
  -2 -20  -2 131.137  27.808   1
  -4 -20  -2 76.4750 23.5380   1
  -6 -20  -2 39.4470 19.4163   1
  -7  21   2 74.9578 15.5427   2
  -3  21   2 30.9308 19.6381   1
   1 -21  -2 66.8077 23.7060   1
  -1  21   2 109.318  27.035   1
  -1 -21  -2 60.7900 22.5888   1
  -3 -21  -2 110.894  27.262   1
  -5 -21  -2 41.7411 20.4662   1
  -6  22   2 49.8728 13.4902   2
  -2  22   2 27.3310 19.9984   1
   0  22   2 72.1013 24.2847   1
  -2 -22  -2 65.5903 24.5123   1
  -1  23   2 88.8862 26.7274   1
  -2  22  -3 13.2010  9.9898   3
  -4  22  -3 7.10003 9.42017   3
  -7 -21   3  3.6464 15.6349   1
  -1  21  -3 -2.6786  8.3862   3
  -3  21  -3 0.86547 8.16459   3
  -5  21  -3 -1.0400  7.8912   3
  -8 -20   3  0.0306 13.7235   1
  -6 -20   3 22.1873 16.8005   1
   2  20  -3 4.46910 8.63879   3
   0  20  -3 0.21111 7.63640   3
  -2  20  -3 2.65318 8.49782   3
  -4  20  -3 -4.6275  6.9763   3
  -6  20  -3 -0.5410  7.7124   2
  -8  20  -3 -3.2265  8.5140   2
  -9 -19   3  5.7029 15.0380   1
  -7 -19   3 19.3298 15.7823   1
  -5 -19   3 -1.2830 12.1051   1
   3  19  -3 32.2173 11.1498   3
   1  19  -3 -3.0020  7.0696   3
  -1  19  -3 5.35253 7.74545   3
  -3  19  -3 -2.7930  6.5230   3
  -5  19  -3 -4.8041  6.3436   2
  -7  19  -3 7.58264 8.27156   2
  -9  19  -3 5.06954 8.87188   2
 -10 -18   3  0.5675 13.2755   1
  -8 -18   3 18.3563 16.4307   1
   6  18  -3 -0.8504  6.6289   3
  -6 -18   3  0.4637 12.0828   1
   4  18  -3 1.23015 7.13238   3
  -4 -18   3 -6.5035 10.5346   1
   2  18  -3 59.5108 12.6553   3
   0  18  -3 2.98272 7.34391   3
  -2  18  -3 0.60178 6.93156   3
  -4  18  -3 11.7571  7.2223   2
  -6  18  -3 -3.2307  6.9135   2
  -8  18  -3 2.03127 8.14038   2
 -10  18  -3 11.1754 10.0159   2
 -11 -17   3  3.0420 14.6890   1
  -9 -17   3 -0.9289 13.3360   1
   7  17  -3 -0.0910  6.4791   3
  -7 -17   3 -4.4041 10.5193   1
   5  17  -3 19.7656  8.5300   3
  -5 -17   3 25.1360 14.3470   1
   3  17  -3 42.7778 11.2975   3
   1  17  -3 2.01670 7.16458   3
  -1  17  -3 26.4163  9.3737   3
  -3  17  -3 1.50816 5.46662   2
  -5  17  -3 14.1777  7.7498   2
  -7  17  -3 2.69058 7.54166   2
  -9  17  -3 5.82024 8.40612   2
 -11  17  -3  7.7693 10.1351   2
 -12 -16   3 -5.9110 14.7110   1
  10  16  -3 10.1169  8.9613   3
 -10 -16   3  9.1407 12.5656   1
   8  16  -3 0.89153 6.51281   3
  -8 -16   3 12.4540 13.3864   1
   6  16  -3 6.89593 6.93939   3
  -6 -16   3 28.8960 15.3929   1
   4  16  -3 7.12887 7.17647   3
  -4 -16   3 10.3010 10.3673   1
   2  16  -3 7.04813 7.08564   3
  -2 -16   3 -3.6736  8.1153   1
   0  16  -3 51.4343 11.2833   3
  -2  16  -3 0.14560 6.14951   3
  -2  16  -3 -0.0450  4.3413   2
  -4  16  -3 30.8868  7.8672   2
  -6  16  -3 9.96866 7.14942   2
  -8  16  -3 6.84698 8.25680   2
 -10  16  -3 6.23872 8.53164   2
 -13 -15   3  3.1383 15.8194   1
  11  15  -3 -1.4980  7.5462   3
   9  15  -3 20.3525  8.5832   3
  -9 -15   3 16.5496 11.6407   1
   7  15  -3 59.6947 10.3903   3
  -7 -15   3 68.8966 18.7152   1
   5  15  -3 -1.2155  5.6245   3
  -5 -15   3  3.3170 11.7187   1
   3  15  -3 1.20896 6.05134   3
  -3 -15   3  6.5291 10.2025   1
   1  15  -3 43.2845  9.9632   3
  -1 -15   3 36.9266 13.8155   1
  -1  15  -3 22.8869  8.0376   3
  -1  15  -3 37.3903  6.8008   2
  -3  15  -3 1.47450 4.46378   2
  -5  15  -3 35.8123  8.5473   2
  -7  15  -3 4.23646 6.62751   2
  -9  15  -3 13.2232  8.7394   2
 -11  15  -3 -2.2600  8.4748   2
 -12 -14   3  4.4765 15.4026   1
  10  14  -3 1.82633 7.49680   3
 -10 -14   3 -3.0920 10.9340   1
   8  14  -3 34.8249  8.9328   3
  -8 -14   3 27.1161 13.2136   1
   6  14  -3 0.45719 5.21673   3
  -6 -14   3 -6.3011  9.8974   1
   4  14  -3 6.65780 6.22047   3
  -4 -14   3 14.0488 10.7916   1
   2  14  -3 131.230  14.486   3
  -2 -14   3 137.966  16.124   1
   0  14  -3 70.8314  7.3824   2
   0  14  -3 69.4354 11.3477   3
   0 -14   3 101.404  17.521   1
  -2  14  -3 20.1410  5.5687   2
  -4  14  -3 -1.7603  4.1128   2
  -6  14  -3 27.9183  7.9987   2
  -8  14  -3 7.80483 7.44487   2
 -10  14  -3 2.73969 8.00431   2
 -12  14  -3 7.63191 9.63881   2
 -13 -13   3 13.6175 16.6566   1
  11  13  -3 -2.5374  6.6840   3
 -11 -13   3  4.8509 17.3039   1
   9  13  -3 -2.2403  5.7471   3
  -9 -13   3 4.42484 8.98287   1
   7  13  -3 53.1146  9.1530   3
   5  13  -3 -1.3161  4.6513   3
  -5 -13   3 -1.8457  9.8290   1
   3  13  -3 189.154  15.848   3
  -3 -13   3 202.898  18.475   1
   1  13  -3 177.361  15.616   3
  -1 -13   3 156.031  15.914   1
  -1  13  -3 4.18871 5.60302   3
  -1  13  -3 -0.7327  3.3993   2
   1 -13   3 -2.8871  7.2497   1
  -3  13  -3 6.59858 4.54200   2
  -5  13  -3 19.1748  6.5745   2
  -7  13  -3 53.6548 10.1100   2
  -9  13  -3 2.73933 7.32901   2
 -11  13  -3 -1.7416  8.0762   2
 -13  13  -3 -5.1282  8.2100   2
 -14 -12   3  0.9738 17.1408   1
 -12 -12   3 -8.7791 12.7562   1
  10  12  -3 18.9233  8.2173   3
 -10 -12   3 -2.7721 13.9511   1
   8  12  -3 61.5195 10.1879   3
  -8 -12   3 -8.4961 11.5906   1
   6  12  -3 23.8817  7.4504   3
  -6 -12   3 12.3853 11.7863   1
   4  12  -3 194.342  15.116   3
  -4 -12   3 179.380  17.342   1
   2  12  -3 -1.9508  4.3738   3
  -2 -12   3 -2.0375  6.5635   1
   0  12  -3 249.437  11.076   2
   0  12  -3 217.140  16.754   3
   0 -12   3 239.755  17.644   1
  -2  12  -3 102.286   8.604   2
  -4  12  -3 -1.3773  3.8475   2
  -6  12  -3 10.2564  6.0692   2
  -8  12  -3 19.0582  8.0949   2
 -10  12  -3 -3.5802  6.7563   2
 -12  12  -3 2.20975 8.94257   2
 -14  12  -3 0.09687 9.93915   2
 -15 -11   3  7.2441 15.1574   1
 -13 -11   3 -5.8078 12.5147   1
  11  11  -3 2.47926 7.33366   3
 -11 -11   3  2.6851 15.6076   1
   9  11  -3 8.42335 7.05148   3
  -9 -11   3 18.6377 14.8812   1
   7  11  -3 -2.7418  4.2632   3
  -7 -11   3 -4.1533 11.2951   1
   5  11  -3 13.7349  5.8604   3
  -5 -11   3 15.4445  9.6958   1
   3  11  -3 0.43669 4.22568   3
  -3 -11   3 1.05984 7.39496   1
   1  11  -3 8.30498 5.29845   3
   1  11  -3 1.78593 2.38494   2
  -1 -11   3 5.42822 6.52059   1
  -1  11  -3 123.970   8.489   2
   1 -11   3 113.832  12.116   1
  -3  11  -3 1.77123 3.55493   2
  -5  11  -3 40.9633  7.5144   2
  -7  11  -3 26.2195  7.7007   2
  -9  11  -3 5.24420 7.07801   2
 -11  11  -3 14.1388  9.1627   2
 -13  11  -3 13.9092 10.0937   2
 -14 -10   3 11.6081 14.2451   1
 -12 -10   3  1.3520 13.0886   1
  10  10  -3 1.03258 6.40153   3
 -10 -10   3  8.5873 13.3224   1
   8  10  -3 3.24395 5.33839   3
  -8 -10   3 -4.4001 11.2759   1
   6  10  -3 3.62228 4.83562   3
  -6 -10   3 -7.8210  8.7036   1
   4  10  -3 5.88803 4.61351   3
  -4 -10   3 7.85385 8.48935   1
   2  10  -3 107.820   5.665   2
   2  10  -3 113.706  11.231   3
  -2 -10   3 102.882  11.560   1
   0  10  -3 330.717  18.746   3
   0  10  -3 341.279  11.780   2
   0 -10   3 317.690  17.568   1
  -2  10  -3 2.46188 5.40051   1
  -2  10  -3 2.82533 3.03012   2
   2 -10   3 1.29857 5.20551   1
  -4  10  -3 33.8949  6.3279   2
  -6  10  -3 1.10348 4.59976   2
  -8  10  -3 18.7573  7.2254   2
 -10  10  -3 64.8610 11.7106   2
 -12  10  -3 30.0264 10.6312   2
 -14  10  -3 -6.5280  8.5185   2
 -15  -9   3 11.5840 17.3652   1
 -13  -9   3  6.5715 14.1729   1
 -11  -9   3 44.3870 16.4953   1
   9   9  -3 56.0403 10.0263   3
  -9  -9   3 43.8620 16.0633   1
   7   9  -3 23.2138  6.8777   3
  -7  -9   3 -2.3048  8.8167   1
   5   9  -3 0.36376 3.74086   3
  -5  -9   3 -7.4347  7.2221   1
   3   9  -3 11.9467  4.8419   3
   3   9  -3 16.6347  2.4439   2
  -3  -9   3 8.00750 6.01464   1
   1   9  -3 7.60640 4.49233   3
   1   9  -3 9.15598 2.56746   2
  -1  -9   3 17.6245  6.5820   1
  -1   9  -3 7.67251 3.13825   2
   1  -9   3 9.82609 5.54616   1
  -3   9  -3 47.5679  8.1732   1
  -3   9  -3 44.7733  6.0124   2
  -5   9  -3 76.7708  8.6887   2
  -7   9  -3 101.076  10.396   2
  -9   9  -3 39.2136  9.3911   2
 -11   9  -3 41.5823 10.6715   2
 -13   9  -3 -2.2055  8.0155   2
 -15   9  -3 14.9202 10.2411   2
 -16  -8   3  2.9717 13.0995   1
 -14  -8   3  2.6839 11.4119   1
 -12  -8   3 19.4556 13.1669   1
  10   8  -3 118.172  13.909   3
 -10  -8   3 127.520  17.495   1
   8   8  -3 14.8489  6.5056   3
  -8  -8   3 22.1459 12.1274   1
   6   8  -3 7.86814 4.60751   3
  -6  -8   3 5.94907 9.95659   1
   4   8  -3 -0.3523  3.1370   3
  -4  -8   3 -2.6500  5.8129   1
   2   8  -3 16.8862  2.5341   2
   2   8  -3 17.2322  5.0382   3
   0   8  -3 2.86582 2.08679   2
   0   8  -3 3.09024 3.48073   3
   0  -8   3 10.2195  4.9668   1
  -2   8  -3 76.7298  6.5346   2
  -2   8  -3 70.9098  7.2820   1
  -4   8  -3 7.19552 3.76124   2
  -4   8  -3 4.99627 5.12363   1
  -6   8  -3 51.9269  7.7309   2
  -8   8  -3 506.969  21.983   2
 -10   8  -3 54.4660 10.4267   2
 -12   8  -3 2.39098 7.60525   2
 -14   8  -3 1.09111 8.48419   2
 -15  -7   3  8.0405 13.1274   1
 -13  -7   3 14.3532 12.1506   1
 -11  -7   3 12.6677 14.4125   1
   9   7  -3 1.10760 5.77727   3
  -9  -7   3 -5.3104  9.0241   1
   7   7  -3 76.7524  9.4758   3
  -7  -7   3 46.6675 13.5007   1
   5   7  -3 6.22665 3.99470   3
  -5  -7   3 -7.2238  4.9626   1
   1   7  -3 4.51935 1.92441   2
   1   7  -3 3.16661 3.40919   3
  -1  -7   3 1.74649 3.65686   1
  -1   7  -3 328.817  10.938   2
   1  -7   3 330.593  13.198   1
  -3   7  -3 104.805   7.686   2
  -3   7  -3 97.8801  7.4022   1
  -5   7  -3 -0.4637  4.4968   1
  -5   7  -3 0.50987 3.25396   2
  -7   7  -3 17.2817  5.4472   2
  -9   7  -3 157.853  13.640   2
 -11   7  -3 -2.8576  6.4500   2
 -13   7  -3 -5.2394  7.0620   2
 -15   7  -3 1.84496 8.61671   2
 -16  -6   3  0.5414 13.5417   1
 -14  -6   3 27.0700 14.4956   1
 -12  -6   3 77.3804 18.4586   1
 -10  -6   3 72.5122 16.7628   1
   8   6  -3 31.8235  7.3039   3
  -8  -6   3 26.6839 11.5166   1
   6   6  -3 227.459  13.702   3
  -6  -6   3 209.347  15.632   1
   2   6  -3 7.75394 3.46777   3
   2   6  -3 8.88778 1.87690   2
   0   6  -3 154.013  10.838   3
   0   6  -3 174.310   6.984   2
   0  -6   3 158.388   8.579   1
  -2   6  -3 27.2990  4.7324   1
  -2   6  -3 25.3758  3.9419   2
  -4   6  -3 3.12754 2.85501   2
  -4   6  -3 1.79956 3.51815   1
  -6   6  -3 61.3010  7.3070   2
  -8   6  -3 126.974  11.417   2
 -10   6  -3 4.09615 5.91212   2
 -12   6  -3 8.62422 7.51429   2
 -14   6  -3 2.27294 7.67811   2
 -16   6  -3 3.93724 9.12988   2
 -15  -5   3  7.9241 15.1823   1
 -13  -5   3  6.7115 13.4263   1
 -11  -5   3  3.2598 10.5161   1
  -9  -5   3 3.93780 9.20730   1
   5   5  -3 6.73556 3.93907   3
  -5  -5   3 0.39901 5.34078   1
   1   5  -3 120.037   5.026   2
   1   5  -3 107.865   8.420   3
  -1   5  -3 91.8635  5.5334   2
  -3   5  -3 192.302   9.257   2
  -5   5  -3 -1.3780  4.2718   1
  -5   5  -3 1.78613 3.05952   2
  -7   5  -3 -0.0867  6.2223   1
  -7   5  -3 -1.3279  3.1847   2
  -9   5  -3 350.022  17.616   2
 -11   5  -3 6.01716 6.14552   2
 -13   5  -3 1.41970 6.91115   2
 -15   5  -3 14.2246  9.1263   2
 -16  -4   3 -7.6071 12.7872   1
 -14  -4   3 -1.6136 12.1290   1
 -12  -4   3 22.3991 13.6759   1
 -10  -4   3 17.5570 12.2350   1
   8   4  -3 57.1865  8.8183   3
   0   4  -3 92.7599  7.6014   3
   0   4  -3 95.7700  4.8150   2
  -2   4  -3 1.00248 1.87237   2
  -6   4  -3 46.2595  6.1477   2
  -6   4  -3 8.08236 5.92965   1
  -8   4  -3 91.9918  9.5008   2
 -10   4  -3 6.44340 5.45939   2
 -12   4  -3 1.40635 6.04179   2
 -14   4  -3 12.2280  8.1965   2
 -16   4  -3 13.3087  9.1673   2
 -17  -3   3  4.0486 13.2469   1
 -15  -3   3 -11.875  10.713   1
 -13  -3   3 -0.1549 12.9397   1
 -11  -3   3  1.4973 11.5594   1
  -9  -3   3 6.45749 9.89646   1
   7   3  -3 126.875  11.388   3
  -7  -3   3 121.212   5.558   2
   1   3  -3 198.949   6.378   2
   1   3  -3 186.720   9.435   3
  -1   3  -3 51.0099  4.1178   2
  -3   3  -3 17.7100  3.3297   2
  -5   3  -3 470.093  15.132   2
  -7   3  -3 76.9848  7.6034   2
  -9   3  -3 58.8841  8.1711   2
 -11   3  -3 5.12510 5.48072   2
 -13   3  -3 11.0793  6.8448   2
 -15   3  -3 -12.731   5.958   2
 -16  -2   3 22.2611 16.7450   1
 -14  -2   3 11.3997 13.8035   1
 -12  -2   3  1.5291 10.9952   1
 -10  -2   3 -6.3231  8.1342   1
  -8  -2   3 18.6840  9.1687   1
  -8  -2   3 43.8444  4.7767   2
   4   2  -3 0.59348 2.75094   3
  -4  -2   3 -2.8836  5.2409   1
   2   2  -3 2710.99   29.58   2
   2   2  -3 2594.63   39.23   3
   0   2  -3 0.49066 1.72374   2
   0   2  -3 0.28587 1.62184   3
  -4   2  -3 10.0609  2.8871   2
  -4   2  -3 1.14443 3.38001   1
  -6   2  -3 304.300  12.510   2
  -6   2  -3 309.607  13.872   1
  -8   2  -3 126.442   9.326   2
  -8   2  -3 129.050  12.083   1
 -10   2  -3 63.9780  8.4770   2
 -10   2  -3 82.3337 15.9749   1
 -12   2  -3 13.4199  6.4436   2
 -14   2  -3 -0.6554  6.1652   2
 -16   2  -3 -0.3690  8.3431   2
 -17  -1   3 12.1591 17.5833   1
 -15  -1   3 203.739  23.197   1
 -13  -1   3 36.7005 16.0270   1
 -11  -1   3 18.2552 12.9578   1
  -9  -1   3 45.2737  5.3319   2
  -9  -1   3 34.9595 11.0236   1
  -7  -1   3 -3.5227  7.1660   1
   5   1  -3 0.84321 2.86250   3
  -5  -1   3 -1.4231  4.6026   1
   3   1  -3 24.2024  2.9928   2
   3   1  -3 27.3049  4.1272   3
   1   1  -3 687.974  13.119   2
   1   1  -3 664.817  15.878   3
  -1   1  -3 107.233   5.551   2
  -3   1  -3 1.88298 1.94854   2
  -3   1  -3 0.83282 2.48025   1
  -5   1  -3 607.211  18.408   1
  -5   1  -3 652.922  16.685   2
  -7   1  -3 208.678  13.282   1
  -7   1  -3 198.331  10.620   2
  -9   1  -3 20.4982  5.4393   2
  -9   1  -3 31.5731 11.2780   1
 -11   1  -3 8.12809 5.57572   2
 -13   1  -3 16.7958  7.1797   2
 -15   1  -3 -3.4028  6.5691   2
 -16   0   3  0.6916 16.5679   1
 -14   0   3 -12.579  12.027   1
 -12   0   3 -0.6318 12.3731   1
 -10   0   3 -0.9914  3.1878   2
 -10   0   3  3.5971 10.3172   1
  -8   0   3 -6.9011  5.4526   1
  -6   0   3 0.67596 6.01826   1
   4   0  -3 0.41697 2.66365   3
  -4   0   3 -2.5773  3.9397   1
   2   0  -3 -1.6722  1.4222   2
   2   0  -3 1.45511 1.95617   3
  -2   0   3 -1.3196  3.4353   1
   0   0  -3 0.55273 1.34080   3
   0   0  -3 -1.5380  1.8392   2
   0   0   3 -0.1560  2.1157   1
  -2   0  -3 -2.6614  2.4640   1
  -2   0  -3 -0.3057  1.7812   2
  -4   0  -3 -1.4855  3.8383   1
  -4   0  -3 -0.5163  2.6471   2
  -6   0  -3 -0.9467  5.1018   1
  -6   0  -3 -0.6427  2.7396   2
  -8   0  -3 0.33392 6.77481   1
  -8   0  -3 -1.9660  3.3263   2
 -10   0  -3 2.42296 4.43377   2
 -10   0  -3 -8.4684  8.5139   1
 -12   0  -3 0.97502 5.30411   2
 -14   0  -3 -6.0477  6.3437   2
 -17   1   3 11.2532 18.6440   1
 -15   1   3 228.410  24.806   1
 -13   1   3 18.7641 14.7661   1
 -11   1   3 12.4970  4.9401   2
 -11   1   3 12.1517 12.8820   1
  -9   1   3 53.1475  6.7475   2
  -9   1   3 73.8455 13.9836   1
  -7   1   3 0.82357 6.81247   1
  -5   1   3 -1.8637  4.5512   1
   3  -1  -3 23.7080  3.5905   2
   3  -1  -3 28.6869  4.0605   3
   1  -1  -3 656.961  14.678   2
  -1   1   3 677.001  17.667   1
  -1  -1  -3 92.6599  6.9882   1
  -1  -1  -3 91.1855  5.6477   2
  -3  -1  -3 -0.3523  2.3413   2
  -3  -1  -3 -1.0309  3.3349   1
  -5  -1  -3 662.659  16.620   2
  -5  -1  -3 636.875  21.580   1
  -7  -1  -3 204.109  10.841   2
  -7  -1  -3 194.728  14.203   1
  -9  -1  -3 18.8045  5.4015   2
  -9  -1  -3 26.1269 11.2684   1
 -11  -1  -3 7.01951 5.32209   2
 -11  -1  -3 13.6442 12.2649   1
 -13  -1  -3 18.5924  7.2531   2
 -16   2   3  9.5391 18.2894   1
 -14   2   3 10.0511 15.7900   1
 -12   2   3 0.43902 4.73031   2
 -12   2   3  8.5153 13.7979   1
 -10   2   3 -1.1255  3.7295   2
 -10   2   3 -5.6046  9.7867   1
  -8   2   3 61.8668 11.8298   1
  -6   2   3 468.549  19.696   1
  -4   2   3 -3.2393  4.8735   1
   2  -2  -3 2477.57   32.09   3
   2  -2  -3 2460.61   35.04   2
  -2   2   3 2561.96   43.46   1
   0  -2  -3 -1.0491  2.7049   1
   0  -2  -3 -1.6830  1.6678   2
  -2  -2  -3 816.181  16.752   2
  -2  -2  -3 819.225  22.896   1
  -4  -2  -3 10.4044  3.3608   2
  -4  -2  -3 7.64465 5.75117   1
  -6  -2  -3 293.398  16.732   1
  -6  -2  -3 271.688  11.641   2
  -8  -2  -3 132.089  13.867   1
  -8  -2  -3 120.417   9.286   2
 -10  -2  -3 51.6424  7.6699   2
 -10  -2  -3 54.4349 15.3679   1
 -12  -2  -3 6.56117 6.35504   2
 -12  -2  -3 16.1481 13.9844   1
 -17   3   3 20.9494 20.2478   1
 -15   3   3 15.3967 16.7412   1
 -13   3   3 7.30434 5.62362   2
 -13   3   3 11.1946 15.1821   1
 -11   3   3 0.76021 4.68508   2
 -11   3   3  1.7967 12.1429   1
  -9   3   3 73.7578 14.3595   1
  -7   3   3 131.300  12.215   1
  -5   3   3 668.564  24.697   1
  -3   3   3 911.150  26.341   1
   1  -3  -3 181.132   8.721   2
  -1   3   3 180.433  10.896   1
  -1  -3  -3 48.9538  6.8450   1
  -1  -3  -3 46.0359  4.8275   2
  -3  -3  -3 19.5190  3.9347   2
  -3  -3  -3 25.4387  7.1972   1
  -5  -3  -3 389.025  18.563   1
  -5  -3  -3 405.543  13.443   2
  -7  -3  -3 63.5223 13.4228   1
  -7  -3  -3 64.3357  7.1809   2
  -9  -3  -3 57.8236 14.9962   1
  -9  -3  -3 55.0647  7.5662   2
 -11  -3  -3 -3.5913  5.1068   2
 -11  -3  -3 -3.1770 11.3606   1
 -13  -3  -3 11.2242 15.2416   1
 -16   4   3  3.8720 16.7674   1
 -14   4   3 -2.8086 14.2502   1
 -14   4   3 -0.3209  5.9963   2
 -12   4   3 34.9734 15.3319   1
 -12   4   3 32.2570  7.7525   2
 -10   4   3 37.4465  7.2134   2
 -10   4   3 47.4769 13.8571   1
  -8   4   3 89.2898 14.7594   1
  -6   4   3 178.417  14.916   1
  -4   4   3 263.228  16.041   1
   2  -4  -3 137.367   8.683   2
  -2   4   3 148.246  10.967   1
   0  -4  -3 89.9633  9.3480   1
   0  -4  -3 84.1483  6.4250   2
  -2  -4  -3 1.46153 4.34645   1
  -2  -4  -3 0.34480 2.15034   2
  -4  -4  -3 154.327  12.422   1
  -4  -4  -3 158.332   8.927   2
  -6  -4  -3 30.4338  9.9073   1
  -6  -4  -3 42.6750  5.9020   2
  -8  -4  -3 93.2825  9.3713   2
  -8  -4  -3 49.5728 14.1875   1
 -10  -4  -3 0.40912 5.12519   2
 -10  -4  -3  5.7933 11.8326   1
 -12  -4  -3  3.3994 13.3656   1
 -12  -4  -3 14.1110  7.3296   2
 -14  -4  -3  8.1402 16.4490   1
 -17   5   3 12.0018 18.6617   1
 -15   5   3  7.0993 17.6777   1
 -15   5   3 8.93409 8.08432   2
 -13   5   3 -2.3532  5.7486   2
 -13   5   3  1.1411 14.6585   1
 -11   5   3 46.6069 15.3355   1
 -11   5   3 57.5373  9.1509   2
  -9   5   3 103.522  13.558   1
  -7   5   3 112.304  13.965   1
  -5   5   3 5.93473 7.75772   1
  -3   5   3 132.399  11.465   1
   1  -5  -3 113.646   8.439   2
   1  -5  -3 115.687  11.174   1
  -1  -5  -3 86.6404 10.0144   1
  -1  -5  -3 86.7608  6.6184   2
  -3  -5  -3 150.460  12.893   1
  -3  -5  -3 176.827   9.331   2
  -5  -5  -3 -0.2348  3.1426   2
  -5  -5  -3 1.10684 6.68386   1
  -7  -5  -3 -4.6967  8.2825   1
  -7  -5  -3 -3.3027  3.7897   2
  -9  -5  -3 283.269  14.534   2
  -9  -5  -3 287.889  23.926   1
 -11  -5  -3  0.9085 12.2653   1
 -11  -5  -3 -6.3320  6.0919   2
 -13  -5  -3 -1.3039 14.3217   1
 -16   6   3  5.4703 18.4468   1
 -16   6   3 1.24241 7.94944   2
 -14   6   3 14.4633  7.8163   2
 -14   6   3 25.9506 17.7426   1
 -12   6   3 54.1497  9.4901   2
 -12   6   3 40.1314 16.0512   1
 -10   6   3 95.5049 14.2492   1
  -8   6   3 36.8709 13.8114   1
  -6   6   3 237.176  18.245   1
  -4   6   3 1111.25   34.68   1
  -2   6   3 2.87513 5.74978   1
   0  -6  -3 148.592  13.427   1
   0  -6  -3 163.265   9.989   2
  -2  -6  -3 28.6746  9.2169   1
  -2  -6  -3 20.6493  4.3342   2
  -4  -6  -3 2.78752 3.29811   2
  -4  -6  -3 0.84968 5.95968   1
  -6  -6  -3 56.1880 13.0900   1
  -6  -6  -3 46.3048  6.4825   2
  -8  -6  -3 75.9235 16.0294   1
  -8  -6  -3 105.783   9.490   2
 -10  -6  -3 -6.5658 11.5042   1
 -10  -6  -3 2.43109 5.84416   2
 -12  -6  -3 10.2168 16.5923   1
 -14  -6  -3 -2.6722 16.5284   1
 -17   7   3 12.5734 21.2010   1
 -15   7   3  4.2208 17.9621   1
 -15   7   3 11.4445  7.8980   2
 -13   7   3 15.9596 15.1121   1
 -13   7   3 14.5176  7.5833   2
 -11   7   3 15.6951 13.4607   1
 -11   7   3 17.1231  6.7313   2
  -9   7   3 -2.5296 10.7730   1
  -7   7   3 78.4782 16.4106   1
  -5   7   3 9.15147 8.18154   1
  -3   7   3 620.381  26.188   1
   1  -7  -3 6.23556 5.86784   1
  -1  -7  -3 323.476  14.177   2
  -1  -7  -3 290.172  19.335   1
  -3  -7  -3 94.4227  7.6598   2
  -3  -7  -3 96.8937 11.9880   1
  -5  -7  -3 -0.8865  3.0783   2
  -5  -7  -3 0.08187 6.49973   1
  -7  -7  -3 14.0174  4.8602   2
  -7  -7  -3 15.5675 10.8488   1
  -9  -7  -3 85.2431 18.7857   1
  -9  -7  -3 104.004  10.519   2
 -11  -7  -3  0.5998 12.5100   1
 -13  -7  -3 -5.2246 14.3545   1
 -15  -7  -3 -2.3563 16.7271   1
 -16   8   3 -11.275  18.355   1
 -16   8   3 -1.9187  8.3875   2
 -14   8   3 -0.2513 15.3358   1
 -14   8   3 -2.3875  7.0510   2
 -12   8   3 11.7859 14.1694   1
 -12   8   3 25.6053  8.1151   2
 -10   8   3 109.087  16.390   1
  -8   8   3 25.6121 13.6620   1
  -6   8   3 10.8796 10.7545   1
  -4   8   3 -1.6600  6.2909   1
  -2   8   3 8.78996 7.39396   1
   0  -8  -3 0.33542 3.13061   2
   0  -8  -3 -2.1565  5.3907   1
  -2  -8  -3 80.6222 14.2824   1
  -2  -8  -3 67.2936  7.3436   2
  -4  -8  -3 4.13729 3.42258   2
  -4  -8  -3 6.48301 7.36714   1
  -6  -8  -3 44.1555 13.5208   1
  -6  -8  -3 48.2834  6.5655   2
  -8  -8  -3 384.897  16.455   2
  -8  -8  -3 373.592  25.868   1
 -10  -8  -3 61.6247 18.3010   1
 -12  -8  -3 10.9318 14.6200   1
 -14  -8  -3 -5.8608 14.0319   1
 -15   9   3 5.55261 7.75566   2
 -15   9   3  5.3337 18.1469   1
 -13   9   3 -2.4927  6.5486   2
 -13   9   3 -1.3575 14.9737   1
 -11   9   3 58.2808 10.2548   2
 -11   9   3 39.7412 16.7663   1
  -9   9   3 26.6565 16.4715   1
  -7   9   3 37.9545 14.9469   1
  -5   9   3 -3.5509  7.6089   1
  -3   9   3 20.4176  9.7483   1
   1  -9  -3 14.1040  8.9186   1
  -1  -9  -3 5.68840 4.09966   2
  -1  -9  -3 9.94248 8.17387   1
  -3  -9  -3 31.7919  5.7279   2
  -3  -9  -3 34.3074 11.3680   1
  -5  -9  -3 57.6931 14.3648   1
  -5  -9  -3 61.2043  7.1396   2
  -7  -9  -3 114.270  19.082   1
  -7  -9  -3 71.0126  8.0877   2
  -9  -9  -3 37.1193 15.0389   1
 -11  -9  -3 14.7992 15.4254   1
 -13  -9  -3  7.8304 15.2762   1
 -15  -9  -3  9.3371 17.1810   1
 -16  10   3 -3.2486 19.6890   1
 -16  10   3 7.27656 8.91692   2
 -14  10   3 -3.2192 16.0094   1
 -14  10   3 8.46469 8.11397   2
 -12  10   3 -2.8754  5.2632   2
 -12  10   3 -0.1491 13.4451   1
 -10  10   3 -6.8713 13.7432   1
  -8  10   3 -3.0593 11.9947   1
  -6  10   3  9.4428 10.7100   1
  -4  10   3 3.73894 8.50395   1
   2 -10  -3 123.116  15.747   1
   0 -10  -3 305.714  22.996   1
  -2 -10  -3 0.16508 6.94134   1
  -2 -10  -3 -2.3548  3.2544   2
  -4 -10  -3 25.2419 11.1335   1
  -4 -10  -3 28.7076  5.7488   2
  -6 -10  -3 6.18508 9.37190   1
  -6 -10  -3 5.50643 3.87222   2
  -8 -10  -3  8.9670 11.6473   1
 -10 -10  -3 70.5769 19.6776   1
 -12 -10  -3 35.2076 17.8718   1
 -14 -10  -3 14.0236 16.7615   1
 -15  11   3 -1.0738  7.4987   2
 -15  11   3  5.5709 18.2837   1
 -13  11   3 -0.6763  6.6689   2
 -13  11   3 -1.6842 15.5596   1
 -11  11   3 11.5749 17.3979   1
 -11  11   3 8.03733 7.16985   2
  -9  11   3 -0.5163 12.8508   1
  -7  11   3  2.3487 12.0181   1
  -5  11   3 22.8361 12.4815   1
  -3  11   3 4.00530 9.05627   1
   1 -11  -3 0.71434 7.33402   1
  -1 -11  -3 109.531  15.514   1
  -3 -11  -3 7.03842 4.70657   2
  -3 -11  -3 1.35487 7.26256   1
  -5 -11  -3 35.2209  6.6147   2
  -5 -11  -3 44.2396 13.3988   1
  -7 -11  -3 31.4877 14.0584   1
  -9 -11  -3 14.4219 13.6698   1
 -11 -11  -3 10.0049 14.3855   1
 -13 -11  -3 11.6217 16.1673   1
 -14  12   3 -4.9313 17.9947   1
 -14  12   3 -1.5977  6.5552   2
 -12  12   3 -1.6484  6.9052   2
 -12  12   3 -8.6801 14.5937   1
 -10  12   3  8.8308 16.6597   1
  -8  12   3 54.2994 19.0051   1
  -6  12   3 27.0681 13.9545   1
  -4  12   3 194.084  19.349   1
   2 -12  -3 1.04721 8.35463   1
  -2  12   3 0.30681 9.13389   1
   0 -12  -3 219.928  21.624   1
  -2 -12  -3 118.009  20.342   1
  -4 -12  -3 -0.4658  7.7046   1
  -4 -12  -3 1.36616 4.30467   2
  -6 -12  -3  4.7055 10.0167   1
  -8 -12  -3 15.3320 13.4712   1
 -10 -12  -3 -2.2237 11.9627   1
 -12 -12  -3  1.3504 14.8754   1
 -15  13   3 17.2359 10.0280   2
 -13  13   3  1.4257 17.2298   1
 -13  13   3 17.6535  9.0395   2
 -11  13   3 -3.2163 18.1610   1
 -11  13   3 -2.4583  6.7697   2
  -9  13   3 11.0688 16.1676   1
  -7  13   3 45.6297 17.3556   1
  -5  13   3 -4.9491 10.6528   1
  -3  13   3 196.061  20.093   1
   1 -13  -3 175.177  20.942   1
  -1 -13  -3 0.02164 8.32774   1
  -3 -13  -3 5.35502 9.49906   1
  -5 -13  -3 15.5329 11.6313   1
  -7 -13  -3 51.4124 16.8907   1
  -9 -13  -3  7.5494 13.6048   1
 -11 -13  -3 -4.2243 12.9555   1
 -13 -13  -3  8.7866 16.8440   1
 -14  14   3 -8.7750  7.1242   2
 -12  14   3 -2.9549 16.5759   1
 -12  14   3 1.70875 7.86477   2
 -10  14   3 3.15022 6.91558   2
 -10  14   3 -4.4615 16.0930   1
  -8  14   3 17.6972 16.3462   1
  -6  14   3 -5.1167 11.6627   1
  -4  14   3  0.8003 11.3689   1
   2 -14  -3 93.0681 20.7665   1
  -2  14   3 66.4293 17.9056   1
   0 -14  -3 95.9167 20.9446   1
  -2 -14  -3 21.7318 12.6555   1
  -4 -14  -3 -1.1982  9.1852   1
  -6 -14  -3 19.5628 13.0352   1
  -8 -14  -3 -0.0293 11.1259   1
 -10 -14  -3 -5.8586 13.4526   1
 -12 -14  -3  2.0336 14.9178   1
 -13  15   3 -2.0967  7.4021   2
 -11  15   3 7.38518 7.35315   2
 -11  15   3 -8.2942 18.3339   1
  -9  15   3 19.2213 17.8057   1
  -7  15   3 49.7803 19.1084   1
  -5  15   3  0.7922 12.6578   1
  -3  15   3  3.8965 12.4656   1
   1 -15  -3 41.8080 16.3616   1
  -1 -15  -3 43.3634 16.2963   1
  -3 -15  -3 1.53451 9.83246   1
  -5 -15  -3 27.3624 13.9336   1
  -7 -15  -3  1.6299 10.9456   1
  -9 -15  -3 13.8032 14.8549   1
 -11 -15  -3  8.6408 16.6194   1
 -12  16   3 1.38456 8.22038   2
 -10  16   3  0.5715 17.2750   1
 -10  16   3 18.8873  9.2476   2
  -8  16   3  5.9471 16.8080   1
  -6  16   3 19.5234 16.0526   1
  -4  16   3  3.7815 13.3899   1
  -2  16   3  2.4553 12.9353   1
   0 -16  -3 55.8263 18.6401   1
  -2 -16  -3 -2.4554  9.6764   1
  -4 -16  -3 25.5422 15.0665   1
  -6 -16  -3  5.1051 11.7533   1
  -8 -16  -3  5.9010 12.5152   1
 -10 -16  -3 12.1903 16.0545   1
 -11  17   3 -21.634  17.580   1
 -11  17   3 0.52368 8.54723   2
  -9  17   3 -5.2661 17.2166   1
  -7  17   3 -8.7629 14.3128   1
  -5  17   3  8.1110 15.6846   1
  -3  17   3 50.5527 18.6065   1
   1 -17  -3  5.0390 12.4974   1
  -1 -17  -3 24.6031 15.5581   1
  -3 -17  -3 -0.6632 10.7843   1
  -5 -17  -3  9.7767 13.2852   1
  -7 -17  -3 -0.9275 11.8454   1
  -9 -17  -3 -4.2882 13.0546   1
 -10  18   3 -0.2176 18.5979   1
 -10  18   3 7.23923 8.56623   2
  -8  18   3  1.8658 18.2720   1
  -6  18   3 -7.5172 13.9249   1
  -4  18   3 -1.8655 14.6530   1
  -2  18   3 80.1253 22.5681   1
   0 -18  -3  5.7784 12.2030   1
  -2 -18  -3  3.0906 12.0254   1
  -4 -18  -3 25.4433 16.6767   1
  -6 -18  -3 -1.8126 11.7320   1
  -8 -18  -3 13.3596 14.9860   1
  -9  19   3 2.17826 8.51296   2
  -9  19   3 -4.1448 19.4282   1
  -7  19   3  1.5191 16.9662   1
  -5  19   3 -9.0799 15.0285   1
  -3  19   3 31.9160 18.9662   1
   1 -19  -3 -0.0628 12.9456   1
  -1  19   3  2.4172 15.1697   1
  -1 -19  -3 -2.6296 11.7593   1
  -3 -19  -3  0.4910 12.3819   1
  -5 -19  -3 -1.6254 11.7511   1
  -7 -19  -3  0.2092 12.7021   1
  -8  20   3 -2.6029  8.3717   2
  -6  20   3 10.7878 18.8283   1
  -4  20   3 99.6767 26.0254   1
  -2  20   3  4.1166 16.5172   1
   0 -20  -3  7.3657 14.3750   1
  -2 -20  -3  0.2787 13.9827   1
  -4 -20  -3  4.6571 14.4084   1
  -6 -20  -3  1.0429 13.5618   1
  -5  21   3  3.7467 19.2735   1
  -3  21   3 12.8734 18.3103   1
  -1  21   3  4.4696 16.3809   1
  -1 -21  -3 -5.0870 13.3994   1
  -3 -21  -3  7.7531 14.7964   1
  -4  22   3 -1.5185 18.8126   1
  -2  22   3 -3.5044 16.5965   1
   0 -22  -3  8.9422 16.7667   1
   0  22   3  2.6575 18.0340   1
   0  22  -4 84.6776 17.2429   3
  -2  22  -4 18.8021 11.2896   3
   3  21  -4 32.2053 13.3604   3
   1  21  -4 50.9140 14.7491   3
  -1  21  -4 38.7724 13.2617   3
  -3  21  -4 37.3654 12.5565   3
  -5  21  -4 22.5036 11.2689   3
   4  20  -4 15.8321 10.3953   3
   2  20  -4 48.4928 13.7292   3
   0  20  -4 15.6998 10.1604   3
  -2  20  -4 68.5141 14.7006   3
  -4  20  -4 48.2785 13.1058   3
  -6  20  -4 18.8521  9.7445   2
  -9 -19   4 41.4028 20.6577   1
   7  19  -4 16.9699 10.1647   3
   5  19  -4 64.1668 13.8454   3
   3  19  -4 30.7860 12.0584   3
   1  19  -4 29.1684 11.6483   3
  -1  19  -4 32.1726 11.3619   3
  -3  19  -4 62.9919 14.0248   3
  -5  19  -4 51.4636 11.1116   2
  -7  19  -4 9.21862 8.82008   2
 -10 -18   4 23.5403 17.4265   1
   8  18  -4 21.5340  9.4510   3
  -8 -18   4 44.9316 20.2677   1
   6  18  -4 78.9521 14.1060   3
  -6 -18   4 96.6227 22.9804   1
   4  18  -4 146.493  18.009   3
   2  18  -4 123.521  17.401   3
   0  18  -4 44.2423 11.6628   3
  -2  18  -4 28.7575 10.1852   3
  -4  18  -4 70.2824 10.4473   2
  -6  18  -4 48.4049 10.7299   2
  -8  18  -4 30.9214 11.1575   2
  11  17  -4 38.1702 12.4453   3
 -11 -17   4 35.8410 18.3396   1
   9  17  -4 56.3382 12.4794   3
  -9 -17   4 77.9766 21.2892   1
   7  17  -4 66.7758 12.7458   3
  -7 -17   4 83.1250 22.0677   1
   5  17  -4 60.3976 12.6525   3
  -5 -17   4 99.8967 21.7070   1
   3  17  -4 313.934  24.343   3
   1  17  -4 108.545  15.852   3
  -1  17  -4 37.2166 10.6992   3
  -3  17  -4 78.4469  9.8805   2
  -3  17  -4 54.5734 12.2149   3
  -5  17  -4 64.1530 10.8207   2
  -7  17  -4 132.907  15.210   2
  -9  17  -4 35.3986 11.6035   2
  12  16  -4 45.8674 12.3139   3
 -12 -16   4 28.9534 16.2045   1
  10  16  -4 39.3883 11.2817   3
 -10 -16   4 36.9388 16.9430   1
   8  16  -4 80.2863 12.9270   3
  -8 -16   4 76.2687 19.2321   1
   6  16  -4 24.4223  9.3242   3
  -6 -16   4 37.4024 16.9664   1
   4  16  -4 165.651  17.916   3
  -4 -16   4 142.249  18.599   1
   2  16  -4 203.146  19.651   3
   0  16  -4 67.0554 12.4960   3
  -2  16  -4 56.2719 11.9571   3
  -2  16  -4 66.8129  8.4344   2
  -4  16  -4 53.1729  9.2000   2
  -6  16  -4 132.587  13.998   2
  -8  16  -4 82.0149 13.2863   2
 -10  16  -4 -2.1662  9.0358   2
  11  15  -4 52.4009 12.1254   3
 -11 -15   4 16.2451 11.8751   1
   9  15  -4 60.1292 12.2333   3
  -9 -15   4 42.1558 15.9444   1
   7  15  -4 46.4622 10.6817   3
  -7 -15   4 41.9000 15.3298   1
   5  15  -4 172.438  17.581   3
  -5 -15   4 189.285  20.991   1
   3  15  -4 149.703  16.521   3
  -3 -15   4 142.463  17.222   1
   1  15  -4 54.4952 11.1909   3
  -1  15  -4 102.051  14.345   3
  -3  15  -4 57.2069  8.2866   2
  -5  15  -4 79.2808 10.6386   2
  -7  15  -4 121.768  14.307   2
  -9  15  -4 56.7721 12.4086   2
 -11  15  -4 23.0953 10.9727   2
  12  14  -4 46.8267 12.0685   3
 -12 -14   4 45.1800 22.8141   1
  10  14  -4 157.405  16.715   3
   8  14  -4 81.6950 12.2327   3
  -8 -14   4 50.2390 15.5874   1
   6  14  -4 88.4826 12.7786   3
  -6 -14   4 117.244  17.293   1
   4  14  -4 269.786  20.457   3
  -4 -14   4 301.575  23.418   1
   2  14  -4 74.9868 12.5739   3
   0  14  -4 150.832  15.982   3
  -2  14  -4 140.253  10.391   2
  -4  14  -4 205.798  13.881   2
  -6  14  -4 75.2122 10.8525   2
  -8  14  -4 131.007  15.055   2
 -10  14  -4 65.8838 13.2088   2
 -12  14  -4 13.4806 10.9306   2
 -13 -13   4 77.7271 25.7746   1
  11  13  -4 165.886  17.489   3
 -11 -13   4 169.024  25.188   1
   9  13  -4 231.131  18.574   3
  -9 -13   4 216.625  25.626   1
   7  13  -4 67.5231 11.1147   3
  -7 -13   4 57.2389 15.5078   1
   5  13  -4 80.3222 12.0650   3
  -5 -13   4 75.3323 16.9042   1
   3  13  -4 35.0906  9.2436   3
  -3 -13   4 70.0410 14.7426   1
   1  13  -4 350.616  22.475   3
  -1  13  -4 223.427  11.568   2
  -1  13  -4 212.633  17.850   3
  -3  13  -4 117.191   9.944   2
  -5  13  -4 183.044  13.792   2
  -7  13  -4 202.581  16.262   2
  -9  13  -4 53.1411 11.4672   2
 -11  13  -4 44.8826 11.5857   2
 -13  13  -4  8.0935 10.8317   2
 -14 -12   4 76.1924 26.6369   1
  12  12  -4 136.471  16.869   3
   8  12  -4 88.1953 12.1320   3
  -8 -12   4 14.8256 14.8684   1
   6  12  -4 163.957  14.441   3
  -6 -12   4 199.018  19.569   1
  -4 -12   4 36.2130 11.5255   1
   2  12  -4 742.199  31.299   3
  -2 -12   4 765.350  30.833   1
   0  12  -4 449.378  14.663   2
   0  12  -4 409.560  23.455   3
  -2  12  -4 223.229  12.134   2
  -4  12  -4 52.6362  7.7909   2
  -6  12  -4 309.738  17.899   2
  -8  12  -4 116.702  13.656   2
 -10  12  -4 78.4736 13.0918   2
 -12  12  -4 63.0977 13.8758   2
 -13 -11   4 26.5253 16.3529   1
  11  11  -4 165.715  17.252   3
 -11 -11   4 170.785  23.370   1
   9  11  -4 25.6194  8.3778   3
  -9 -11   4  4.2164 13.4537   1
   5  11  -4 50.6337  9.3215   3
  -5 -11   4 45.6443 12.7354   1
   3  11  -4 623.064  27.188   3
  -3 -11   4 604.128  27.097   1
   1  11  -4 430.061  22.903   3
   1  11  -4 450.071  13.162   2
  -1 -11   4 469.560  21.805   1
  -1  11  -4 259.026  18.446   3
  -1  11  -4 274.391  11.982   2
  -3  11  -4 182.933  11.357   2
  -5  11  -4 23.6819  6.3844   2
  -7  11  -4 38.6498  8.7034   2
  -9  11  -4 224.774  17.988   2
 -11  11  -4 158.862  17.504   2
 -13  11  -4 44.8106 12.7218   2
 -14 -10   4 85.9328 24.3812   1
 -12 -10   4 166.954  23.133   1
  10  10  -4 46.5481 10.4079   3
 -10 -10   4 40.9267 18.2072   1
   8  10  -4 182.993  15.452   3
   2  10  -4 141.000  13.047   3
   2  10  -4 171.276   7.467   2
  -2 -10   4 208.542  14.751   1
   0  10  -4 726.396  29.137   3
   0  10  -4 764.955  17.856   2
   0 -10   4 756.777  25.553   1
  -2  10  -4 239.335  11.511   2
  -4  10  -4 219.943  12.828   2
  -6  10  -4 8.88202 5.14306   2
  -8  10  -4 35.4266  8.6690   2
 -10  10  -4 340.862  21.892   2
 -12  10  -4 127.729  15.726   2
 -14  10  -4 35.3246 12.2408   2
 -15  -9   4 60.7751 21.2196   1
 -13  -9   4 220.305  24.571   1
  11   9  -4 83.4260 13.1023   3
 -11  -9   4 97.0053 21.5416   1
   9   9  -4 143.505  13.781   3
  -9  -9   4 40.4249 15.9673   1
  -5  -9   4 15.6457  9.9272   1
   3   9  -4 61.1918  9.0756   3
   1   9  -4 570.129  24.787   3
   1   9  -4 619.855  14.298   2
  -1  -9   4 638.392  22.479   1
  -1   9  -4 1050.08   21.97   2
   1  -9   4 1023.26   26.39   1
  -3   9  -4 352.614  14.461   2
  -5   9  -4 711.568  23.033   2
  -7   9  -4 8.69195 5.36730   2
  -9   9  -4 197.495  16.223   2
 -11   9  -4 175.275  17.087   2
 -13   9  -4 129.293  16.009   2
 -16  -8   4 134.358  25.866   1
 -14  -8   4 132.988  25.127   1
 -12  -8   4 90.9387 20.9017   1
  10   8  -4 117.032  14.496   3
 -10  -8   4 130.397  18.315   1
   8   8  -4 384.421  20.011   3
  -8  -8   4 355.903  24.620   1
   6   8  -4 532.143  22.465   3
   2   8  -4 276.203  16.385   3
   2   8  -4 304.084   8.849   2
   0   8  -4 252.724   9.631   2
   0   8  -4 234.620  15.567   3
   0  -8   4 272.073  12.544   1
  -2   8  -4 589.956  16.834   2
  -4   8  -4 835.151  22.866   2
  -6   8  -4 209.601  13.352   2
  -8   8  -4 108.518  11.989   2
 -10   8  -4 137.707  14.454   2
 -12   8  -4 74.2672 13.0114   2
 -14   8  -4 61.2371 13.0642   2
 -15  -7   4 103.059  20.126   1
 -11  -7   4 20.7861 15.1993   1
   9   7  -4 326.558  20.201   3
  -9  -7   4 349.425  24.096   1
   3   7  -4 59.2974  7.9564   3
   3   7  -4 67.6580  4.8013   2
   1   7  -4 135.621   6.418   2
   1   7  -4 115.217  10.606   3
  -1   7  -4 165.017   8.329   2
  -3   7  -4 720.429  19.416   2
  -5   7  -4 242.329  13.112   2
  -7   7  -4 649.120  23.132   2
  -9   7  -4 -0.9395  5.4292   2
 -11   7  -4 153.783  15.231   2
 -13   7  -4 13.8188  8.8015   2
 -15   7  -4 55.9981 12.7803   2
 -16  -6   4 61.4986 18.3015   1
 -14  -6   4 143.968  19.772   1
 -12  -6   4  2.1604 11.5215   1
   4   6  -4 97.3012  9.5067   3
   0   6  -4 346.749  10.454   2
   0   6  -4 348.129  17.191   3
   0  -6   4 338.714  11.402   1
  -2   6  -4 768.924  18.117   2
  -4   6  -4 573.439  17.859   2
  -6   6  -4 828.903  24.044   2
  -8   6  -4 126.358  11.220   2
 -10   6  -4 5.96124 6.20499   2
 -12   6  -4 66.7770 11.5684   2
 -14   6  -4 28.5095 10.3967   2
 -15  -5   4 181.476  22.255   1
 -13  -5   4 13.7332 11.5257   1
 -11  -5   4 31.4517 15.2006   1
   3   5  -4 802.488  14.000   2
   3   5  -4 782.322  23.906   3
   1   5  -4 33.4246  3.8006   2
   1   5  -4 29.3650  5.3031   3
  -1   5  -4 794.320  16.691   2
  -3   5  -4 1382.80   25.74   2
  -5   5  -4 836.890  21.998   2
  -7   5  -4 200.635  12.579   2
  -9   5  -4 232.745  15.024   2
 -13   5  -4 113.293  13.782   2
 -15   5  -4 30.2196 10.9210   2
 -16  -4   4 162.777  28.172   1
 -14  -4   4 202.673  22.652   1
 -12  -4   4  7.7160 10.9745   1
 -10  -4   4 -3.2422  9.1420   1
   4   4  -4 2650.85   30.41   2
   4   4  -4 2735.75   46.92   3
   2   4  -4 278.119  13.488   3
   2   4  -4 290.808   8.732   2
   0   4  -4 725.175  15.053   2
   0   4  -4 725.186  22.699   3
  -4   4  -4 365.227  13.322   2
  -6   4  -4 297.171  13.564   2
  -8   4  -4 277.555  14.775   2
 -10   4  -4 256.825  15.872   2
 -12   4  -4 133.295  13.480   2
 -14   4  -4 75.4813 12.3976   2
 -16   4  -4 17.5143 10.2120   2
 -17  -3   4 52.2196 18.6119   1
 -15  -3   4 160.619  26.813   1
 -13  -3   4 69.4952 19.4440   1
 -11  -3   4 96.6456 19.4722   1
  -9  -3   4 6.12174 8.95581   1
   3   3  -4 1630.68   33.20   3
   3   3  -4 1685.77   23.50   2
   1   3  -4 2788.99   45.45   3
   1   3  -4 2850.17   33.15   2
  -1   3  -4 1756.00   26.14   2
  -5   3  -4 677.497  18.627   2
  -7   3  -4 397.864  16.071   2
  -9   3  -4 228.398  13.875   2
 -11   3  -4 58.0954  9.4613   2
 -13   3  -4 178.313  15.337   2
 -15   3  -4 13.3321  8.9444   2
 -16  -2   4 52.1465 20.5522   1
 -14  -2   4 22.3991 14.8300   1
 -12  -2   4 89.2632 18.4031   1
 -10  -2   4 249.318  20.712   1
  -8  -2   4 310.980  20.248   1
   6   2  -4 5.83346 4.19586   3
  -6  -2   4 0.34246 7.86146   1
   4   2  -4 441.744  12.094   2
   4   2  -4 481.291  16.729   3
   2   2  -4 2944.41   34.81   2
   2   2  -4 2879.08   44.67   3
   0   2  -4 220.598   8.541   2
   0   2  -4 216.006  10.876   3
  -2   2  -4 576.657  14.572   2
  -4   2  -4 106.828   6.709   1
  -4   2  -4 104.085   7.622   2
  -6   2  -4 245.572  11.775   2
  -8   2  -4 299.807  14.601   2
 -12   2  -4 39.0580  8.8802   2
 -14   2  -4 72.0730 11.7691   2
 -16   2  -4 79.2200 13.3092   2
 -17  -1   4 42.0552 20.7530   1
 -15  -1   4  9.1685 15.5238   1
 -13  -1   4 276.789  24.513   1
 -11  -1   4 244.411  20.887   1
  -9  -1   4 196.517  17.768   1
  -7  -1   4 0.12917 6.33283   1
   3   1  -4 1577.16   25.13   2
   3   1  -4 1637.77   30.42   3
   1   1  -4 1606.40   24.60   2
   1   1  -4 1581.20   29.13   3
  -1  -1   4 1692.06   29.22   1
  -1   1  -4 243.153   9.216   2
   1  -1   4 244.330   8.245   1
  -3   1  -4 1329.10   24.08   2
  -3   1  -4 1307.02   25.39   1
  -5   1  -4 136.907   9.383   1
  -5   1  -4 135.861   8.984   2
  -7   1  -4 406.685  15.955   2
  -9   1  -4 242.197  14.015   2
 -11   1  -4 131.598  12.230   2
 -13   1  -4 5.95568 7.01255   2
 -15   1  -4 60.7265 11.9792   2
 -16   0   4 -2.1387 13.5860   1
 -14   0   4 173.409  21.337   1
 -12   0   4 312.868  24.477   1
 -10   0   4 698.183  20.541   2
 -10   0   4 482.942  27.203   1
  -8   0   4 43.4378 11.4510   1
  -6   0   4 850.252  27.296   1
   4   0  -4 236.348  10.351   2
   4   0  -4 255.767  11.701   3
  -4   0   4 274.629  14.094   1
   2   0  -4 1514.43   26.95   3
   2   0  -4 1504.88   25.16   2
  -2   0   4 1464.18   30.51   1
   0   0  -4 2904.90   36.53   2
   0   0  -4 2884.56   40.50   3
   0   0   4 2909.29   42.49   1
  -2   0  -4 820.008  20.626   1
  -2   0  -4 793.181  17.536   2
  -4   0  -4 1337.30   25.23   2
  -4   0  -4 1272.40   28.29   1
  -6   0  -4 255.173  11.921   2
  -6   0  -4 230.905  13.698   1
  -8   0  -4 489.890  22.826   1
  -8   0  -4 491.952  17.953   2
 -10   0  -4 402.909  18.122   2
 -12   0  -4 98.0204 11.2952   2
 -14   0  -4 18.8413  8.1453   2
 -17   1   4 31.6846 19.3761   1
 -15   1   4  0.7076 15.0741   1
 -13   1   4 255.991  23.885   1
 -11   1   4 454.329  27.421   1
 -11   1   4 481.437  18.914   2
  -9   1   4 1061.59   35.98   1
  -7   1   4 20.7152  9.2111   1
  -5   1   4 90.7847  9.9359   1
   3  -1  -4 1485.25   27.28   2
   3  -1  -4 1518.35   26.97   3
  -3   1   4 1506.62   34.05   1
   1  -1  -4 1622.72   26.04   3
   1  -1  -4 1608.50   26.81   2
  -1   1   4 1597.49   31.82   1
  -1  -1  -4 234.191  12.067   1
  -1  -1  -4 238.106   9.925   2
  -3  -1  -4 1249.52   23.51   2
  -3  -1  -4 1223.77   28.97   1
  -5  -1  -4 131.791  10.304   1
  -5  -1  -4 133.877   9.013   2
  -7  -1  -4 384.356  15.215   2
  -7  -1  -4 399.817  19.806   1
  -9  -1  -4 287.348  19.926   1
  -9  -1  -4 254.029  14.284   2
 -11  -1  -4 134.532  12.207   2
 -13  -1  -4 4.13964 7.00255   2
 -16   2   4 44.6994 20.0511   1
 -14   2   4 13.8764 17.1608   1
 -12   2   4 381.862  18.117   2
 -12   2   4 288.016  24.587   1
 -10   2   4 479.432  25.755   1
  -8   2   4 596.758  25.697   1
  -6   2   4 -3.8685  6.7500   1
  -4   2   4 482.231  20.540   1
   2  -2  -4 2717.06   36.41   3
   2  -2  -4 2824.53   40.42   2
  -2   2   4 2853.16   49.14   1
   0  -2  -4 207.155   9.823   2
  -2  -2  -4 561.088  20.313   1
  -2  -2  -4 534.721  15.071   2
  -4  -2  -4 100.360   9.828   1
  -6  -2  -4 240.245  15.124   1
  -6  -2  -4 246.546  12.317   2
  -8  -2  -4 326.435  20.821   1
  -8  -2  -4 316.415  14.929   2
 -10  -2  -4 61.1936 15.9850   1
 -12  -2  -4 28.4528  8.2638   2
 -14  -2  -4 50.0575 10.9034   2
 -17   3   4 49.5603 22.0512   1
 -15   3   4 97.7946 24.8492   1
 -13   3   4 46.9622  8.8232   2
 -13   3   4 27.4123 17.2132   1
 -11   3   4 287.530  16.193   2
 -11   3   4 269.617  21.455   1
  -9   3   4 86.0998 15.7422   1
  -7   3   4 1416.18   40.40   1
  -5   3   4 321.379  18.830   1
  -3   3   4 1746.93   40.04   1
   1  -3  -4 2701.19   40.12   2
  -1   3   4 2733.08   49.14   1
  -1  -3  -4 1602.34   38.55   1
  -1  -3  -4 1623.82   28.37   2
  -3  -3  -4 8.01875 3.87145   2
  -5  -3  -4 673.538  24.877   1
  -5  -3  -4 675.821  19.033   2
  -7  -3  -4 365.349  20.366   1
  -7  -3  -4 396.355  15.950   2
  -9  -3  -4 208.816  13.378   2
  -9  -3  -4 250.752  20.172   1
 -11  -3  -4 68.0629  9.9309   2
 -11  -3  -4 59.4545 17.7991   1
 -13  -3  -4 149.151  14.675   2
 -16   4   4 83.7107 25.7662   1
 -14   4   4 215.120  16.507   2
 -12   4   4 44.0946 16.6312   1
 -12   4   4 80.1334 10.2766   2
 -10   4   4 79.8991 17.0375   1
  -8   4   4 333.230  20.803   1
  -6   4   4 772.109  30.498   1
  -4   4   4 2947.98   58.71   1
   2  -4  -4 270.976  13.080   2
  -2   4   4 254.710  15.057   1
   0  -4  -4 686.256  26.100   1
   0  -4  -4 686.719  18.885   2
  -2  -4  -4 664.435  25.392   1
  -2  -4  -4 610.958  17.670   2
  -4  -4  -4 363.844  19.164   1
  -4  -4  -4 364.159  14.108   2
  -6  -4  -4 274.281  17.549   1
  -6  -4  -4 278.341  13.414   2
  -8  -4  -4 219.089  18.000   1
  -8  -4  -4 225.398  13.337   2
 -10  -4  -4 260.162  22.244   1
 -10  -4  -4 234.560  15.328   2
 -12  -4  -4 100.140  11.830   2
 -12  -4  -4 127.064  24.727   1
 -17   5   4 18.8243 21.5532   1
 -15   5   4 93.0388 26.0232   1
 -13   5   4 136.615  13.359   2
 -11   5   4 75.8829 17.9220   1
  -9   5   4 243.837  19.508   1
  -7   5   4 317.892  22.443   1
  -5   5   4 1903.10   49.15   1
  -3   5   4 821.371  28.942   1
   1  -5  -4 25.6056  4.9753   2
  -1   5   4 16.2202  7.3481   1
  -1  -5  -4 741.006  20.513   2
  -1  -5  -4 752.944  28.922   1
  -3  -5  -4 1312.73   37.98   1
  -3  -5  -4 1271.11   26.79   2
  -5  -5  -4 761.151  29.386   1
  -5  -5  -4 744.628  21.028   2
  -7  -5  -4 164.764  15.566   1
  -7  -5  -4 173.019  11.654   2
  -9  -5  -4 195.990  14.143   2
  -9  -5  -4 200.508  19.076   1
 -11  -5  -4 47.4268 17.9709   1
 -11  -5  -4 28.5603  8.2474   2
 -16   6   4 26.4424 22.6432   1
 -14   6   4 160.263  15.098   2
 -12   6   4 40.4770 17.3777   1
 -12   6   4 65.0105 10.3281   2
 -10   6   4 174.566  18.327   1
  -8   6   4 321.552  24.161   1
  -6   6   4 2030.75   54.15   1
  -4   6   4 109.715  12.442   1
   2  -6  -4 92.9064  9.2587   2
  -2   6   4 97.9174 11.5276   1
   0  -6  -4 353.034  15.252   2
   0  -6  -4 332.615  20.705   1
  -2  -6  -4 680.544  20.329   2
  -2  -6  -4 751.112  30.098   1
  -4  -6  -4 589.528  26.627   1
  -6  -6  -4 687.749  30.194   1
  -6  -6  -4 731.352  21.766   2
  -8  -6  -4 95.2331 14.0422   1
  -8  -6  -4 115.497  11.423   2
 -10  -6  -4 14.5239  7.3149   2
 -10  -6  -4  7.0941 11.9056   1
 -12  -6  -4 55.9475 19.9913   1
 -15   7   4 37.1671 21.3768   1
 -15   7   4 128.747  14.795   2
 -13   7   4 29.1812 17.4104   1
 -13   7   4 71.7132 11.3828   2
 -11   7   4 27.0042 15.3700   1
  -9   7   4 268.855  23.792   1
  -7   7   4 673.879  32.849   1
  -5   7   4 496.878  26.277   1
  -3   7   4 73.4342 10.9315   1
   1  -7  -4 116.453  13.595   1
   1  -7  -4 114.864  10.399   2
  -1  -7  -4 150.348  14.968   1
  -1  -7  -4 147.175  10.311   2
  -3  -7  -4 600.197  19.594   2
  -3  -7  -4 625.416  28.767   1
  -5  -7  -4 236.855  18.647   1
  -7  -7  -4 470.871  27.205   1
  -7  -7  -4 552.232  19.863   2
  -9  -7  -4 0.82295 9.89650   1
  -9  -7  -4 -2.1360  5.1624   2
 -11  -7  -4 131.492  24.287   1
 -13  -7  -4  8.3439 14.7954   1
 -16   8   4 122.759  15.561   2
 -16   8   4 11.8416 21.8055   1
 -14   8   4 17.8483 18.0857   1
 -14   8   4 116.373  14.218   2
 -12   8   4 43.2746 18.1890   1
 -12   8   4 69.3235 10.9842   2
 -10   8   4 130.566  19.491   1
  -8   8   4 370.151  26.341   1
  -6   8   4 595.022  31.072   1
  -4   8   4 627.317  29.335   1
  -2   8   4 283.736  19.599   1
   0  -8  -4 245.653  19.889   1
   0  -8  -4 237.925  14.690   2
  -2  -8  -4 507.797  27.398   1
  -2  -8  -4 516.336  19.369   2
  -4  -8  -4 718.475  32.280   1
  -4  -8  -4 693.517  21.762   2
  -6  -8  -4 217.617  12.856   2
  -6  -8  -4 197.217  18.674   1
  -8  -8  -4 104.523  15.576   1
  -8  -8  -4 97.9304 10.2768   2
 -10  -8  -4 108.297  21.483   1
 -12  -8  -4 59.4134 20.3342   1
 -14  -8  -4 53.7168 20.9005   1
 -15   9   4 63.0382 12.3389   2
 -15   9   4  4.4402 18.7560   1
 -11   9   4 41.3581 18.1054   1
  -7   9   4 387.106  27.498   1
  -5   9   4 701.017  32.966   1
  -3   9   4 93.7903 13.1428   1
   1  -9  -4 569.125  31.018   1
  -1  -9  -4 1008.88   30.06   2
  -1  -9  -4 1012.04   40.69   1
  -3  -9  -4 298.561  15.325   2
  -3  -9  -4 320.195  22.648   1
  -5  -9  -4 546.465  29.747   1
  -5  -9  -4 587.419  20.593   2
  -7  -9  -4 5.38992 9.73232   1
  -7  -9  -4 1.71849 4.50012   2
  -9  -9  -4 136.576  18.852   1
 -11  -9  -4 133.717  20.245   1
 -13  -9  -4 101.011  25.336   1
 -16  10   4 -8.8336 20.2276   1
 -16  10   4 38.3547 11.5204   2
 -14  10   4 73.7195 12.6742   2
 -14  10   4 16.8106 19.7138   1
 -12  10   4 130.205  13.938   2
 -10  10   4 32.9859 19.2200   1
  -8  10   4 189.919  21.929   1
  -6  10   4 184.863  19.828   1
  -4  10   4 431.193  26.577   1
  -2  10   4 190.926  18.174   1
   0 -10  -4 747.915  36.858   1
  -2 -10  -4 238.217  15.224   2
  -2 -10  -4 213.063  20.010   1
  -4 -10  -4 163.627  17.771   1
  -4 -10  -4 189.953  12.831   2
  -6 -10  -4 8.93253 9.51532   1
  -6 -10  -4 5.19056 4.29292   2
  -8 -10  -4 48.3729 16.2650   1
 -10 -10  -4 252.792  25.400   1
 -12 -10  -4 107.242  24.896   1
 -14 -10  -4 21.0108 18.9676   1
 -15  11   4 -0.1765 19.0609   1
 -15  11   4 69.8167 13.1763   2
 -13  11   4  7.1596 17.6020   1
 -13  11   4 26.3933  9.3832   2
 -11  11   4 16.6666 19.3770   1
  -9  11   4 15.2648 15.3353   1
  -7  11   4 214.117  22.905   1
  -5  11   4 70.8943 17.6489   1
  -3  11   4 590.568  31.572   1
   1 -11  -4 445.871  30.031   1
  -1 -11  -4 270.513  23.528   1
  -3 -11  -4 169.012  18.807   1
  -3 -11  -4 162.360  13.362   2
  -5 -11  -4 22.7794 11.7537   1
  -7 -11  -4 34.5395 14.3356   1
  -7 -11  -4 36.7846  7.3788   2
  -9 -11  -4 201.772  23.151   1
 -11 -11  -4 143.720  27.673   1
 -13 -11  -4 49.9403 20.6565   1
 -14  12   4  9.1066 19.0839   1
 -14  12   4 19.1957  9.5588   2
 -12  12   4 12.4143 19.0558   1
 -12  12   4 125.466  15.195   2
 -10  12   4 65.5185 22.7994   1
  -8  12   4 68.0929 20.6541   1
  -6  12   4 179.997  20.809   1
  -4  12   4 24.8811 13.1292   1
  -2  12   4 739.243  36.567   1
   0 -12  -4 441.764  30.885   1
  -2 -12  -4 207.060  15.605   2
  -2 -12  -4 198.160  21.153   1
  -4 -12  -4 43.8030 14.5153   1
  -6 -12  -4 234.890  15.254   2
  -6 -12  -4 228.629  22.595   1
  -8 -12  -4 99.3504 21.2788   1
 -10 -12  -4 56.1486 19.3214   1
 -12 -12  -4 85.3095 24.4289   1
 -15  13   4 15.5690  9.8524   2
 -15  13   4 -13.647  18.813   1
 -13  13   4 42.8872 11.6538   2
 -13  13   4 -4.1683 17.6002   1
 -11  13   4 38.0849 22.8258   1
  -7  13   4 52.1413 18.8506   1
  -5  13   4 98.5779 21.3432   1
  -3  13   4 42.7956 16.0833   1
   1 -13  -4 336.956  28.683   1
  -1 -13  -4 215.886  22.834   1
  -3 -13  -4 129.154  22.538   1
  -3 -13  -4 106.694  12.251   2
  -5 -13  -4 160.018  13.787   2
  -5 -13  -4 136.321  18.734   1
  -7 -13  -4 144.554  19.991   1
  -9 -13  -4 64.3995 19.5639   1
 -11 -13  -4 33.9626 17.9287   1
 -14  14   4  5.3783 20.3255   1
 -14  14   4 39.8227 11.7633   2
 -12  14   4 34.2150 10.2233   2
 -12  14   4 -6.1801 19.5197   1
 -10  14   4 30.0352 19.9442   1
  -8  14   4 61.5671 21.7817   1
  -6  14   4 96.9461 22.1384   1
  -4  14   4 318.728  26.746   1
  -2  14   4 125.508  23.148   1
   0 -14  -4 148.805  20.595   1
  -2 -14  -4 144.914  24.489   1
  -4 -14  -4 168.822  20.822   1
  -6 -14  -4 71.2752 19.3927   1
  -8 -14  -4 122.993  24.562   1
 -10 -14  -4 42.5911 19.6253   1
 -13  15   4 -17.371  16.984   1
 -13  15   4 36.7984 11.8064   2
 -11  15   4 20.9779 21.7649   1
  -9  15   4 27.8112 19.8389   1
  -7  15   4 30.5807 18.3201   1
  -5  15   4 179.404  22.424   1
  -3  15   4 131.272  19.313   1
   1 -15  -4 34.7299 15.8109   1
  -1 -15  -4 116.501  23.746   1
  -3 -15  -4 69.7263 19.5173   1
  -5 -15  -4 78.2552 20.3542   1
  -7 -15  -4 91.1503 22.0619   1
  -9 -15  -4 48.6872 19.8455   1
 -11 -15  -4  9.0045 15.9491   1
 -12  16   4 37.7654 11.7730   2
 -12  16   4 -9.6185 19.4554   1
 -10  16   4 -3.9716 17.3837   1
  -8  16   4 29.2906 20.2345   1
  -6  16   4 13.3404 16.2626   1
  -4  16   4 145.856  21.331   1
  -2  16   4 168.650  21.952   1
   0 -16  -4 53.9512 19.0719   1
  -2 -16  -4 88.7087 22.0870   1
  -4 -16  -4 50.2653 18.3160   1
  -6 -16  -4 108.012  23.888   1
  -8 -16  -4 52.3806 20.1554   1
 -10 -16  -4  8.0277 15.1188   1
 -11  17   4 -8.5350 19.4062   1
 -11  17   4 32.1529 11.6099   2
  -9  17   4 10.6002 20.0772   1
  -7  17   4 35.5147 20.7680   1
  -5  17   4 59.1985 21.3148   1
  -3  17   4 285.526  28.206   1
   1 -17  -4 99.9531 24.3981   1
  -1  17   4 81.6742 21.9954   1
  -1 -17  -4 69.1801 20.8798   1
  -3 -17  -4 74.8000 21.3819   1
  -5 -17  -4 61.1928 20.5004   1
  -7 -17  -4 100.118  24.405   1
  -9 -17  -4 24.0305 16.9666   1
 -10  18   4 -1.2184 19.5735   1
  -8  18   4 15.3684 20.0363   1
  -6  18   4 55.2212 22.6653   1
  -4  18   4 112.242  25.664   1
  -2  18   4 147.701  28.395   1
   0 -18  -4 41.0012 18.7969   1
  -2 -18  -4 22.7115 15.9543   1
  -4 -18  -4 36.6060 17.9862   1
  -6 -18  -4 32.3710 18.2969   1
  -9  19   4 -9.9138 19.1786   1
  -7  19   4  6.0181 18.8791   1
  -5  19   4 84.3548 24.8301   1
  -3  19   4 42.9767 20.8954   1
   1 -19  -4 39.0896 19.5510   1
  -1  19   4 50.9589 21.7856   1
  -1 -19  -4 23.8298 18.0828   1
  -3 -19  -4 80.2522 23.7221   1
  -5 -19  -4 39.2685 18.9567   1
  -8  20   4  4.4517 20.8770   1
  -6  20   4 16.9094 19.9820   1
  -4  20   4  9.1516 18.4631   1
  -2  20   4 78.3000 24.8386   1
   0 -20  -4 -1.6759 14.1558   1
  -2 -20  -4 123.387  29.131   1
  -4 -20  -4 51.4130 21.2243   1
  -7  21   4 -5.1174 19.0223   1
  -5  21   4 -0.4530 18.5683   1
  -3  21   4 21.4774 20.2485   1
  -1  21   4 94.4346 27.1145   1
  -1 -21  -4 27.2862 18.6957   1
  -2  22   4 43.4404 23.0090   1
   2  22  -5  4.0487 10.9057   3
   0  22  -5  3.9410 11.5831   3
   5  21  -5  5.4540 10.8561   3
   3  21  -5  7.3852 11.0652   3
   1  21  -5 2.36182 9.70852   3
  -1  21  -5 -0.9492  9.4709   3
  -3  21  -5 6.55023 9.37607   3
   8  20  -5  2.2823 10.0213   3
   6  20  -5 -1.2390  9.2097   3
   4  20  -5 48.9768 14.2400   3
   2  20  -5 3.01287 9.76573   3
   0  20  -5 3.84973 9.43236   3
  -2  20  -5 -1.2638  8.7763   3
  -4  20  -5 1.82867 8.70951   3
   9  19  -5 5.28961 9.81369   3
   7  19  -5 -1.9762  8.4599   3
   5  19  -5  9.9084 10.3393   3
   3  19  -5 62.8296 14.6012   3
   1  19  -5 -3.2479  7.6715   3
  -1  19  -5 4.52335 8.59875   3
  -3  19  -5 5.12944 8.55686   3
  -7  19  -5 12.3710  9.9385   2
  10  18  -5 10.3681 10.0548   3
 -10 -18   5 13.8702 14.0196   1
   8  18  -5 7.58903 9.02402   3
   6  18  -5 12.3570  9.6502   3
   4  18  -5 23.6844 11.4744   3
   2  18  -5 12.5782 10.0028   3
   0  18  -5 2.75705 8.39978   3
  -2  18  -5 41.5593 11.9506   3
  -4  18  -5 1.69578 7.38552   3
  -6  18  -5 2.48782 7.21142   2
  -8  18  -5 2.58329 8.98630   2
  11  17  -5 11.9945 10.3063   3
 -11 -17   5  6.7212 15.1784   1
   9  17  -5 4.28399 9.15268   3
  -9 -17   5  0.2888 12.1448   1
   7  17  -5 0.40050 7.71857   3
   5  17  -5 14.5256  9.8619   3
   3  17  -5 2.52400 8.37628   3
   1  17  -5 0.23358 7.61774   3
  -1  17  -5 2.76816 7.63859   3
  -3  17  -5 6.90635 8.43306   3
  -5  17  -5 -2.2352  6.5972   2
  -7  17  -5 -3.7840  7.1645   2
  -9  17  -5 3.24905 9.10066   2
  12  16  -5 7.28756 9.76609   3
 -12 -16   5  2.7611 13.7065   1
  10  16  -5 -7.8019  7.3733   3
 -10 -16   5  0.5771 10.0526   1
   8  16  -5 17.6063  9.1262   3
  -8 -16   5 17.7423 15.1745   1
   6  16  -5 7.84084 8.48868   3
   4  16  -5 36.8519 11.4996   3
   2  16  -5 9.52912 8.52905   3
   0  16  -5 -1.2244  6.1438   3
  -2  16  -5 1.83725 6.81421   3
  -4  16  -5 -2.4925  5.6335   2
  -6  16  -5 22.6500  8.5836   2
  -8  16  -5 -4.2203  7.6039   2
 -10  16  -5 11.3036  9.3287   2
  13  15  -5 -5.5747  8.4493   3
  11  15  -5 4.16272 8.89677   3
 -11 -15   5 -1.5926  8.6039   1
   9  15  -5 20.5983  9.6350   3
   7  15  -5 6.55864 7.93854   3
  -7 -15   5  6.1109 12.5398   1
   5  15  -5 27.1407  9.9362   3
   3  15  -5 29.0902  9.9468   3
   1  15  -5 4.84676 7.13722   3
  -1  15  -5 2.68940 6.53271   3
  -3  15  -5 0.08114 4.57101   2
  -5  15  -5 7.62810 6.54826   2
  -7  15  -5 -4.1579  6.4238   2
  -9  15  -5 3.74916 8.40821   2
 -11  15  -5 34.3060 12.4899   2
  12  14  -5 18.5928 10.0288   3
 -12 -14   5 11.8795 20.9407   1
  10  14  -5 8.67729 8.30877   3
 -10 -14   5 13.6051 13.7027   1
   8  14  -5 32.5089  9.4643   3
  -8 -14   5 12.2351 11.8722   1
   6  14  -5 42.7172 10.3791   3
  -6 -14   5 35.4251 14.7190   1
   4  14  -5 3.82169 6.94838   3
   2  14  -5 -2.9980  6.4018   3
   0  14  -5 113.555  14.796   3
  -2  14  -5 3.83746 5.72476   3
  -2  14  -5 -2.8838  3.9952   2
  -4  14  -5 64.1345  9.0826   2
  -6  14  -5 -4.2134  5.6851   2
  -8  14  -5 2.49738 7.69410   2
 -10  14  -5 3.07615 8.69099   2
 -13 -13   5 -0.6693 16.0221   1
  11  13  -5 -4.8315  6.9891   3
 -11 -13   5 12.2787 20.1902   1
   9  13  -5 12.0386  8.2196   3
  -9 -13   5 -9.4370 14.8721   1
   7  13  -5 115.537  14.358   3
  -7 -13   5 115.566  17.661   1
   5  13  -5 3.65289 6.31554   3
  -5 -13   5  2.6622 11.0223   1
   3  13  -5 124.237  15.083   3
   1  13  -5 154.961  16.384   3
  -1  13  -5 20.1600  7.9352   3
  -1  13  -5 29.0489  5.6825   2
  -3  13  -5 49.7357  7.9660   2
  -5  13  -5 5.71732 5.90592   2
  -7  13  -5 18.4755  8.1018   2
  -9  13  -5 -2.1366  7.1421   2
 -11  13  -5 2.89953 9.12837   2
 -14 -12   5  2.0512 17.2766   1
  12  12  -5 0.77000 7.82503   3
 -12 -12   5  9.5366 17.5907   1
  10  12  -5 29.2744  9.7976   3
 -10 -12   5 -0.1323 16.1744   1
   8  12  -5 5.60804 6.63665   3
  -8 -12   5 -6.3923 12.5898   1
   6  12  -5 6.33467 6.61606   3
  -6 -12   5 -3.1131 10.8691   1
   4  12  -5 104.796  13.509   3
  -4 -12   5 94.5360 13.3037   1
   2  12  -5 6.22715 6.37482   3
   0  12  -5 18.4600  7.6123   3
   0  12  -5 26.3109  5.0007   2
  -2  12  -5 0.33906 3.92546   2
  -4  12  -5 20.2190  6.1416   2
  -6  12  -5 7.03801 6.31606   2
  -8  12  -5 2.68638 6.41542   2
 -10  12  -5 1.81328 8.29362   2
 -12  12  -5 2.43931 8.71755   2
 -13 -11   5  1.2374 14.3530   1
  11  11  -5 33.6935 10.6609   3
 -11 -11   5 41.2420 20.3028   1
   9  11  -5 24.3763  8.8609   3
  -9 -11   5 -0.7889 13.5421   1
   7  11  -5 6.50655 6.09922   3
  -7 -11   5 -5.1378 11.0423   1
   5  11  -5 56.2002 10.3005   3
   3  11  -5 59.5141 10.6099   3
  -3 -11   5 39.6244 11.6662   1
   1  11  -5 54.0764 10.0635   3
   1  11  -5 43.5061  5.2566   2
  -1  11  -5 76.7823  7.2527   2
  -1  11  -5 77.6887 11.3792   3
  -3  11  -5 25.5359  6.0502   2
  -5  11  -5 88.0734 10.0423   2
  -7  11  -5 1.85371 5.81999   2
  -9  11  -5 5.31788 7.53230   2
 -11  11  -5 -3.8330  7.6011   2
 -13  11  -5 2.67651 8.54157   2
 -14 -10   5 28.1033 17.0794   1
  12  10  -5 27.0059 10.4514   3
 -12 -10   5 12.7326 14.3644   1
  10  10  -5 0.07134 6.83797   3
 -10 -10   5  2.7408 14.1151   1
   8  10  -5 45.1492  9.1605   3
  -8 -10   5  9.5635 12.6440   1
   6  10  -5 6.29011 5.78805   3
  -6 -10   5  4.4157 10.0856   1
   4  10  -5 2.44265 5.35801   3
  -4 -10   5 -3.6182  8.1970   1
   2  10  -5 71.7998 10.4499   3
  -2 -10   5 78.5404 10.0565   1
   0  10  -5 32.8105  4.9505   2
   0  10  -5 32.6051  8.1160   3
  -2  10  -5 15.5685  4.5249   2
  -4  10  -5 30.6078  6.4019   2
  -6  10  -5 138.687  12.174   2
  -8  10  -5 7.63301 6.82531   2
 -10  10  -5 16.0628  8.0766   2
 -12  10  -5 1.13375 8.67585   2
 -15  -9   5 31.4646 15.9019   1
 -13  -9   5  8.7252 13.0047   1
  11   9  -5 -1.6707  6.4648   3
 -11  -9   5 -1.1646 13.3552   1
   9   9  -5 20.7609  8.3047   3
  -9  -9   5  5.5462 12.5022   1
   7   9  -5 3.00962 5.27123   3
  -7  -9   5 -2.4916 10.0629   1
   3   9  -5 46.9924  8.5566   3
   1   9  -5 38.5736  4.9416   2
   1   9  -5 36.7156  7.9261   3
  -1  -9   5 39.1237  8.5788   1
  -1   9  -5 0.71664 4.17968   3
  -1   9  -5 1.11405 3.02502   2
  -3   9  -5 1.85754 3.52270   2
  -5   9  -5 79.2894  9.0410   2
  -7   9  -5 94.3120 10.7048   2
  -9   9  -5 44.8531 10.0427   2
 -11   9  -5 -0.3909  7.2744   2
 -13   9  -5 1.90051 9.08944   2
 -14  -8   5 12.7656 15.4054   1
 -12  -8   5 12.5244 14.2654   1
  10   8  -5 14.3261  8.3710   3
   8   8  -5 12.5658  6.9554   3
  -8  -8   5  5.8333 11.9712   1
   6   8  -5 41.3508  7.8566   3
  -6  -8   5 -5.1921  7.7865   1
   2   8  -5 10.7247  3.2856   2
   2   8  -5 10.3774  4.9767   3
  -2  -8   5 -2.2905  4.9318   1
   0   8  -5 20.6672  6.2714   3
   0   8  -5 16.0010  3.9778   2
  -2   8  -5 1.79090 3.03272   2
  -4   8  -5 107.735   9.154   2
  -6   8  -5 13.6902  5.7032   2
  -8   8  -5 291.744  17.530   2
 -10   8  -5 -2.4732  6.1714   2
 -12   8  -5 11.9401  8.7156   2
 -14   8  -5 12.3401 10.5186   2
 -13  -7   5 20.8978 13.9934   1
  11   7  -5 5.99218 7.35553   3
 -11  -7   5 -3.1404 12.2510   1
   9   7  -5 13.2820  7.7902   3
  -9  -7   5  0.3005 11.5287   1
   7   7  -5 2.45257 4.95292   3
  -7  -7   5 -4.0223  9.1743   1
   5   7  -5 10.5428  4.9074   3
  -5  -7   5 -5.4587  6.5542   1
   3   7  -5 41.8547  7.2172   3
   3   7  -5 46.8599  5.3007   2
   1   7  -5 30.5380  4.3611   2
   1   7  -5 27.3868  6.4794   3
  -1   7  -5 19.7593  3.9728   2
  -3   7  -5 4.16325 3.62709   2
  -5   7  -5 10.5285  4.7122   2
  -7   7  -5 29.8314  6.9341   2
  -9   7  -5 -0.6460  5.3649   2
 -11   7  -5 4.12788 7.27397   2
 -13   7  -5 7.74281 8.82153   2
 -16  -6   5  6.6243 11.7231   1
 -14  -6   5 -1.6100 10.1237   1
 -12  -6   5 -3.4806 11.3190   1
  10   6  -5 7.49817 7.73229   3
 -10  -6   5 -6.7925 11.2880   1
   8   6  -5 2.60622 5.57177   3
  -8  -6   5 -0.8413 10.3016   1
   4   6  -5 278.537  15.979   3
   4   6  -5 287.033   9.110   2
   2   6  -5 6.19661 3.99993   3
   2   6  -5 8.77593 3.52735   2
  -2  -6   5 -1.0349  3.2927   1
   0   6  -5 64.3095  8.5967   3
   0   6  -5 63.0706  6.1306   2
  -2   6  -5 77.9004  6.8659   2
  -4   6  -5 90.1298  8.0383   2
  -6   6  -5 18.9831  5.3103   2
  -8   6  -5 9.81178 6.08183   2
 -10   6  -5 38.2368  8.9828   2
 -12   6  -5 10.9656  8.2002   2
 -14   6  -5 21.6241 10.5443   2
 -15  -5   5  1.0130 10.0112   1
 -13  -5   5  8.8709 14.1772   1
 -11  -5   5 -2.9166 11.1198   1
   9   5  -5 -1.4787  5.9178   3
  -9  -5   5 -7.1787 10.1931   1
   7   5  -5 0.12242 4.68195   3
  -7  -5   5 1.87544 9.34318   1
   5   5  -5 0.90403 3.53278   3
   5   5  -5 3.89264 2.20053   2
  -5  -5   5 -5.9606  5.4740   1
   3   5  -5 453.116  12.179   2
   3   5  -5 422.723  18.567   3
   1   5  -5 249.798   9.846   2
   1   5  -5 237.903  14.220   3
  -1   5  -5 416.869  13.325   2
  -3   5  -5 25.5813  4.8907   2
  -5   5  -5 91.5206  8.4445   2
  -7   5  -5 0.15646 4.31522   2
  -9   5  -5 0.20287 5.10484   2
 -11   5  -5 -1.9583  5.5805   2
 -13   5  -5 2.71576 7.87349   2
 -15   5  -5 -7.3729  8.7206   2
 -16  -4   5  5.1311 15.0051   1
 -14  -4   5  7.1007 13.8590   1
 -12  -4   5 -0.4698 13.4481   1
 -10  -4   5  1.4558 11.4909   1
   8   4  -5 -2.1177  4.7977   3
  -8  -4   5  1.3271 10.3967   1
   4   4  -5 196.940  12.556   3
   4   4  -5 222.360   8.572   2
   2   4  -5 3.08051 3.38192   3
   2   4  -5 4.04011 3.18166   2
  -2  -4   5 -0.5452  3.2526   1
   0   4  -5 6.20941 3.44557   2
   0   4  -5 3.56704 3.51305   3
  -2   4  -5 18.3482  4.3189   2
  -4   4  -5 45.9767  6.2782   2
  -6   4  -5 57.5839  7.4164   2
  -8   4  -5 5.44787 4.85404   2
 -10   4  -5 1.54658 5.95126   2
 -12   4  -5 0.10776 7.20327   2
 -14   4  -5 -13.622   7.403   2
 -15  -3   5  1.6667 11.1522   1
 -13  -3   5 -1.7846 11.7716   1
 -11  -3   5 -7.1590 11.7516   1
   9   3  -5 10.5368  7.1369   3
  -9  -3   5 -0.0873  9.6506   1
   3   3  -5 223.568  12.577   3
   3   3  -5 219.937   9.345   2
   1   3  -5 20.9282  4.5925   3
   1   3  -5 26.1372  4.6609   2
  -1   3  -5 171.940   9.126   2
  -3   3  -5 490.295  15.427   2
  -5   3  -5 0.81770 3.31439   2
  -7   3  -5 114.890  10.206   2
  -9   3  -5 8.37686 5.60033   2
 -11   3  -5 -3.7279  5.0969   2
 -13   3  -5 -0.8631  7.3492   2
 -15   3  -5 -10.202   7.847   2
 -16  -2   5 -0.0227 14.0739   1
 -14  -2   5 -2.2199 10.8989   1
 -12  -2   5 -6.3203 12.0944   1
 -10  -2   5 -4.9987 11.7765   1
   8   2  -5 4.35008 5.58742   3
  -8  -2   5 -5.0908  9.7347   1
   6   2  -5 56.0710  7.8756   3
   4   2  -5 224.773  12.424   3
   4   2  -5 215.739   9.464   2
   2   2  -5 -1.6945  2.6957   2
   2   2  -5 0.47322 2.59140   3
  -2  -2   5 -2.3748  3.0721   1
   0   2  -5 164.465   8.496   2
   0   2  -5 174.966  10.564   3
   0  -2   5 137.226   7.823   1
  -2   2  -5 72.6225  6.9174   2
  -4   2  -5 159.699   9.508   2
  -6   2  -5 33.8593  6.4362   2
  -8   2  -5 73.0919  9.2543   2
 -10   2  -5 24.5037  7.8212   2
 -12   2  -5 0.51211 6.91684   2
 -14   2  -5 -1.7480  7.6361   2
 -17  -1   5  4.5626 13.7629   1
 -15  -1   5 24.1099 16.6436   1
 -13  -1   5 13.5291 16.2627   1
 -11  -1   5 41.3795 17.0460   1
  -9  -1   5 -5.2297  9.6290   1
   7   1  -5 69.2820  9.3215   3
   5   1  -5 1.63326 3.69024   3
   5   1  -5 0.93580 2.45892   2
  -5  -1   5 -6.3771  6.2539   1
   3   1  -5 18.0542  4.3636   3
   3   1  -5 17.1688  3.8793   2
  -3  -1   5 18.8292  7.0964   1
   1   1  -5 240.297  11.449   3
   1   1  -5 238.470  10.371   2
  -1  -1   5 261.930  11.675   1
  -1   1  -5 287.149  11.605   2
  -1   1  -5 317.368  13.714   3
   1  -1   5 296.363  10.193   1
  -3   1  -5 32.2664  5.1149   2
  -3   1  -5 42.2787  6.8293   1
  -5   1  -5 24.2706  6.6628   1
  -5   1  -5 19.2877  5.1778   2
  -7   1  -5 3.11483 4.27570   2
  -9   1  -5 10.7923  6.1647   2
 -11   1  -5 27.6876  8.1446   2
 -13   1  -5 -1.3832  7.0000   2
 -15   1  -5 -6.4459  7.7431   2
 -16   0   5 -0.1868 12.6567   1
 -14   0   5 -1.8022 15.8361   1
 -12   0   5  1.9144 14.2233   1
 -10   0   5 -5.1635  9.6212   1
  -8   0   5 2.17429 8.56791   1
   6   0  -5 0.27225 3.82393   3
  -6   0   5 3.01609 6.83987   1
   4   0  -5 -1.6417  2.8730   3
   4   0  -5 0.16457 2.24498   2
  -4   0   5 1.07977 6.41319   1
   2   0  -5 -0.3890  2.2667   3
   2   0  -5 -2.2629  2.5560   2
  -2   0   5 1.47114 4.68729   1
   0   0  -5 0.08929 2.00057   3
   0   0  -5 -0.6805  2.7640   2
   0   0   5 -2.8650  3.0988   1
  -2   0  -5 0.63139 3.50526   2
  -2   0  -5 -1.7109  3.2167   1
  -4   0  -5 -2.3236  3.3597   2
  -4   0  -5 -1.2798  3.5909   1
  -6   0  -5 -0.4745  5.4246   1
  -6   0  -5 -1.2056  3.7484   2
  -8   0  -5 -2.2412  4.9966   2
 -10   0  -5 0.10840 5.82365   2
 -12   0  -5 -5.5802  6.0329   2
 -14   0  -5 -0.0846  8.2895   2
 -17   1   5  5.9674 15.7648   1
 -15   1   5 12.2402 18.1606   1
 -13   1   5  4.0901 13.7973   1
 -11   1   5 32.1183 14.0516   1
  -9   1   5 15.7319 10.8107   1
  -7   1   5 35.0381 11.2713   1
   5  -1  -5 -1.2152  3.3012   3
  -5   1   5 -1.1690  7.5357   1
   3  -1  -5 20.4770  4.3093   2
   3  -1  -5 21.6814  4.1918   3
  -3   1   5 7.58739 6.39357   1
   1  -1  -5 241.262  11.113   2
   1  -1  -5 243.795  10.033   3
  -1   1   5 234.811  12.372   1
  -1  -1  -5 292.872  12.311   2
  -1  -1  -5 321.680  11.898   3
  -3  -1  -5 23.7989  5.2483   2
  -3  -1  -5 36.9245  8.1702   1
  -5  -1  -5 19.5636  5.2574   2
  -5  -1  -5 25.4006  7.6374   1
  -7  -1  -5 2.11057 5.04419   2
  -7  -1  -5 0.50086 6.86517   1
  -9  -1  -5 10.1692  5.7365   2
 -11  -1  -5 20.7424  8.0857   2
 -13  -1  -5 1.06245 7.19346   2
 -15  -1  -5 -4.5198  8.5803   2
 -16   2   5 -8.4281 16.3041   1
 -14   2   5 -1.4231 16.7092   1
 -12   2   5 10.2542 14.5751   1
 -10   2   5  6.0778 10.5664   1
  -8   2   5 0.72815 8.59971   1
  -6   2   5 54.7123 13.2849   1
   4  -2  -5 200.496  11.760   2
   4  -2  -5 219.654  10.844   3
  -4   2   5 203.265  14.644   1
   2  -2  -5 -2.0529  2.1548   2
   2  -2  -5 0.44868 2.27043   3
  -2   2   5 0.96736 4.87527   1
   0  -2  -5 172.644  10.086   2
   0  -2  -5 162.013   7.372   3
   0   2   5 169.986  11.028   1
  -2  -2  -5 64.4269  8.4970   1
  -2  -2  -5 67.3107  7.3596   2
  -4  -2  -5 139.058   9.466   2
  -4  -2  -5 144.457  11.620   1
  -6  -2  -5 44.0898 10.7159   1
  -6  -2  -5 41.9045  7.2289   2
  -8  -2  -5 81.8257 14.7702   1
  -8  -2  -5 66.0077  9.1487   2
 -10  -2  -5 22.8356  7.4884   2
 -12  -2  -5 1.75691 6.93691   2
 -14  -2  -5 0.93101 8.04691   2
 -17   3   5  2.7832 18.5476   1
 -15   3   5 -7.9866 17.0751   1
 -13   3   5  4.1697 14.6244   1
 -11   3   5  6.8369 12.4578   1
  -9   3   5 20.4465 10.6019   1
  -7   3   5 90.7563 13.0232   1
  -5   3   5 123.913  13.587   1
   3  -3  -5 212.979   9.643   3
   3  -3  -5 210.052  12.109   2
  -3   3   5 228.744  15.108   1
   1  -3  -5 19.7926  4.6369   2
   1  -3  -5 22.4045  3.2258   3
  -1   3   5 32.7618  8.2135   1
  -1  -3  -5 178.459   7.047   3
  -1  -3  -5 177.080  10.200   2
  -1  -3  -5 159.508  13.048   1
  -3  -3  -5 455.302  20.996   1
  -3  -3  -5 469.169  16.584   2
  -5  -3  -5 5.59818 6.37905   1
  -5  -3  -5 3.72934 4.49092   2
  -7  -3  -5 99.9775 12.1112   1
  -7  -3  -5 104.503  10.374   2
  -9  -3  -5  9.6430 10.5574   1
  -9  -3  -5 20.8212  7.3210   2
 -11  -3  -5 6.83531 7.26885   2
 -13  -3  -5 -2.9935  7.1043   2
 -16   4   5  3.9921 19.1322   1
 -14   4   5  6.5588 17.0932   1
 -12   4   5  7.2053 14.0200   1
 -10   4   5 27.9265 12.7421   1
  -8   4   5 -7.7583  8.4710   1
  -6   4   5 211.869  17.534   1
   2  -4  -5 3.98181 3.33079   2
  -2   4   5 1.81346 5.96969   1
   0  -4  -5 -0.5182  2.7277   2
   0  -4  -5 6.60112 6.24109   1
  -2  -4  -5 19.9097  5.0753   2
  -2  -4  -5 23.5358  9.0607   1
  -4  -4  -5 55.0930 11.7281   1
  -4  -4  -5 47.6704  6.9941   2
  -6  -4  -5 78.7728 13.7794   1
  -8  -4  -5 1.56061 5.70883   2
  -8  -4  -5 3.98802 8.70409   1
 -10  -4  -5 1.72471 7.15638   2
 -10  -4  -5  4.9677 10.6016   1
 -12  -4  -5 -3.1573  7.2591   2
 -15   5   5  3.7677 18.3799   1
 -13   5   5  1.3588 14.8537   1
 -13   5   5 5.59933 6.25263   2
 -11   5   5 18.7563 13.9777   1
  -9   5   5  3.8270 10.5519   1
  -7   5   5  1.3171 10.2666   1
  -5   5   5 -2.9094  8.2087   1
   3  -5  -5 442.365  19.478   2
  -3   5   5 421.626  21.747   1
   1  -5  -5 237.875  13.201   2
  -1   5   5 227.441  15.785   1
  -1  -5  -5 392.007  22.118   1
  -1  -5  -5 388.809  15.950   2
  -3  -5  -5 17.4082  9.0826   1
  -3  -5  -5 17.7803  5.1702   2
  -5  -5  -5 92.2142  8.9418   2
  -5  -5  -5 90.6272 12.0031   1
  -7  -5  -5 -0.6470  7.1179   1
  -7  -5  -5 0.57153 5.30659   2
  -9  -5  -5 -2.9373  6.3945   2
  -9  -5  -5  7.4598 10.1467   1
 -11  -5  -5 -2.3669  6.8626   2
 -16   6   5 -10.455  19.191   1
 -14   6   5 -1.9471  6.4309   2
 -14   6   5  3.3498 16.9616   1
 -12   6   5  8.7545 14.4214   1
 -10   6   5 12.4020 13.0362   1
  -8   6   5 -0.9504 10.7954   1
  -6   6   5 115.149  15.306   1
  -4   6   5 251.028  18.195   1
   2  -6  -5 7.13801 4.35330   2
  -2   6   5 4.47842 7.40854   1
   0  -6  -5 81.9132 14.5322   1
   0  -6  -5 51.6246  7.2457   2
  -2  -6  -5 93.8350 15.9398   1
  -2  -6  -5 70.7416  8.0346   2
  -4  -6  -5 73.9985  8.4975   2
  -4  -6  -5 74.5011 14.3730   1
  -6  -6  -5 23.1086 10.2520   1
  -6  -6  -5 20.7834  6.2026   2
  -8  -6  -5 13.3453  6.7486   2
  -8  -6  -5 7.33991 9.62655   1
 -10  -6  -5 42.0675  9.3942   2
 -10  -6  -5 47.0008 15.8027   1
 -15   7   5 -2.6284 17.8379   1
 -15   7   5 17.5829  8.5285   2
 -13   7   5  0.4335 15.5527   1
 -13   7   5 8.25241 7.25982   2
 -11   7   5  0.6800 13.0950   1
  -9   7   5 11.3751 14.3446   1
  -7   7   5  6.9401 11.2363   1
  -5   7   5 -0.0972  8.2558   1
  -3   7   5 57.5628 12.9515   1
   1  -7  -5 27.8083  6.2259   2
  -1   7   5 18.1084  9.0059   1
  -1  -7  -5 18.3482  5.2685   2
  -1  -7  -5 20.1819  9.8220   1
  -3  -7  -5 7.68073 8.40891   1
  -3  -7  -5 4.38464 4.01563   2
  -5  -7  -5 11.2314  5.1951   2
  -5  -7  -5 11.0315  9.2048   1
  -7  -7  -5 47.5177 14.0477   1
  -7  -7  -5 35.0049  7.4560   2
  -9  -7  -5 3.42294 9.70031   1
  -9  -7  -5 2.76490 5.92518   2
 -11  -7  -5  2.6711 11.8779   1
 -16   8   5 -10.566  19.694   1
 -16   8   5 11.7183  9.2418   2
 -14   8   5 -0.5016 16.7108   1
 -14   8   5 8.43881 8.51437   2
 -12   8   5  5.7566 15.3501   1
 -10   8   5  3.5809 14.5133   1
  -8   8   5 12.3691 13.0592   1
  -6   8   5 58.5323 15.6656   1
  -4   8   5 235.257  19.441   1
   2  -8  -5 15.1874  5.8761   2
  -2   8   5 9.69346 9.12207   1
   0  -8  -5 14.0562  9.5797   1
   0  -8  -5 15.3560  5.4368   2
  -2  -8  -5 -1.2388  3.4678   2
  -2  -8  -5 -1.3964  7.4510   1
  -4  -8  -5 91.6540 16.8831   1
  -4  -8  -5 94.6860  9.5755   2
  -6  -8  -5 7.78476 9.53333   1
  -6  -8  -5 9.03974 5.09857   2
  -8  -8  -5 264.208  16.296   2
  -8  -8  -5 254.999  22.384   1
 -10  -8  -5 -3.0102  5.6465   2
 -10  -8  -5 -7.1702 10.0404   1
 -12  -8  -5 11.7562 14.8422   1
 -15   9   5 -3.2938 18.0938   1
 -15   9   5 26.1739 10.1187   2
 -13   9   5 -2.9125  6.3548   2
 -13   9   5 12.7444 17.5199   1
 -11   9   5  0.9303 15.4509   1
  -9   9   5  9.4145 15.0292   1
  -7   9   5 10.2203 12.4965   1
  -5   9   5 139.308  16.683   1
  -3   9   5 42.9247 13.4217   1
   1  -9  -5 38.9190 13.4057   1
   1  -9  -5 42.0255  8.5544   2
  -1   9   5 13.3919  9.3267   1
  -1  -9  -5 3.54160 8.18607   1
  -1  -9  -5 3.85456 4.33059   2
  -3  -9  -5 3.35487 4.12437   2
  -3  -9  -5 0.22476 7.68482   1
  -5  -9  -5 67.2645  8.8059   2
  -5  -9  -5 68.5766 15.8917   1
  -7  -9  -5 75.9015 17.3283   1
  -7  -9  -5 72.5340  9.5818   2
  -9  -9  -5 32.8763  8.7846   2
  -9  -9  -5 35.7206 14.7039   1
 -11  -9  -5  1.7142 11.6795   1
 -13  -9  -5 -7.0527 13.4195   1
 -16  10   5 0.92614 8.23238   2
 -14  10   5  4.9729 18.7854   1
 -14  10   5 9.77595 8.60969   2
 -12  10   5 -5.1077 15.0828   1
 -10  10   5 16.7656 18.3489   1
  -8  10   5 32.4275 16.6574   1
  -6  10   5  0.2809 10.6008   1
  -4  10   5 -0.1417  9.2463   1
  -2  10   5 94.0298 17.8171   1
   0 -10  -5 37.7115  8.5510   2
   0 -10  -5 51.3717 15.4790   1
  -2 -10  -5 33.8647 13.0452   1
  -2 -10  -5 27.0893  6.8995   2
  -4 -10  -5 28.5834 12.4046   1
  -4 -10  -5 14.5584  5.6680   2
  -6 -10  -5 106.993  10.744   2
  -6 -10  -5 106.043  15.863   1
  -8 -10  -5 7.97621 5.74084   2
  -8 -10  -5  1.9700 10.0387   1
 -10 -10  -5 12.2213 13.7148   1
 -12 -10  -5  8.5227 14.5056   1
 -15  11   5 -9.4919 19.7662   1
 -15  11   5 -1.0067  7.8496   2
 -13  11   5 -5.7348 16.3638   1
 -13  11   5 1.43781 7.10014   2
 -11  11   5 -1.5126 17.5096   1
  -9  11   5 13.8483 15.4173   1
  -7  11   5 -2.8303 12.0053   1
  -5  11   5 75.0992 18.4429   1
  -3  11   5 82.8587 18.3726   1
   1 -11  -5 45.0263 15.3393   1
  -1 -11  -5 103.938  12.603   2
  -1 -11  -5 104.084  20.319   1
  -3 -11  -5 28.3296  7.5656   2
  -3 -11  -5 50.3434 15.5821   1
  -5 -11  -5 72.7526  9.7752   2
  -5 -11  -5 88.2939 18.8287   1
  -7 -11  -5  5.8684 10.2277   1
  -7 -11  -5 2.73026 4.98528   2
  -9 -11  -5 -7.0587  9.7698   1
 -11 -11  -5  1.1081 12.7560   1
 -13 -11  -5  5.3152 15.5288   1
 -14  12   5 -3.5750 18.5208   1
 -14  12   5 0.62234 7.45478   2
 -12  12   5 -3.0121 17.7399   1
 -10  12   5 11.4689 17.3348   1
  -8  12   5  1.4874 14.5401   1
  -6  12   5  8.8306 13.2614   1
  -4  12   5 119.154  21.814   1
  -2  12   5 16.2323 12.4555   1
   0 -12  -5 25.7780 13.1872   1
  -2 -12  -5 3.68892 5.58949   2
  -2 -12  -5 -2.3860  9.0409   1
  -4 -12  -5 24.3524 13.4383   1
  -4 -12  -5 24.0481  7.3439   2
  -6 -12  -5 13.8647 11.8553   1
  -6 -12  -5 10.0162  5.8832   2
  -8 -12  -5 -0.1987 10.3616   1
 -10 -12  -5 -2.5278 10.7715   1
 -12 -12  -5  2.6409 13.6957   1
 -13  13   5 4.30378 7.69438   2
 -13  13   5 -7.0439 16.6868   1
 -11  13   5 -2.2682 19.0701   1
  -9  13   5 11.7387 16.7298   1
  -7  13   5 79.8233 21.4076   1
  -5  13   5  0.5416 12.0325   1
  -3  13   5 131.573  18.457   1
   1 -13  -5 109.970  22.948   1
  -1 -13  -5 44.0280 16.1809   1
  -3 -13  -5 72.0945 18.8353   1
  -3 -13  -5 59.1108 10.7445   2
  -5 -13  -5 0.93609 9.72346   1
  -5 -13  -5 4.04549 5.72640   2
  -7 -13  -5 23.0246 14.1787   1
  -9 -13  -5 -5.1999 11.3425   1
 -11 -13  -5  2.6882 13.6239   1
 -14  14   5 1.14678 8.47095   2
 -12  14   5 -9.3435 19.6249   1
 -10  14   5  0.8623 17.1058   1
  -8  14   5 29.2414 18.6328   1
  -6  14   5 27.8968 17.5789   1
  -4  14   5  1.4529 12.3526   1
  -2  14   5 -1.6432 11.6174   1
   0 -14  -5 115.035  23.276   1
  -2 -14  -5  1.0986 10.4057   1
  -4 -14  -5 43.9696  9.7961   2
  -4 -14  -5 56.3790 18.0060   1
  -6 -14  -5 -2.1568 10.3906   1
  -8 -14  -5  1.0639 11.2606   1
 -10 -14  -5 -1.3396 13.3279   1
 -13  15   5 -2.7653  8.3196   2
 -13  15   5  2.5774 20.8278   1
 -11  15   5 -2.7394 18.9439   1
  -9  15   5  2.4984 17.1220   1
  -7  15   5  2.3307 15.1699   1
  -5  15   5 14.3527 15.4525   1
  -3  15   5 27.1323 16.3749   1
   1 -15  -5  2.4931 11.5006   1
  -1  15   5  0.1557 13.0629   1
  -1 -15  -5  3.3488 11.8397   1
  -3 -15  -5  0.4221 10.9266   1
  -5 -15  -5  3.6761 12.1566   1
  -7 -15  -5  3.2829 12.0514   1
  -9 -15  -5 -1.6177 12.1043   1
 -12  16   5 -3.9157 22.1108   1
 -10  16   5 -1.6687 18.9699   1
  -8  16   5 12.0493 18.6354   1
  -6  16   5 -4.4465 14.5893   1
  -4  16   5 42.6430 19.3520   1
  -2  16   5 10.2960 15.0400   1
   0 -16  -5  0.9592 11.5147   1
  -2 -16  -5 -3.1950 10.5627   1
  -4 -16  -5 -3.8019 10.4927   1
  -6 -16  -5 17.0011 15.1613   1
  -8 -16  -5  3.2065 13.1517   1
 -11  17   5 -13.186  19.700   1
  -9  17   5  3.2807 19.8325   1
  -7  17   5 -3.9098 15.2793   1
  -5  17   5  6.4078 15.5980   1
  -3  17   5 -3.4342 13.2020   1
   1 -17  -5  4.5531 12.6006   1
  -1  17   5 -0.5253 14.6178   1
  -1 -17  -5  3.6326 12.8025   1
  -3 -17  -5  9.8685 13.1147   1
  -5 -17  -5  2.8932 12.7201   1
  -7 -17  -5  6.3851 13.6796   1
 -10  18   5 -12.469  19.193   1
  -8  18   5 -9.3860 18.6657   1
  -6  18   5 -2.9936 16.9527   1
  -4  18   5 37.7257 20.4786   1
  -2  18   5 21.7344 18.1403   1
   0 -18  -5  4.2873 13.9621   1
  -2 -18  -5 45.5054 19.4514   1
  -4 -18  -5 -7.4054 11.4290   1
  -6 -18  -5 14.9427 15.6437   1
  -9  19   5 -1.6973 20.0048   1
  -7  19   5 -6.3623 17.7701   1
  -5  19   5  7.0240 18.9954   1
  -3  19   5 27.3696 19.9735   1
  -1  19   5 -3.0970 14.7482   1
  -1 -19  -5 -7.0803 12.4286   1
  -3 -19  -5  4.1802 13.7864   1
  -5 -19  -5  1.3146 14.1108   1
  -6  20   5 -12.371  18.095   1
  -4  20   5 29.6449 22.7695   1
  -2  20   5  3.9518 17.2454   1
   0 -20  -5  3.0432 13.8700   1
   0  20   5  1.0692 18.1463   1
  -2 -20  -5  1.4942 13.6128   1
  -3  21   5  5.8490 19.6680   1
  -1  21   5 11.9272 19.3637   1
   3  21  -6  0.7850 10.9612   3
   1  21  -6 18.2685 12.4241   3
  -1  21  -6  1.1641 10.2978   3
   6  20  -6 12.8813 10.9879   3
   4  20  -6  7.1925 10.9927   3
   2  20  -6 10.7521 10.7495   3
   0  20  -6 -4.7845  8.6225   3
  -2  20  -6 9.55882 9.88674   3
  -4  20  -6 3.75776 9.51781   3
   7  19  -6 3.88521 9.49296   3
   5  19  -6 21.3095 12.0905   3
   3  19  -6 46.3037 13.9729   3
   1  19  -6 5.46356 9.64495   3
  -1  19  -6 9.40600 9.41127   3
  -3  19  -6 8.35912 8.19323   3
  -5  19  -6 14.4591 10.5157   3
  10  18  -6  7.6803 10.8031   3
   8  18  -6 -6.0159  8.5932   3
   6  18  -6 15.2550 10.9769   3
   4  18  -6 19.2272 11.7136   3
   2  18  -6 13.4316 10.3930   3
   0  18  -6 6.54419 9.15542   3
  -2  18  -6 9.51858 8.93537   3
  -4  18  -6 9.48569 9.05515   3
  -6  18  -6 5.37009 7.89222   2
  11  17  -6 -0.4517  9.6262   3
 -11 -17   6  5.2774 14.6226   1
   9  17  -6 -2.9270  8.1979   3
   7  17  -6 8.97781 9.71694   3
   5  17  -6 9.37344 9.91014   3
   3  17  -6 13.6206  9.5021   3
   1  17  -6 7.25172 8.51565   3
  -1  17  -6 14.5407  9.3676   3
  -3  17  -6 2.95924 7.83993   3
  -5  17  -6 5.41348 7.01429   2
  -7  17  -6 6.38999 8.02363   2
  12  16  -6 16.1096 11.4911   3
 -12 -16   6  6.1098 12.4228   1
  10  16  -6 -4.5006  8.1922   3
   8  16  -6 8.70007 9.14968   3
   6  16  -6 22.8040 10.6104   3
   4  16  -6 60.0923 14.1661   3
   2  16  -6 29.7647 11.2649   3
   0  16  -6 1.27961 7.18615   3
  -2  16  -6 0.96626 6.58531   3
  -4  16  -6 11.7758  7.0349   2
  -6  16  -6 25.5579  9.3461   2
  -8  16  -6 14.9425  9.3642   2
  13  15  -6  9.8458 10.6734   3
  11  15  -6 9.46926 9.93145   3
 -11 -15   6  7.2187 12.9010   1
   9  15  -6 8.39330 9.04244   3
  -9 -15   6 16.4718 13.1473   1
   7  15  -6 6.65027 8.58543   3
   5  15  -6 89.1931 15.1097   3
   3  15  -6 22.4709 10.4413   3
   1  15  -6 62.5251 13.2165   3
  -1  15  -6 14.4658  8.4189   3
  -3  15  -6 18.8501  8.8531   3
  -3  15  -6 28.4193  7.3372   2
  -5  15  -6 59.1964  9.8838   2
  -7  15  -6 7.23493 7.64807   2
  -9  15  -6 -2.4623  8.0564   2
  12  14  -6 9.42113 9.96610   3
 -12 -14   6 20.1654 21.3829   1
  10  14  -6 24.7330 10.4811   3
 -10 -14   6  0.4794 16.7008   1
   8  14  -6 13.6055  8.8399   3
  -8 -14   6 11.7068 13.2625   1
   6  14  -6 14.4400  9.3023   3
   4  14  -6 31.4631 10.6027   3
   2  14  -6 1.88604 6.34769   3
   0  14  -6 18.8815  8.7027   3
  -2  14  -6 2.85663 4.67490   2
  -2  14  -6 0.67100 6.54352   3
  -4  14  -6 34.4471  8.0389   2
  -6  14  -6 28.0169  8.5263   2
  -8  14  -6 -7.5289  6.7080   2
 -10  14  -6 4.48552 8.94934   2
  13  13  -6 4.06597 9.81902   3
 -13 -13   6 -6.7982 18.3108   1
  11  13  -6 39.4716 12.1938   3
 -11 -13   6 -4.4531 17.8486   1
   9  13  -6 25.9010  9.9279   3
  -9 -13   6  6.4101 15.3119   1
   7  13  -6 23.9349  9.8666   3
  -7 -13   6  2.8931 11.0955   1
   5  13  -6 26.7121  9.8894   3
   3  13  -6 27.5960  9.6860   3
   1  13  -6 23.7666  8.6219   3
  -1  13  -6 6.69139 6.35065   3
  -1  13  -6 3.80607 4.34399   2
  -3  13  -6 -1.6248  4.3490   2
  -5  13  -6 23.6383  7.2037   2
  -7  13  -6 29.4434  8.8436   2
  -9  13  -6 11.4242  8.5329   2
 -11  13  -6 -3.4610  8.9830   2
 -14 -12   6  6.3101 19.6833   1
  12  12  -6 31.2368 11.3955   3
 -12 -12   6 35.6365 23.6502   1
  10  12  -6 27.0233 10.3689   3
 -10 -12   6  7.0833 15.9936   1
   8  12  -6 3.11680 6.99420   3
  -8 -12   6  2.8448 12.7780   1
   6  12  -6 25.0727  9.0943   3
  -6 -12   6 -0.6875 10.7205   1
   4  12  -6 12.9804  7.9891   3
   2  12  -6 132.234  15.867   3
   0  12  -6 30.1941  9.5805   3
  -2  12  -6 8.49294 4.52965   2
  -2  12  -6 6.75555 6.51372   3
  -4  12  -6 14.1548  5.7504   2
  -6  12  -6 20.1781  7.3561   2
  -8  12  -6 26.0259  8.9459   2
 -10  12  -6 7.37955 8.73974   2
 -12  12  -6 10.3664 10.0943   2
 -13 -11   6 43.8388 21.9482   1
  11  11  -6 34.2581 11.2715   3
 -11 -11   6 19.9621 19.2285   1
   9  11  -6 20.0723  9.1911   3
  -9 -11   6  2.3243 12.7997   1
   7  11  -6 39.2075  9.9201   3
  -7 -11   6 -7.5721 10.7421   1
   5  11  -6 42.2124  9.7923   3
  -5 -11   6 0.86038 9.98675   1
   3  11  -6 76.8171 12.5435   3
   1  11  -6 63.2654 11.3790   3
  -1  11  -6 228.698  11.722   2
  -1  11  -6 214.870  18.632   3
  -3  11  -6 1.51535 4.15693   2
  -5  11  -6 0.30881 4.83615   2
  -7  11  -6 -4.0938  5.6065   2
  -9  11  -6 1.16669 7.17973   2
 -11  11  -6 16.6483 10.0926   2
 -14 -10   6  5.0049 13.8543   1
  12  10  -6 16.3494 10.0869   3
 -12 -10   6  5.6892 14.3307   1
  10  10  -6 53.1989 11.0702   3
 -10 -10   6 -2.0505 14.0458   1
   8  10  -6 5.88569 6.44866   3
  -8 -10   6 -3.0114 10.6058   1
   6  10  -6 -2.1373  5.8853   3
  -6 -10   6 -3.5967  8.8481   1
   4  10  -6 84.4884 12.4921   3
   2  10  -6 15.7299  7.0470   3
   0  10  -6 135.302   9.172   2
   0  10  -6 142.463  14.909   3
  -2  10  -6 114.167   9.027   2
  -4  10  -6 56.4453  7.7986   2
  -6  10  -6 31.2291  7.5892   2
  -8  10  -6 9.74262 7.10231   2
 -10  10  -6 -0.2929  7.5886   2
 -12  10  -6 65.1738 13.2534   2
 -15  -9   6  9.9925 12.2520   1
 -13  -9   6 52.7161 20.0273   1
  11   9  -6 -1.7894  7.5069   3
 -11  -9   6  2.3013 14.7543   1
   9   9  -6 57.7955 11.3844   3
  -9  -9   6  3.4999 12.8190   1
   7   9  -6 11.4782  7.2822   3
  -7  -9   6 -1.2295 10.1274   1
   3   9  -6 6.85636 5.95115   3
  -3  -9   6 8.29205 7.79266   1
   1   9  -6 34.6194  8.5437   3
   1   9  -6 28.3533  5.1869   2
  -1   9  -6 10.8038  4.4396   2
  -1   9  -6 8.91871 6.07691   3
  -3   9  -6 2.89413 3.82207   2
  -5   9  -6 10.6027  5.5377   2
  -7   9  -6 5.40073 5.90856   2
  -9   9  -6 10.6649  7.8548   2
 -11   9  -6 2.93272 8.03702   2
 -13   9  -6 2.70652 9.65000   2
 -14  -8   6 88.7522 24.3555   1
  12   8  -6 -2.0692  8.2575   3
 -12  -8   6  0.1904 15.2121   1
  10   8  -6 1.02876 7.52007   3
 -10  -8   6 -2.4500 13.1818   1
   6   8  -6 45.3371  9.3982   3
  -6  -8   6 -0.6050  9.3814   1
   4   8  -6 19.4348  7.1332   3
  -4  -8   6 -4.8409  6.5570   1
   2   8  -6 0.30222 4.26919   3
   2   8  -6 0.71115 3.58598   2
   0   8  -6 24.5527  7.3814   3
   0   8  -6 19.1360  4.9307   2
  -2   8  -6 70.6372  7.6557   2
  -4   8  -6 13.7569  5.1685   2
  -6   8  -6 24.8165  6.6712   2
  -8   8  -6 32.9028  8.4730   2
 -10   8  -6 -0.1728  6.9779   2
 -12   8  -6 -0.2919  8.6704   2
 -15  -7   6 52.8718 17.2848   1
 -13  -7   6  0.1287 10.7971   1
  11   7  -6 8.55030 8.68327   3
 -11  -7   6 -3.7999 13.9974   1
   9   7  -6 44.4266 10.3281   3
  -9  -7   6 -2.9566 12.6108   1
   5   7  -6 63.1206  9.7258   3
   3   7  -6 4.58805 4.96026   3
   3   7  -6 4.83785 3.74462   2
  -3  -7   6 0.19796 4.52036   1
   1   7  -6 3.90452 3.82093   2
   1   7  -6 -2.4235  3.7394   3
  -1   7  -6 53.7328  8.8467   3
  -1   7  -6 58.9707  6.5936   2
  -3   7  -6 330.896  14.275   2
  -5   7  -6 40.6559  6.9739   2
  -9   7  -6 -2.4732  6.0644   2
 -11   7  -6 20.8226  9.4840   2
 -13   7  -6 -1.9260  8.9455   2
 -16  -6   6 37.5351 16.1819   1
 -14  -6   6  9.4865 11.1924   1
 -12  -6   6 -11.573  13.455   1
  10   6  -6 17.3626  8.9733   3
 -10  -6   6  0.4460 14.7582   1
   8   6  -6 59.2501 10.3631   3
  -8  -6   6  5.2048 12.4511   1
   4   6  -6 62.0391  6.0694   2
   4   6  -6 60.1639  9.1538   3
   2   6  -6 8.19681 4.26589   2
   2   6  -6 7.19844 4.68732   3
   0   6  -6 46.1525  8.1223   3
   0   6  -6 58.0644  6.6694   2
  -2   6  -6 70.3605  7.6154   2
  -4   6  -6 17.4892  5.0428   2
  -6   6  -6 87.1691  9.9297   2
  -8   6  -6 11.4796  5.9821   2
 -10   6  -6 48.5861 10.2814   2
 -12   6  -6 6.34297 8.49598   2
 -14   6  -6 -7.0218  9.0413   2
 -15  -5   6  2.1473 10.1563   1
 -13  -5   6  0.1480 13.3170   1
 -11  -5   6  0.2353 13.8926   1
   9   5  -6 6.97664 6.84427   3
  -9  -5   6  1.3454 13.7719   1
   7   5  -6 31.7328  8.0335   3
  -7  -5   6 -1.2701 11.7595   1
   3   5  -6 128.282   7.981   2
   3   5  -6 114.105  10.736   3
   1   5  -6 42.4789  5.8224   2
   1   5  -6 34.5158  6.7567   3
  -1   5  -6 2.28021 4.20785   3
  -3   5  -6 3.60076 4.18063   2
  -5   5  -6 99.9656  9.8088   2
  -7   5  -6 7.34099 5.29777   2
  -9   5  -6 33.9344  8.5820   2
 -11   5  -6 -3.8295  6.3738   2
 -13   5  -6 7.70217 9.04799   2
 -16  -4   6  6.5305 14.8464   1
 -14  -4   6  3.9659 11.5672   1
 -12  -4   6  7.8037 12.5845   1
  10   4  -6 9.21206 7.36741   3
 -10  -4   6 -8.5541 13.9298   1
   8   4  -6 1.83059 6.07420   3
  -8  -4   6 -7.5952 11.4178   1
   6   4  -6 22.3259  6.5119   3
  -6  -4   6 -1.0448  8.6267   1
   4   4  -6 70.8540  9.1446   3
   4   4  -6 72.7480  6.7415   2
   2   4  -6 2.19527 3.92163   3
   2   4  -6 7.04181 3.67198   2
  -2  -4   6 -2.2411  3.8961   1
   0   4  -6 113.626   8.717   2
   0   4  -6 109.496  10.268   3
  -2   4  -6 25.1169  5.6398   2
  -4   4  -6 170.437  11.092   2
  -6   4  -6 42.7832  7.6072   2
  -8   4  -6 2.48100 5.22116   2
 -10   4  -6 9.46865 7.39407   2
 -12   4  -6 24.5371  8.8658   2
 -14   4  -6 11.2328  9.9023   2
 -15  -3   6  0.7040 10.3351   1
 -13  -3   6  2.9263 10.8264   1
 -11  -3   6  4.3819 14.0345   1
   9   3  -6 0.90887 6.64261   3
  -9  -3   6 -7.2928 12.8599   1
   7   3  -6 35.7839  7.4561   3
  -7  -3   6 -2.8631 11.5097   1
   5   3  -6 -0.2590  2.7542   2
   5   3  -6 3.34265 4.48915   3
  -5  -3   6 -3.3592  7.2054   1
   3   3  -6 12.6390  4.1330   2
   3   3  -6 9.13474 4.76237   3
   1   3  -6 25.9033  5.9255   3
   1   3  -6 16.7629  4.7099   2
  -1   3  -6 191.608  10.593   2
  -1   3  -6 219.321  13.769   3
  -3   3  -6 -1.2615  4.0247   2
  -5   3  -6 56.4657  7.3846   2
  -7   3  -6 52.0361  8.3885   2
  -9   3  -6 10.0485  6.7923   2
 -11   3  -6 19.0245  8.5220   2
 -13   3  -6 5.56535 8.72490   2
 -16  -2   6 15.5245 15.9561   1
 -14  -2   6  1.0596 10.2437   1
 -12  -2   6 14.0338 15.0753   1
 -10  -2   6 -0.2337 12.1078   1
   8   2  -6 61.9079 10.1720   3
  -8  -2   6 -4.8478 10.2215   1
   6   2  -6 15.6696  5.8036   3
  -6  -2   6 -0.5591 10.0468   1
   4   2  -6 1.66947 3.77643   3
   4   2  -6 2.15050 3.05150   2
  -4  -2   6 -1.4540  5.9725   1
   2   2  -6 553.413  19.984   3
   2   2  -6 543.963  16.837   2
   0   2  -6 82.0745  8.4279   3
   0   2  -6 77.1433  7.9412   2
   0  -2   6 55.4696  7.4939   1
  -2   2  -6 10.8342  4.4757   2
  -4   2  -6 9.65938 4.94585   2
  -6   2  -6 73.5964  9.0313   2
  -8   2  -6 156.940  13.022   2
 -10   2  -6 -3.1700  6.3220   2
 -12   2  -6 0.55943 7.09062   2
 -14   2  -6 -1.5311  8.0286   2
 -15  -1   6 -4.5461 13.0523   1
 -13  -1   6 15.3441 16.3744   1
 -11  -1   6 23.0400 16.0691   1
  -9  -1   6  7.0053 10.1282   1
   7   1  -6 2.73827 4.86281   3
  -7  -1   6  1.2195 10.0009   1
   5   1  -6 11.3108  4.1154   2
   5   1  -6 11.7316  4.9972   3
  -5  -1   6 -4.5280  6.5796   1
   3   1  -6 66.0126  7.8623   3
   3   1  -6 66.9739  7.2142   2
   1   1  -6 237.081  11.652   2
   1   1  -6 246.719  12.860   3
  -1  -1   6 266.810  13.433   1
  -1   1  -6 71.7867  7.6964   2
  -1   1  -6 76.6673  7.9007   3
   1  -1   6 61.4961  6.3487   1
  -3   1  -6 36.1990  6.2572   2
  -5   1  -6 5.76073 5.29626   2
  -7   1  -6 84.3391  9.8705   2
  -9   1  -6 -0.6489  6.1711   2
 -11   1  -6 2.10757 7.54542   2
 -13   1  -6 -4.2123  7.8697   2
 -16   0   6  1.7398 11.3891   1
 -14   0   6 -3.0829 15.9496   1
 -12   0   6 95.1343 23.5573   1
 -10   0   6 133.202  18.130   1
  -8   0   6 0.80936 9.96419   1
   6   0  -6 11.1063  5.2761   3
  -6   0   6 0.71791 9.54115   1
   4   0  -6 41.5560  6.0493   2
   4   0  -6 40.9853  6.2468   3
  -4   0   6 18.4612 10.2200   1
   2   0  -6 4.00147 3.96409   2
   2   0  -6 7.59944 4.20874   3
  -2   0   6 -4.0852  6.6744   1
   0   0  -6 5.66444 3.45237   3
   0   0  -6 7.43457 3.85653   2
   0   0   6 5.77775 4.97510   1
  -2   0  -6 16.5552  5.2806   2
  -4   0  -6 89.5816  9.0261   2
  -4   0  -6 85.3733  8.9357   1
  -6   0  -6 38.3250  7.5776   2
  -8   0  -6 181.103  13.813   2
 -10   0  -6 99.4996 12.0659   2
 -12   0  -6 2.47885 7.91261   2
 -14   0  -6 14.9729 10.1819   2
 -15   1   6 11.0150 19.5495   1
 -13   1   6 25.4643 18.6137   1
 -11   1   6 41.1179 15.3856   1
  -9   1   6 28.9466 14.3154   1
  -7   1   6 0.23043 9.97877   1
   5  -1  -6 8.09687 4.45767   3
   5  -1  -6 7.82491 4.09440   2
  -5   1   6  3.7091 10.1852   1
   3  -1  -6 77.7837  8.1677   2
   3  -1  -6 65.7059  7.0079   3
   1  -1  -6 246.102  11.289   3
   1  -1  -6 228.873  12.141   2
  -1   1   6 248.606  13.803   1
  -1  -1  -6 67.0870  7.3714   2
  -1  -1  -6 69.5568  6.6088   3
   1   1   6 71.2810  7.7974   1
  -3  -1  -6 26.5361  6.1584   2
  -3  -1  -6 46.6541  9.6661   1
  -5  -1  -6 15.7130  7.1116   1
  -5  -1  -6 9.16309 5.04236   2
  -7  -1  -6 74.8228  9.8944   2
  -9  -1  -6 3.80711 6.59548   2
 -11  -1  -6 13.7737  7.6642   2
 -13  -1  -6 0.55365 7.91597   2
 -16   2   6 11.4344 19.2580   1
 -14   2   6 -4.1696 18.1588   1
 -12   2   6 47.0838 19.1555   1
 -10   2   6 12.8102 13.6190   1
  -8   2   6 42.1713 14.2533   1
  -6   2   6  4.9446 11.0363   1
   4  -2  -6 1.71680 3.75059   2
   4  -2  -6 2.58666 3.60573   3
  -4   2   6 -1.6909  7.7278   1
   2  -2  -6 560.157  19.048   2
   2  -2  -6 513.218  15.108   3
  -2   2   6 504.337  21.356   1
   0  -2  -6 82.8427  6.3799   3
   0  -2  -6 72.0171  7.9047   2
   0   2   6 83.0442  9.3214   1
  -2  -2  -6 5.08976 4.54151   2
  -2  -2  -6 4.54308 2.72505   3
  -2  -2  -6 4.71070 5.84441   1
  -4  -2  -6 8.66376 7.23790   1
  -4  -2  -6 8.33613 4.75932   2
  -6  -2  -6 82.7165 10.6732   1
  -6  -2  -6 71.5171  9.3803   2
  -8  -2  -6 122.556  12.447   2
 -10  -2  -6 -1.5360  6.5310   2
 -12  -2  -6 1.28679 7.52265   2
 -14  -2  -6 -7.5352  8.6990   2
 -15   3   6  3.0813 20.3174   1
 -13   3   6 17.8552 17.4570   1
 -11   3   6 20.3425 14.4589   1
  -9   3   6  2.9575 11.1293   1
  -7   3   6 16.3589 12.6815   1
  -5   3   6 -2.4282  8.8588   1
   3  -3  -6 10.1718  3.7518   3
   3  -3  -6 5.90190 4.15294   2
  -3   3   6 11.4667  8.6544   1
   1  -3  -6 16.9141  3.5700   3
   1  -3  -6 15.9629  4.9924   2
  -1   3   6 18.0860  8.0320   1
  -1  -3  -6 186.363   8.279   3
  -1  -3  -6 185.873  14.696   1
  -1  -3  -6 183.039  11.625   2
  -3  -3  -6 4.26016 4.54158   2
  -3  -3  -6 -0.4238  6.0110   1
  -5  -3  -6 47.5099  8.1597   2
  -5  -3  -6 58.4405 12.0267   1
  -7  -3  -6 55.2159 12.4354   1
  -7  -3  -6 43.2976  8.6823   2
  -9  -3  -6 9.80830 7.30148   2
 -11  -3  -6 2.03926 7.37707   2
 -13  -3  -6 12.1086  9.1830   2
 -16   4   6  8.6937 21.2620   1
 -14   4   6 14.3193 19.3746   1
 -12   4   6  8.0453 13.9711   1
 -10   4   6  7.7525 12.7600   1
  -8   4   6  2.4121 11.7558   1
  -6   4   6 11.5358 12.0962   1
   4  -4  -6 81.6981  9.8670   2
  -4   4   6 55.9677 13.5175   1
   2  -4  -6 0.22875 3.62585   2
   2  -4  -6 7.89103 3.02928   3
  -2   4   6 -0.7864  6.0858   1
   0  -4  -6 99.5979  9.3308   2
   0  -4  -6 91.2816  5.1182   3
   0   4   6 96.1202 11.0493   1
  -2  -4  -6 30.7613  6.2240   2
  -2  -4  -6 37.4696 10.9327   1
  -4  -4  -6 149.782  11.726   2
  -4  -4  -6 145.949  14.286   1
  -6  -4  -6 42.7064 11.6799   1
  -6  -4  -6 42.4406  8.2565   2
  -8  -4  -6 5.62668 5.88862   2
 -10  -4  -6 2.56786 7.29602   2
 -12  -4  -6 22.9067 10.2526   2
 -15   5   6  6.6060 19.8149   1
 -13   5   6 20.7530 17.6691   1
 -11   5   6 -9.1544 12.1694   1
  -9   5   6  3.4866 12.8742   1
  -7   5   6 29.9041 15.0348   1
  -5   5   6 149.533  16.736   1
   3  -5  -6 125.377  11.721   2
  -3   5   6 110.368  12.901   1
   1  -5  -6 31.4579  6.0931   2
  -1   5   6 63.9339 12.3234   1
  -1  -5  -6 0.70685 6.76031   1
  -1  -5  -6 3.46214 4.08875   2
  -3  -5  -6 12.3063  8.4078   1
  -3  -5  -6 2.26992 4.71184   2
  -5  -5  -6 90.4365 10.2844   2
  -5  -5  -6 82.9944 12.1240   1
  -7  -5  -6 -1.2612  5.9963   2
  -7  -5  -6 1.57301 7.70133   1
  -9  -5  -6 34.9768  9.7066   2
 -11  -5  -6 1.10793 7.68382   2
 -16   6   6 13.6267 22.4461   1
 -14   6   6 3.02889 7.00544   2
 -14   6   6  2.4320 16.9882   1
 -12   6   6 -1.9395 14.9572   1
 -10   6   6 14.2891 14.3895   1
  -8   6   6 28.6835 16.2323   1
  -6   6   6 254.414  21.825   1
  -4   6   6 48.5130 13.5050   1
   2  -6  -6 5.27779 4.80904   2
  -2   6   6 4.36970 7.40299   1
   0  -6  -6 62.2770  8.1101   2
   0  -6  -6 83.1994 15.4824   1
  -2  -6  -6 88.5338 16.0086   1
  -2  -6  -6 58.9465  8.1418   2
  -4  -6  -6 13.9932  9.4951   1
  -4  -6  -6 14.7032  5.7663   2
  -6  -6  -6 72.1416  9.7546   2
  -6  -6  -6 79.5547 15.5076   1
  -8  -6  -6 1.90264 8.70866   1
  -8  -6  -6 6.08857 6.93642   2
 -10  -6  -6 28.7472  9.4201   2
 -12  -6  -6 10.6416  9.1053   2
 -15   7   6 43.5382 11.4700   2
 -15   7   6  4.3223 19.5668   1
 -13   7   6  6.2009 16.6698   1
 -11   7   6  6.4873 14.8035   1
  -9   7   6 44.5709 19.6140   1
  -7   7   6 292.365  24.290   1
  -5   7   6 57.9552 15.9597   1
   3  -7  -6 8.73709 5.73748   2
  -3   7   6 5.30037 9.19697   1
   1  -7  -6 1.83289 4.25559   2
  -1   7   6 3.13077 7.84699   1
  -1  -7  -6 85.4754 16.7968   1
  -1  -7  -6 51.2704  8.1954   2
  -3  -7  -6 313.568  16.517   2
  -3  -7  -6 314.157  22.580   1
  -5  -7  -6 54.0693 14.0729   1
  -5  -7  -6 34.3631  7.5510   2
  -7  -7  -6 131.461  12.878   2
  -7  -7  -6 117.569  15.618   1
  -9  -7  -6 3.46985 6.71924   2
  -9  -7  -6 -2.4200  8.9533   1
 -11  -7  -6 23.8877  8.9298   2
 -14   8   6  5.7431 18.7150   1
 -14   8   6 53.8768 11.3811   2
 -12   8   6 12.1743 16.4432   1
 -10   8   6 -8.5259 14.7876   1
  -8   8   6 87.4714 20.3266   1
  -6   8   6 46.9894 16.4689   1
  -4   8   6 27.2084 12.1423   1
   2  -8  -6 0.81455 4.77580   2
  -2   8   6 2.96065 8.65841   1
   0  -8  -6 20.5229  6.1334   2
   0  -8  -6 20.9463 11.2530   1
  -2  -8  -6 58.8878  8.6742   2
  -2  -8  -6 93.3083 17.9118   1
  -4  -8  -6 6.06124 5.24408   2
  -4  -8  -6 16.2967 10.4739   1
  -6  -8  -6 30.1549  7.6170   2
  -6  -8  -6 19.6708 11.4460   1
  -8  -8  -6 21.1406 12.2547   1
  -8  -8  -6 21.7388  7.6925   2
 -10  -8  -6 14.5533 12.2370   1
 -10  -8  -6 8.58075 7.85010   2
 -15   9   6  0.7639 19.5611   1
 -15   9   6 9.71832 8.74620   2
 -13   9   6  8.0895 17.8700   1
 -11   9   6  3.8444 18.0508   1
  -9   9   6 26.5131 17.6382   1
  -7   9   6 24.3958 15.0026   1
  -5   9   6 107.413  16.188   1
  -3   9   6  9.3630 10.4303   1
   1  -9  -6 32.8640  8.2775   2
  -1   9   6 31.9721 12.8313   1
  -1  -9  -6 4.70280 5.27158   2
  -1  -9  -6 -1.4302  8.9052   1
  -3  -9  -6 4.63563 5.18349   2
  -3  -9  -6 4.83595 9.22489   1
  -5  -9  -6 13.8834 10.3974   1
  -5  -9  -6 8.95156 5.65203   2
  -7  -9  -6 0.33232 9.20601   1
  -7  -9  -6 8.43960 6.38447   2
  -9  -9  -6 18.2208  8.0656   2
  -9  -9  -6 19.0917 13.2051   1
 -11  -9  -6 -5.1014 10.2034   1
 -14  10   6 -0.1844 18.4643   1
 -14  10   6 21.3863  9.2392   2
 -12  10   6  0.7219 16.3103   1
 -10  10   6 12.4574 18.5605   1
  -8  10   6  4.4737 14.5757   1
  -6  10   6 -8.5077 10.2011   1
  -4  10   6 83.8076 18.7465   1
  -2  10   6 34.2971 13.9817   1
   0 -10  -6 141.941  14.419   2
   0 -10  -6 131.209  18.213   1
  -2 -10  -6 101.339  11.928   2
  -2 -10  -6 145.317  23.134   1
  -4 -10  -6 62.2351  9.5203   2
  -4 -10  -6 70.7070 17.2722   1
  -6 -10  -6 28.4831  7.3853   2
  -6 -10  -6 34.9868 13.9165   1
  -8 -10  -6 -1.0802 10.1861   1
  -8 -10  -6 8.11056 6.34300   2
 -10 -10  -6 -2.5501 11.3454   1
 -15  11   6 21.5940 10.0249   2
 -13  11   6 -3.2032 17.4473   1
 -11  11   6 -12.635  16.944   1
  -9  11   6 14.9077 17.7957   1
  -7  11   6 31.7266 17.4419   1
  -5  11   6 41.3686 16.6575   1
  -3  11   6 79.2050 19.1480   1
  -1  11   6 66.0313 17.3892   1
  -1 -11  -6 207.287  22.782   1
  -1 -11  -6 228.584  17.914   2
  -3 -11  -6 0.18139 9.67824   1
  -3 -11  -6 -0.6290  4.9172   2
  -5 -11  -6 2.86806 4.91520   2
  -5 -11  -6 2.92665 9.62987   1
  -7 -11  -6 0.09776 5.03403   2
  -7 -11  -6 1.67510 9.89453   1
  -9 -11  -6  5.3544 11.6863   1
 -11 -11  -6 18.8438 15.4045   1
 -14  12   6 3.27325 8.39197   2
 -14  12   6 -7.9629 18.9604   1
 -12  12   6  0.4327 19.4152   1
 -10  12   6 -6.0788 16.0009   1
  -8  12   6  1.7270 15.7516   1
  -6  12   6 16.7138 15.6404   1
  -4  12   6 23.1597 14.2345   1
  -2  12   6 150.520  19.603   1
   0 -12  -6 41.1690 16.2003   1
  -2 -12  -6 5.04056 6.15786   2
  -2 -12  -6 18.7324 12.8479   1
  -4 -12  -6 15.1283  6.8161   2
  -4 -12  -6  6.9752 10.6564   1
  -6 -12  -6 23.2322 14.1438   1
  -6 -12  -6 24.9441  7.7165   2
  -8 -12  -6  5.9580 11.4715   1
 -10 -12  -6 14.4786 14.2088   1
 -12 -12  -6 12.8172 16.1665   1
 -13  13   6 -4.4751 18.8128   1
 -11  13   6  1.5663 19.6633   1
  -9  13   6 16.0730 17.8409   1
  -7  13   6 20.1753 17.6031   1
  -5  13   6 18.7942 15.5618   1
  -3  13   6 20.9747 14.0373   1
  -1  13   6 33.3574 16.1453   1
  -1 -13  -6  8.6993 11.5764   1
  -1 -13  -6 3.92638 6.56801   2
  -3 -13  -6  9.9461 11.9224   1
  -3 -13  -6 7.82457 6.81826   2
  -5 -13  -6 11.1319  7.3538   2
  -5 -13  -6 22.9679 14.1360   1
  -7 -13  -6  9.8325 12.4318   1
  -9 -13  -6 10.2263 14.3186   1
 -11 -13  -6  5.5754 15.1584   1
 -12  14   6  2.0560 21.6534   1
 -10  14   6  5.8637 17.6846   1
  -8  14   6  6.8278 17.1011   1
  -6  14   6 26.6728 17.4149   1
  -4  14   6 39.4140 17.7970   1
  -2  14   6  3.4443 13.3922   1
  -2 -14  -6 -0.1305 11.1304   1
  -4 -14  -6 39.3600 16.8703   1
  -4 -14  -6 27.9288  9.5596   2
  -6 -14  -6 20.0643 14.5423   1
  -8 -14  -6  0.2406 12.5037   1
 -10 -14  -6  1.0292 13.4116   1
 -11  15   6 -5.8532 18.8890   1
  -9  15   6 -8.6610 16.8805   1
  -7  15   6 -6.5664 14.8970   1
  -5  15   6 94.9929 24.5195   1
  -3  15   6 18.6998 15.9843   1
  -1  15   6 72.5952 22.1485   1
  -1 -15  -6  1.7983 11.8019   1
  -3 -15  -6 51.5747 19.0549   1
  -5 -15  -6 58.0408 19.3166   1
  -7 -15  -6 14.6382 15.1469   1
  -9 -15  -6 -0.1762 13.3929   1
 -10  16   6 -7.4391 18.3534   1
  -8  16   6 -8.3263 16.1095   1
  -6  16   6  7.0423 16.1615   1
  -4  16   6 72.2750 23.1800   1
  -2  16   6 43.7455 19.2549   1
   0 -16  -6 10.1557 13.9301   1
  -2 -16  -6 15.5448 14.7487   1
  -4 -16  -6 18.3029 14.6412   1
  -6 -16  -6 25.5262 16.3306   1
  -8 -16  -6 15.0421 15.4197   1
  -9  17   6 -14.693  17.227   1
  -7  17   6 13.7131 19.1195   1
  -5  17   6  6.8550 16.9146   1
  -3  17   6 19.4499 17.9917   1
  -1  17   6 19.8108 17.4578   1
  -1 -17  -6  7.6670 14.5127   1
  -3 -17  -6  0.6817 14.1671   1
  -5 -17  -6 -2.1118 12.7671   1
  -7 -17  -6  3.4183 14.1371   1
  -8  18   6 -4.9733 18.5980   1
  -6  18   6 10.1774 18.4222   1
  -4  18   6 34.6220 21.3224   1
  -2  18   6 19.7063 19.3509   1
   0 -18  -6  4.1454 13.2141   1
   0  18   6  8.7035 16.9528   1
  -2 -18  -6 17.1654 16.4021   1
  -4 -18  -6 32.2075 18.8700   1
  -7  19   6 -4.0548 19.7558   1
  -5  19   6 24.7459 20.7174   1
  -3  19   6 51.9283 23.0487   1
  -1  19   6 18.1292 18.6045   1
  -1 -19  -6 -1.6197 12.9275   1
  -3 -19  -6  7.5456 15.4982   1
  -4  20   6  9.9142 20.1465   1
  -2  20   6 22.5676 20.5809   1
   0  20   6  7.5052 19.5916   1
   4  20  -7  9.5069 12.0020   3
   2  20  -7  0.9130 10.5865   3
   0  20  -7 -1.7996  9.5005   3
  -2  20  -7 4.43808 9.64331   3
   7  19  -7  3.9359 10.4928   3
   5  19  -7 -2.3255 10.4171   3
   3  19  -7 11.8926 11.1036   3
   1  19  -7  8.7021 10.4399   3
  -1  19  -7 2.36933 9.07800   3
  -3  19  -7 3.77635 9.15028   3
   8  18  -7  2.7517 11.2398   3
   6  18  -7 -2.6925  9.6998   3
   4  18  -7  7.0522 10.4299   3
   2  18  -7 2.67645 9.10121   3
   0  18  -7 3.37657 9.00971   3
  -2  18  -7 5.84701 9.08623   3
  -4  18  -7 -2.4202  8.1579   3
  -6  18  -7 2.44464 8.30229   3
   9  17  -7 -1.0123  9.2977   3
   7  17  -7 0.01054 9.30230   3
   5  17  -7 28.2501 12.0848   3
   3  17  -7 0.43588 8.89141   3
   1  17  -7 3.27415 8.78555   3
  -1  17  -7 -0.8226  7.6695   3
  -3  17  -7 2.33952 8.00584   3
  -5  17  -7 13.3549  9.5079   3
  -7  17  -7 2.68590 7.97931   2
  10  16  -7  4.8386 10.0582   3
   8  16  -7 -10.282   8.138   3
   6  16  -7 2.50309 9.15225   3
   4  16  -7 -6.4023  6.7649   3
   2  16  -7 12.8546 10.0429   3
   0  16  -7 0.04639 7.62620   3
  -2  16  -7 -1.9531  6.1194   3
  -4  16  -7 5.65218 8.13400   3
  -6  16  -7 2.18136 7.02512   2
  -8  16  -7 -7.6542  7.4816   2
  11  15  -7 -1.2252  9.0460   3
   9  15  -7 6.06004 9.03540   3
   7  15  -7 2.43627 8.61537   3
   5  15  -7 3.16917 8.46101   3
   3  15  -7 0.61834 8.00972   3
   1  15  -7 29.0492 10.7628   3
  -1  15  -7 7.18721 7.92279   3
  -3  15  -7 3.01595 7.39729   3
  -5  15  -7 2.36607 6.14234   2
  -7  15  -7 11.7858  8.1380   2
  -9  15  -7 0.59051 8.62535   2
  12  14  -7 3.48997 9.61943   3
 -12 -14   7  5.9233 22.4798   1
  10  14  -7 -5.4739  8.0462   3
   8  14  -7 5.28130 8.45886   3
   6  14  -7 1.83881 8.04688   3
   4  14  -7 0.86448 7.22013   3
   2  14  -7 1.19161 6.78713   3
   0  14  -7 1.99440 6.67048   3
  -2  14  -7 -0.2254  6.3013   3
  -4  14  -7 2.77602 5.99344   2
  -6  14  -7 -1.9528  6.1912   2
  -8  14  -7 13.3398  9.2126   2
  13  13  -7 1.70855 9.66985   3
 -13 -13   7  2.6260 21.5853   1
  11  13  -7 5.57013 9.54075   3
 -11 -13   7  5.7227 18.8626   1
   9  13  -7 -2.6742  7.5972   3
   7  13  -7 17.2606  9.7024   3
   5  13  -7 3.84316 7.93190   3
   3  13  -7 10.1543  7.8659   3
   1  13  -7 3.10304 6.49986   3
  -1  13  -7 55.0993 11.5015   3
  -3  13  -7 61.6521 12.4729   3
  -3  13  -7 56.9372  8.3384   2
  -5  13  -7 0.95630 5.75837   2
  -7  13  -7 -0.1893  6.5671   2
  -9  13  -7 -1.9576  7.1001   2
  12  12  -7 1.34119 9.30303   3
 -12 -12   7 -4.8198 19.9558   1
  10  12  -7 6.06747 8.13484   3
 -10 -12   7 -5.4612 14.1032   1
   8  12  -7 35.1660 10.1955   3
  -8 -12   7 -5.0747 11.5610   1
   6  12  -7 7.18786 7.93291   3
   4  12  -7 12.2113  8.0408   3
   2  12  -7 1.29812 6.90104   3
   0  12  -7 57.7323 11.7922   3
  -2  12  -7 -1.0836  4.8254   2
  -2  12  -7 3.03625 5.98662   3
  -4  12  -7 29.5687  7.1445   2
  -6  12  -7 1.36668 6.00719   2
  -8  12  -7 -3.5339  6.8264   2
 -10  12  -7 -7.4930  7.9633   2
  13  11  -7 8.05628 9.72796   3
 -13 -11   7  8.1599 18.3435   1
  11  11  -7 7.99887 9.45662   3
 -11 -11   7 -3.8507 15.7346   1
   9  11  -7 25.7758  9.7972   3
  -9 -11   7 -5.0078 11.4916   1
   7  11  -7 3.99331 7.05173   3
  -7 -11   7  6.5941 11.7690   1
   5  11  -7 49.7743 10.8304   3
   3  11  -7 -1.1133  5.6138   3
   1  11  -7 -1.4942  5.9285   3
  -1  11  -7 52.1334  7.6512   2
  -1  11  -7 58.4303 11.2768   3
  -3  11  -7 51.6033  7.8432   2
  -5  11  -7 1.04974 5.17053   2
  -7  11  -7 -2.3028  6.1000   2
  -9  11  -7 1.09046 7.68943   2
 -11  11  -7 2.53646 9.95196   2
 -14 -10   7  3.0354 13.2660   1
  12  10  -7 -4.7237  8.1355   3
 -12 -10   7 11.4169 19.1467   1
  10  10  -7 2.13227 7.96692   3
 -10 -10   7 -2.5054 12.2817   1
   8  10  -7 -0.8383  6.2516   3
  -8 -10   7 -2.9828 10.3319   1
   6  10  -7 25.1208  8.8001   3
   4  10  -7 24.2179  8.7567   3
   2  10  -7 34.1472  9.5102   3
   0  10  -7 18.8315  7.4891   3
   0  10  -7 12.4964  5.3521   2
  -2  10  -7 0.76532 4.49710   2
  -2  10  -7 -1.0644  4.8032   3
  -4  10  -7 32.8479  7.4294   2
  -6  10  -7 14.9922  6.8898   2
  -8  10  -7 3.39040 7.17434   2
 -10  10  -7 1.68401 7.49052   2
 -12  10  -7  1.7599 10.1332   2
 -13  -9   7  7.5255 17.8592   1
  11   9  -7 11.2909  9.2338   3
 -11  -9   7 -9.7101 15.2419   1
   9   9  -7 -1.6639  6.1888   3
  -9  -9   7 -3.3410 11.4888   1
   7   9  -7 47.8475 10.0248   3
  -7  -9   7 -1.7871 10.1847   1
   5   9  -7 65.2291 11.2657   3
   3   9  -7 15.9880  7.4566   3
   1   9  -7 2.27064 4.61365   2
   1   9  -7 -0.5396  4.6108   3
  -1   9  -7 6.44508 4.73246   2
  -1   9  -7 12.6945  6.9483   3
  -3   9  -7 22.1575  6.0982   2
  -5   9  -7 12.4777  6.0785   2
  -7   9  -7 5.79800 6.79958   2
  -9   9  -7 6.02094 8.02005   2
 -11   9  -7 0.13371 9.09932   2
 -14  -8   7 10.8479 14.6063   1
  12   8  -7 -1.7702  7.7045   3
 -12  -8   7  4.0988 16.8116   1
  10   8  -7 27.3671 10.2873   3
 -10  -8   7 -0.6131 13.1659   1
   6   8  -7 51.6256 10.0502   3
   4   8  -7 0.43966 4.82341   3
   2   8  -7 1.61747 5.04544   2
   2   8  -7 0.52865 4.55212   3
   0   8  -7 -3.7770  4.0382   2
   0   8  -7 8.71514 5.98680   3
  -2   8  -7 60.8779 10.5451   3
  -2   8  -7 63.3446  7.8264   2
  -4   8  -7 112.973  10.741   2
  -8   8  -7 14.8433  7.9396   2
 -10   8  -7 -6.2016  7.7104   2
 -12   8  -7 18.8132 11.0026   2
 -15  -7   7 -1.2056 12.6835   1
 -13  -7   7 -1.4348 14.7569   1
  11   7  -7 9.74840 8.82343   3
 -11  -7   7  4.2167 16.3727   1
   9   7  -7 -0.2869  6.5536   3
  -9  -7   7 -4.9074 12.0611   1
   7   7  -7 1.23772 5.60330   3
  -7  -7   7 -9.5276  8.9514   1
   5   7  -7 15.7734  6.3664   3
  -5  -7   7 -0.6258  7.8117   1
   3   7  -7 12.9195  5.0517   2
   3   7  -7 17.5218  6.6548   3
   1   7  -7 0.04725 4.59400   2
   1   7  -7 3.71724 5.15090   3
  -1   7  -7 14.4342  6.4627   3
  -1   7  -7 9.36746 4.89257   2
  -3   7  -7 10.9365  5.2862   2
  -5   7  -7 20.7715  6.2692   2
  -7   7  -7 20.0300  7.6271   2
  -9   7  -7 -0.9777  7.2378   2
 -11   7  -7 -3.3523  8.0555   2
 -13   7  -7 -1.0844  9.6443   2
 -14  -6   7  1.9656 13.2463   1
 -12  -6   7  5.4838 14.5667   1
  10   6  -7 21.4219  9.7704   3
 -10  -6   7 -0.1286 14.6835   1
   8   6  -7 58.2306 10.1708   3
  -8  -6   7 -8.1538 11.6489   1
   6   6  -7 30.6469  8.1102   3
  -6  -6   7 -4.5956  9.1671   1
   4   6  -7 65.2817  9.8859   3
   2   6  -7 40.4709  8.2824   3
   2   6  -7 45.4474  6.6183   2
   0   6  -7 1.18634 4.63704   2
   0   6  -7 1.71000 4.37269   3
  -2   6  -7 47.1188  8.8589   3
  -2   6  -7 51.5784  7.3876   2
  -4   6  -7 -1.5057  4.5626   2
  -6   6  -7 66.5882  9.5881   2
  -8   6  -7 2.41293 6.40446   2
 -10   6  -7 15.0846  8.9804   2
 -12   6  -7 30.3367 11.1431   2
 -15  -5   7  4.1230 13.0814   1
 -13  -5   7 -2.6978 10.2137   1
  11   5  -7 3.44292 7.56893   3
 -11  -5   7  0.0359 15.0493   1
   9   5  -7 5.58450 7.46616   3
  -9  -5   7  0.4184 13.8092   1
   7   5  -7 36.2665  8.6138   3
  -7  -5   7 -14.802  11.309   1
   5   5  -7 43.5219  8.2323   3
  -5  -5   7 -8.8278  8.9440   1
   3   5  -7 39.4223  7.8148   3
   3   5  -7 43.8669  6.0527   2
   1   5  -7 55.6751  8.8869   3
   1   5  -7 63.6897  7.3340   2
  -1   5  -7 3.21327 4.66703   2
  -1   5  -7 3.47848 4.39927   3
  -3   5  -7 0.44269 4.85228   2
  -5   5  -7 1.10189 4.64721   2
  -7   5  -7 1.95055 5.26784   2
  -9   5  -7 10.8959  7.5998   2
 -11   5  -7 -0.2776  7.7362   2
 -13   5  -7 -8.7614  8.8042   2
 -16  -4   7  6.2126 12.7734   1
 -14  -4   7 -5.9981 12.2896   1
 -12  -4   7 -3.1037 14.6884   1
  10   4  -7 2.63551 7.25862   3
 -10  -4   7 -9.3953 13.2300   1
   8   4  -7 12.2036  7.1501   3
  -8  -4   7 -5.2911 12.1773   1
   6   4  -7 5.35679 5.26208   3
  -6  -4   7 -6.2534  9.1694   1
   4   4  -7 18.5541  5.9052   3
   4   4  -7 19.0135  4.6781   2
  -4  -4   7 -3.8682  7.7281   1
   2   4  -7 8.71513 4.88221   3
   2   4  -7 1.39025 3.94462   2
  -2  -4   7 -4.6838  3.7356   1
   0   4  -7 5.99922 4.51542   3
   0   4  -7 6.76255 4.69614   2
  -2   4  -7 15.9252  5.7121   3
  -2   4  -7 6.59572 5.18640   2
  -4   4  -7 337.134  15.978   2
  -6   4  -7 153.563  12.647   2
  -8   4  -7 15.0733  7.5095   2
 -10   4  -7 38.1192 10.2185   2
 -12   4  -7 0.47561 8.43342   2
 -15  -3   7  6.3473 13.9637   1
 -13  -3   7 -5.1560 12.7333   1
 -11  -3   7 -17.947  15.771   1
   9   3  -7 8.53677 7.41173   3
  -9  -3   7  9.8202 15.1832   1
   7   3  -7 48.2736  8.7895   3
  -7  -3   7 -6.1441 11.1717   1
   5   3  -7 26.8893  5.1244   2
   5   3  -7 20.4665  6.1994   3
   3   3  -7 3.83608 3.76933   2
   3   3  -7 6.64583 4.43442   3
  -3  -3   7 -5.0413  6.2185   1
   1   3  -7 -0.4960  3.2691   3
   1   3  -7 1.15961 3.92541   2
  -1  -3   7 0.21032 3.98912   1
  -1   3  -7 137.299  11.678   3
  -1   3  -7 127.490  10.028   2
  -3   3  -7 87.7491  9.4310   2
  -5   3  -7 83.7484  9.8349   2
  -7   3  -7 47.9363  9.0113   2
  -9   3  -7 5.15465 7.15201   2
 -11   3  -7 4.73520 7.37973   2
 -13   3  -7 0.18528 8.69575   2
 -16  -2   7 -0.1909 11.1422   1
 -14  -2   7 -17.623  16.726   1
 -12  -2   7 -15.342  16.688   1
 -10  -2   7 -11.027  14.361   1
   8   2  -7 1.41184 5.99484   3
  -8  -2   7  2.9068 13.1397   1
   6   2  -7 101.310   9.176   2
   6   2  -7 96.4717 10.6245   3
   4   2  -7 117.105   9.051   2
   4   2  -7 118.426  10.531   3
   2   2  -7 148.608  10.154   2
   2   2  -7 142.252  11.072   3
   0   2  -7 89.0239  9.1026   3
   0   2  -7 80.6504  8.5013   2
   0  -2   7 64.7811  8.4174   1
  -2   2  -7 -4.5109  4.3844   2
  -2   2  -7 -1.8580  3.0800   3
  -4   2  -7 4.13578 5.41133   2
  -6   2  -7 11.7171  6.3555   2
  -8   2  -7 34.1370  8.7387   2
 -10   2  -7 -3.5885  7.0706   2
 -12   2  -7 1.97022 8.33583   2
 -14   2  -7 -6.7885  8.7367   2
 -15  -1   7  0.3591 18.2790   1
 -13  -1   7  0.8518 18.5514   1
 -11  -1   7  7.2130 17.7402   1
  -9  -1   7 10.0340 14.4902   1
   7   1  -7 0.00173 5.15391   3
  -7  -1   7 -0.8086 10.3857   1
   5   1  -7 109.587   9.492   2
   5   1  -7 88.0839  9.4198   3
   3   1  -7 14.3206  4.6640   2
   3   1  -7 15.8692  4.7391   3
   1   1  -7 26.0813  5.6609   2
   1   1  -7 27.6919  5.4654   3
  -1  -1   7 19.5907  8.0289   1
  -1   1  -7 3.14012 3.52024   3
  -1   1  -7 4.81750 4.69854   2
   1  -1   7 5.37384 5.19016   1
  -3   1  -7 4.21803 5.02459   2
  -5   1  -7 -2.4143  5.1300   2
  -7   1  -7 122.362  12.589   2
  -9   1  -7 -0.5213  6.7268   2
 -11   1  -7 9.89830 8.41326   2
 -13   1  -7 4.46072 9.07217   2
 -16   0   7 -5.3971 17.7754   1
 -14   0   7 -6.0776 19.1317   1
 -12   0   7 -10.159  12.899   1
 -10   0   7 -0.0210 12.7126   1
  -8   0   7 -1.3523 10.9109   1
   6   0  -7 0.29059 4.57639   3
   6   0  -7 0.40772 3.55424   2
  -6   0   7 -2.0246  9.3062   1
   4   0  -7 -0.5830  3.1591   3
   4   0  -7 0.27241 3.03936   2
  -4   0   7 -0.1208  8.1809   1
   2   0  -7 0.35514 3.38095   2
   2   0  -7 2.17475 3.19751   3
  -2   0   7 -1.8456  6.8329   1
   0   0  -7 -3.9409  3.3541   2
   0   0  -7 1.31163 2.88669   3
   0   0   7 0.37109 5.06808   1
  -2   0  -7 0.04739 2.90367   3
  -2   0  -7 -1.4292  3.6820   2
   2   0   7 0.33191 3.94303   1
  -4   0  -7 4.28231 5.32644   2
  -6   0  -7 -3.9663  5.5991   2
  -8   0  -7 -8.0059  5.9564   2
 -10   0  -7 -7.7025  6.6011   2
 -12   0  -7 -3.9724  7.7976   2
 -14   0  -7 -2.7793  9.1184   2
 -15   1   7 16.7418 20.6964   1
 -13   1   7  0.3589 16.4106   1
 -11   1   7 10.8219 16.2806   1
  -9   1   7 10.9226 13.7124   1
   7  -1  -7 -5.0146  4.2087   3
  -7   1   7  6.4704 10.9943   1
   5  -1  -7 108.281  10.547   2
   5  -1  -7 111.727  10.799   3
   3  -1  -7 17.3640  5.1120   2
   3  -1  -7 18.1577  4.5980   3
  -3   1   7 4.07244 7.32912   1
   1  -1  -7 26.4426  5.8678   2
   1  -1  -7 25.2969  4.8714   3
  -1   1   7 20.1731  7.6594   1
  -1  -1  -7 6.10871 3.37716   3
  -1  -1  -7 8.21771 4.76506   2
   1   1   7 11.8274  5.9489   1
  -3  -1  -7 -6.6507  4.2444   2
  -5  -1  -7 0.34779 5.25930   2
  -7  -1  -7 119.086  11.960   2
  -9  -1  -7 3.83751 6.68743   2
 -11  -1  -7 14.9129  8.8670   2
 -13  -1  -7 -7.4991  8.5735   2
 -16   2   7 -10.273  19.187   1
 -14   2   7 -0.3638 18.7108   1
 -12   2   7  7.2789 15.6674   1
 -10   2   7  2.3875 14.0130   1
  -8   2   7 -7.5698 10.9102   1
  -6   2   7 20.3031 12.5562   1
   4  -2  -7 108.297  10.308   2
   4  -2  -7 121.682   9.953   3
   2  -2  -7 140.726  10.386   2
   2  -2  -7 142.722   8.915   3
  -2   2   7 132.966  12.216   1
   0  -2  -7 77.3481  8.2333   2
   0  -2  -7 89.8425  7.2260   3
   0   2   7 76.0936  9.1096   1
  -2  -2  -7 2.98539 2.77456   3
  -2  -2  -7 2.52012 4.40757   2
  -4  -2  -7 8.85161 5.31329   2
  -6  -2  -7 15.6041  7.3758   2
  -8  -2  -7 30.2735  8.2459   2
 -10  -2  -7 -5.5688  7.1672   2
 -12  -2  -7 -0.0515  8.3905   2
 -14  -2  -7 -0.4281 10.1492   2
 -15   3   7 -8.2391 20.6129   1
 -13   3   7 -5.3298 14.7916   1
 -11   3   7 11.3608 14.8806   1
  -9   3   7 15.2987 13.1332   1
  -7   3   7 14.7198 13.4092   1
   5  -3  -7 21.1060  6.4286   2
  -5   3   7 13.1906 10.4694   1
   3  -3  -7 8.47192 4.61439   2
   3  -3  -7 10.4397  3.8449   3
  -3   3   7 6.69467 7.74694   1
   1  -3  -7 -0.7807  2.4662   3
   1  -3  -7 0.53547 3.63265   2
  -1   3   7 -0.8274  5.4814   1
  -1  -3  -7 127.015  10.795   2
   1   3   7 146.929  12.348   1
  -3  -3  -7 92.1637 12.2090   1
  -3  -3  -7 89.0331  9.8651   2
  -5  -3  -7 85.9589 10.2839   2
  -7  -3  -7 54.2847  9.8654   2
  -9  -3  -7 4.77385 7.56065   2
 -11  -3  -7 0.73269 7.71247   2
 -13  -3  -7 -3.3770  8.5307   2
 -16   4   7 -4.9601 20.7674   1
 -14   4   7 -1.9061 17.8298   1
 -12   4   7  6.8316 15.3689   1
 -10   4   7 -2.0772 11.9610   1
  -8   4   7 15.1519 14.6065   1
  -6   4   7  6.8061 11.1417   1
   4  -4  -7 12.6967  5.8647   2
  -4   4   7 14.4872  9.9124   1
   2  -4  -7 4.68275 4.06957   2
   2  -4  -7 7.67441 3.27353   3
  -2   4   7 6.23666 7.22571   1
   0  -4  -7 7.32209 4.36114   2
   0   4   7 8.58664 7.02619   1
  -2  -4  -7 12.7180  5.1210   2
  -2  -4  -7 14.0116  8.8890   1
  -4  -4  -7 331.620  21.362   1
  -4  -4  -7 325.982  17.134   2
  -6  -4  -7 162.699  13.510   2
  -8  -4  -7 23.1970  8.5388   2
 -10  -4  -7 37.2916 10.4025   2
 -12  -4  -7 -1.0284  8.4468   2
 -15   5   7 -21.442  18.534   1
 -13   5   7 -8.9921 15.7811   1
 -11   5   7  3.5096 13.6555   1
  -9   5   7 -10.480  12.135   1
  -7   5   7 25.5545 14.5154   1
  -5   5   7 18.4631 11.6530   1
   3  -5  -7 32.1499  7.3836   2
  -3   5   7 39.3164 11.2563   1
   1  -5  -7 47.0670  7.7254   2
  -1   5   7 66.1113 12.7760   1
  -1  -5  -7 1.97438 4.35231   2
  -3  -5  -7 6.50519 8.49086   1
  -3  -5  -7 4.77887 5.11268   2
  -5  -5  -7 -2.3119  5.2203   2
  -5  -5  -7 2.09880 7.82723   1
  -7  -5  -7 -0.0469  6.5230   2
  -9  -5  -7 15.4678  8.3094   2
 -11  -5  -7 -0.8100  7.5912   2
 -13  -5  -7 6.12230 9.17978   2
 -14   6   7 -10.380  16.005   1
 -12   6   7  1.3067 15.7296   1
 -10   6   7 22.0563 15.2910   1
  -8   6   7 32.4792 16.8980   1
  -6   6   7 20.4503 13.5620   1
   4  -6  -7 51.8486  9.6952   2
  -4   6   7 48.6079 13.6354   1
   2  -6  -7 42.8362  8.1954   2
  -2   6   7 51.8733 12.3228   1
   0  -6  -7 -0.6994  3.9525   2
   0   6   7 4.23038 7.15352   1
  -2  -6  -7 73.4026 15.9388   1
  -2  -6  -7 42.8968  7.4426   2
  -4  -6  -7 -0.5034  7.8694   1
  -4  -6  -7 -1.4269  4.9461   2
  -6  -6  -7 68.5080 10.4149   2
  -6  -6  -7 74.1713 15.6830   1
  -8  -6  -7 -0.9407  6.1353   2
 -10  -6  -7 18.7768  9.0071   2
 -12  -6  -7 18.0687 10.1274   2
 -15   7   7 -3.2991 19.4349   1
 -13   7   7  9.1180 18.4025   1
 -11   7   7 -2.4255 14.7358   1
  -9   7   7 -4.4762 14.1826   1
  -7   7   7 -2.2255 11.4738   1
  -5   7   7 17.2300 12.3680   1
   3  -7  -7 13.8399  6.7055   2
  -3   7   7 17.6521 10.6356   1
   1  -7  -7 0.77493 3.97430   2
  -1   7   7 1.34847 7.88205   1
  -1  -7  -7 11.2855  5.2831   2
  -1  -7  -7 9.31301 9.79553   1
  -3  -7  -7 17.6714  6.5751   2
  -3  -7  -7 26.6356 11.6422   1
  -5  -7  -7 24.6542 12.0455   1
  -5  -7  -7 14.2905  6.6691   2
  -7  -7  -7 11.3567 10.0260   1
  -7  -7  -7 31.0014  8.4059   2
  -9  -7  -7 0.79158 7.38663   2
 -11  -7  -7 10.4034  8.0888   2
 -14   8   7  6.2608 20.0419   1
 -12   8   7 -4.2939 16.0319   1
 -10   8   7  7.4567 17.4011   1
  -8   8   7 50.6190 17.8198   1
  -6   8   7 47.6985 16.4086   1
  -4   8   7 -2.2569  8.4276   1
   2  -8  -7 13.6729  7.0412   2
  -2   8   7 7.31922 9.80684   1
   0  -8  -7 6.34252 4.91544   2
   0   8   7 -1.0900  7.6321   1
  -2  -8  -7 54.9481  9.0845   2
  -2  -8  -7 83.3014 18.1256   1
  -4  -8  -7 122.803  20.602   1
  -4  -8  -7 117.103  12.112   2
  -6  -8  -7 23.0558 12.2913   1
  -6  -8  -7 19.3051  7.0554   2
  -8  -8  -7 27.3048 13.0433   1
  -8  -8  -7 10.9746  7.5781   2
 -10  -8  -7 -1.2168  7.5086   2
 -15   9   7 7.51572 8.74341   2
 -13   9   7 -9.5547 16.7505   1
 -11   9   7 -4.3009 17.0523   1
  -9   9   7  0.2114 15.2228   1
  -7   9   7 33.4374 15.9306   1
  -5   9   7 34.1935 14.8542   1
  -3   9   7  9.1588 10.4464   1
   1  -9  -7 3.70643 5.30801   2
  -1   9   7 1.36183 9.47707   1
  -1  -9  -7  6.2413 10.2400   1
  -1  -9  -7 15.4978  6.3335   2
  -3  -9  -7 35.9000 14.3022   1
  -3  -9  -7 22.9747  7.1912   2
  -5  -9  -7 21.7478 12.5447   1
  -5  -9  -7 12.6812  6.2338   2
  -7  -9  -7 15.8747 12.1913   1
  -7  -9  -7 10.5431  6.7507   2
  -9  -9  -7  9.6914 11.9342   1
  -9  -9  -7 12.0620  7.6359   2
 -14  10   7 -0.9542 20.0370   1
 -12  10   7 -4.3710 17.3338   1
 -10  10   7 -4.4952 16.2906   1
  -8  10   7 -2.7185 14.0528   1
  -6  10   7 22.1856 14.7169   1
  -4  10   7 27.5437 13.8431   1
   2 -10  -7 29.9293  8.8718   2
  -2  10   7 29.3290 13.9137   1
   0 -10  -7  8.1350 11.9322   1
   0 -10  -7 20.6851  8.0914   2
   0  10   7 18.0489 11.6674   1
  -2 -10  -7 0.14510 9.24763   1
  -2 -10  -7 2.84923 4.71274   2
  -4 -10  -7 28.2817  7.8057   2
  -4 -10  -7 30.7344 13.7433   1
  -6 -10  -7 17.3140 12.3630   1
  -6 -10  -7 10.7728  6.6346   2
  -8 -10  -7  6.8284 10.8194   1
  -8 -10  -7 14.0259  7.3827   2
 -13  11   7 -4.4985 17.4393   1
 -11  11   7 -1.3266 19.2420   1
  -9  11   7 14.1597 17.5721   1
  -7  11   7 -2.0436 13.5939   1
  -5  11   7 51.8707 17.7808   1
  -3  11   7 -1.9902 10.1372   1
   1 -11  -7 1.30973 5.80236   2
  -1  11   7 -1.4306 10.1743   1
  -1 -11  -7 44.7295 10.1716   2
  -1 -11  -7 62.7530 18.2627   1
  -3 -11  -7 65.1131 18.0657   1
  -3 -11  -7 43.1995  9.1872   2
  -5 -11  -7 0.00841 9.97940   1
  -5 -11  -7 1.18315 5.81930   2
  -7 -11  -7 -2.2806 10.0760   1
  -7 -11  -7 5.30191 6.09634   2
  -9 -11  -7 -7.3559 10.5264   1
 -12  12   7  0.4619 19.6949   1
 -10  12   7  1.4696 17.4615   1
  -8  12   7 10.0827 16.8298   1
  -6  12   7  0.4293 12.4550   1
  -4  12   7 11.4274 13.8979   1
  -2  12   7  0.8555 10.9994   1
   0 -12  -7 59.5549 11.7117   2
   0 -12  -7 47.9090 17.6596   1
   0  12   7 56.3051 17.7785   1
  -2 -12  -7 1.59408 5.91737   2
  -2 -12  -7 -9.6348  8.9510   1
  -4 -12  -7 22.6689 14.1526   1
  -4 -12  -7 22.2856  8.0664   2
  -6 -12  -7  8.9281 11.6399   1
  -6 -12  -7 -0.7283  5.9552   2
  -8 -12  -7  5.5029 12.4246   1
 -10 -12  -7 -1.2375 12.3128   1
 -11  13   7 13.3490 21.2495   1
  -9  13   7 -12.478  14.761   1
  -7  13   7 13.3683 16.6318   1
  -5  13   7 -4.6954 12.0117   1
  -3  13   7 13.1495 14.0821   1
  -1  13   7 -0.0500 13.0571   1
  -1 -13  -7 49.7922 18.3073   1
  -1 -13  -7 53.0731 11.6261   2
  -3 -13  -7 84.6125 21.2441   1
  -3 -13  -7 59.2909 11.6270   2
  -5 -13  -7 -0.4807 11.4171   1
  -5 -13  -7 0.32540 6.03091   2
  -7 -13  -7 -4.8810 11.0903   1
  -7 -13  -7 7.97029 6.77584   2
  -9 -13  -7  3.3901 13.2056   1
 -12  14   7 -15.628  19.370   1
 -10  14   7 -13.888  16.614   1
  -8  14   7 -1.3129 16.6784   1
  -6  14   7 -2.8261 15.0800   1
  -4  14   7  1.2507 13.3701   1
  -2  14   7  2.3814 13.3287   1
   0 -14  -7  3.9557 12.4045   1
   0  14   7  2.6403 13.7332   1
  -2 -14  -7 -5.3663 11.6843   1
  -2 -14  -7 1.71533 6.86399   2
  -4 -14  -7  3.8535 11.9666   1
  -4 -14  -7 6.89138 7.61496   2
  -6 -14  -7  3.4113 11.8931   1
  -6 -14  -7 2.98966 7.10768   2
  -8 -14  -7  8.8467 14.2641   1
 -11  15   7 -4.0990 20.9217   1
  -9  15   7  3.4272 18.8081   1
  -7  15   7 -5.7905 15.6769   1
  -5  15   7  1.5605 15.0639   1
  -3  15   7  1.9146 14.0339   1
  -1  15   7 39.7008 19.8123   1
  -1 -15  -7  8.3323 13.8877   1
  -3 -15  -7 0.00453 6.98283   2
  -3 -15  -7  8.6071 13.3226   1
  -5 -15  -7 -1.8983 11.6655   1
  -5 -15  -7 6.81264 7.62885   2
  -7 -15  -7 -1.5116 12.3040   1
 -10  16   7 -13.080  18.929   1
  -8  16   7 -2.7004 17.8880   1
  -6  16   7 -2.8476 15.6372   1
  -4  16   7 -2.3797 15.7869   1
  -2  16   7 13.8993 16.2155   1
   0  16   7 -2.1366 14.1024   1
  -2 -16  -7 -3.9976 11.9524   1
  -4 -16  -7  3.9720 14.1033   1
  -4 -16  -7 -1.7233  7.3693   2
  -6 -16  -7  1.5224 14.4574   1
  -9  17   7 -14.598  19.453   1
  -7  17   7 -8.0891 16.6348   1
  -5  17   7 11.9179 19.4811   1
  -3  17   7 -1.7856 16.0707   1
  -1  17   7 11.3949 16.8081   1
  -1 -17  -7 -1.0005 12.6896   1
  -3 -17  -7  1.7588 13.9347   1
  -5 -17  -7  1.3171 13.4851   1
  -6  18   7 -8.6418 17.2550   1
  -4  18   7 -0.8386 17.5572   1
  -2  18   7 -4.1701 16.7001   1
   0  18   7  2.7515 16.5252   1
  -2 -18  -7  3.3360 14.9159   1
  -4 -18  -7 -4.7257 13.8185   1
  -3  19   7 11.5464 19.4492   1
  -1  19   7 16.8726 20.8813   1
  -1 -19  -7  7.3554 15.2579   1
   1  19   7  0.6001 17.2574   1
   5  19  -8 -10.011  10.349   3
   3  19  -8 12.9284 11.9883   3
   1  19  -8 -0.0391  9.8462   3
  -1  19  -8 -4.0970  8.5812   3
   6  18  -8 -2.7242 10.5560   3
   4  18  -8 13.5804 12.0409   3
   2  18  -8 -1.2981  9.8132   3
   0  18  -8 5.85481 9.84949   3
  -2  18  -8 4.73228 8.98577   3
  -4  18  -8 24.9075 11.6932   3
   9  17  -8 -6.8176  9.6409   3
   7  17  -8 11.3209 11.2790   3
   5  17  -8  2.9032 10.4372   3
   3  17  -8  6.9729 10.2111   3
   1  17  -8 0.18749 8.55848   3
  -1  17  -8 1.43117 7.19456   3
  -3  17  -8 6.70692 9.68759   3
  -5  17  -8 9.23630 9.44135   3
  10  16  -8 -11.446   9.492   3
   8  16  -8 -0.7603  8.8901   3
   6  16  -8  4.7441 10.2458   3
   4  16  -8  6.3758 10.1912   3
   2  16  -8 13.2444 10.7190   3
   0  16  -8 -3.0254  7.5577   3
  -2  16  -8 6.81901 8.25557   3
  -4  16  -8 -1.5374  7.4955   3
  -6  16  -8 -7.6642  7.4815   2
  -6  16  -8 6.85679 8.90398   3
  11  15  -8  2.1306 10.4077   3
   9  15  -8 -4.0643  8.7889   3
   7  15  -8 2.29093 9.50943   3
   5  15  -8 19.7463 11.6644   3
   3  15  -8 2.32096 8.16469   3
   1  15  -8 14.7583 10.0955   3
  -1  15  -8 17.9546  9.7352   3
  -3  15  -8 -0.9600  6.9098   3
  -5  15  -8 10.4198  7.5832   2
  -5  15  -8 7.83666 9.19146   3
  -7  15  -8 -1.4536  7.7480   2
  12  14  -8  0.0372 10.2463   3
  10  14  -8  6.5390 10.5212   3
   8  14  -8 -3.6726  8.9018   3
   6  14  -8 -2.5530  8.5510   3
   4  14  -8 21.0563 11.0315   3
   2  14  -8 13.2819  9.7235   3
   0  14  -8 11.3610  8.7314   3
  -2  14  -8 7.72806 8.03703   3
  -4  14  -8 6.23670 6.83868   2
  -4  14  -8 1.97313 7.06565   3
  -6  14  -8 19.1788  8.2903   2
  -8  14  -8 -0.9520  8.3464   2
  13  13  -8 -0.8348 10.0115   3
  11  13  -8 0.98973 9.59494   3
   9  13  -8 3.24062 8.63148   3
   7  13  -8 3.67608 9.01729   3
   5  13  -8 6.05273 8.85719   3
   3  13  -8 4.16319 7.39489   3
   1  13  -8 6.26190 8.29179   3
  -1  13  -8 17.8439  9.1766   3
  -3  13  -8 4.21959 7.23690   3
  -3  13  -8 9.14165 6.57592   2
  -5  13  -8 -1.4980  5.9026   2
  -7  13  -8 1.33318 7.65073   2
  -9  13  -8 -0.8539  8.9546   2
  12  12  -8 14.7529 11.3921   3
 -12 -12   8 -0.2487 18.3280   1
  10  12  -8 -4.8396  8.3387   3
   8  12  -8 1.30558 8.13852   3
   6  12  -8 -3.9447  7.1444   3
   4  12  -8 -3.5041  6.8174   3
   2  12  -8 0.85718 6.86740   3
   0  12  -8 43.9330 11.6000   3
  -2  12  -8 15.8716  8.5454   3
  -2  12  -8 11.6028  6.2886   2
  -4  12  -8 14.4590  6.9306   2
  -4  12  -8 14.6077  8.3214   3
  -6  12  -8 1.18387 6.74028   2
  -8  12  -8 3.98469 8.19983   2
 -10  12  -8  9.2025 10.4780   2
  13  11  -8  7.3706 10.5234   3
 -13 -11   8  1.3700 20.8209   1
  11  11  -8 26.4489 11.6403   3
 -11 -11   8  6.4283 15.5010   1
   9  11  -8 -5.1872  7.3068   3
   7  11  -8 0.23436 6.44711   3
   5  11  -8 4.27194 7.93849   3
   3  11  -8 24.9982  9.7094   3
   1  11  -8 6.76552 7.16810   3
  -1  11  -8 32.1503  7.4460   2
  -1  11  -8 17.9053  8.6905   3
  -3  11  -8 16.8271  6.9442   2
  -3  11  -8 14.0547  8.0029   3
  -5  11  -8 1.74382 6.09867   2
  -7  11  -8 6.31701 7.38222   2
  -9  11  -8 12.6822  9.5923   2
 -14 -10   8  3.7550 16.2999   1
  12  10  -8 -6.1139  7.5055   3
 -12 -10   8  6.6335 18.9796   1
  10  10  -8 18.7167 10.0353   3
 -10 -10   8  1.8237 12.9112   1
   8  10  -8 4.99768 7.82457   3
   6  10  -8 18.6299  8.8161   3
   4  10  -8 10.9462  8.2167   3
   2  10  -8 7.42943 7.46731   3
   0  10  -8 45.6903  8.0278   2
   0  10  -8 44.2872 10.9154   3
  -2  10  -8 -2.0745  5.6483   3
  -2  10  -8 -2.2328  4.8492   2
  -4  10  -8 13.2428  6.4614   2
  -6  10  -8 -4.3207  5.1462   2
  -8  10  -8 6.62566 8.26704   2
 -10  10  -8 29.0279 10.3188   2
  13   9  -8  4.7798 10.0810   3
 -13  -9   8  0.1336 16.9092   1
  11   9  -8 12.7408  9.9915   3
   9   9  -8 32.2170 10.5850   3
   7   9  -8 19.2880  8.7325   3
   5   9  -8 10.4001  7.7904   3
   3   9  -8 2.35315 6.68630   3
   1   9  -8 97.8470 13.7287   3
   1   9  -8 82.1870  9.3964   2
  -1   9  -8 36.7036  7.2937   2
  -1   9  -8 37.5861  9.7864   3
  -3   9  -8 1.69644 5.82219   3
  -5   9  -8 0.66926 5.63657   2
  -7   9  -8 3.20779 7.01008   2
  -9   9  -8 -2.1816  8.1221   2
 -11   9  -8 -0.1054  9.6898   2
 -14  -8   8  3.0758 15.6118   1
  12   8  -8 -4.3132  8.2906   3
 -12  -8   8 -1.8824 16.5821   1
  10   8  -8 8.58581 8.71108   3
 -10  -8   8  5.7980 13.7645   1
   8   8  -8 8.83161 7.71532   3
  -8  -8   8  1.0538 11.2828   1
   6   8  -8 21.6274  8.8122   3
   4   8  -8 3.28969 6.65478   3
   2   8  -8 31.8074  8.9335   3
   0   8  -8 23.1789  8.4020   3
   0   8  -8 32.2406  7.0661   2
  -2   8  -8 75.7884  9.4851   2
  -2   8  -8 81.1580 12.5722   3
  -4   8  -8 6.45721 5.81407   2
  -6   8  -8 3.90805 6.40054   2
  -8   8  -8 5.07451 6.90254   2
 -10   8  -8 18.1515  9.9564   2
 -15  -7   8  7.1553 15.5536   1
 -13  -7   8  5.9867 17.2685   1
  11   7  -8 10.8904  9.3657   3
 -11  -7   8 -3.1898 14.8889   1
   9   7  -8 1.58458 7.18761   3
  -9  -7   8  9.9797 13.8183   1
   5   7  -8 38.8691  9.5896   3
   3   7  -8 4.40592 6.21521   3
   1   7  -8 8.95728 5.86139   2
   1   7  -8 22.1255  8.0315   3
  -1   7  -8 2.40785 5.56876   3
  -1   7  -8 3.12702 5.22682   2
  -3   7  -8 29.6537  8.6339   3
  -3   7  -8 23.9394  7.0992   2
  -5   7  -8 3.47576 5.91559   2
  -7   7  -8 5.89148 6.84095   2
  -9   7  -8 5.71979 8.23470   2
 -11   7  -8 0.87670 8.27553   2
 -14  -6   8 -6.6775 14.4239   1
  12   6  -8 -0.4794  8.4038   3
 -12  -6   8 -7.3366 16.2907   1
  10   6  -8 9.58039 8.69528   3
 -10  -6   8  8.4862 15.0902   1
   8   6  -8 61.8235 11.7325   3
  -8  -6   8 -8.7620 12.1109   1
   6   6  -8 80.2302 11.3019   3
   4   6  -8 2.07322 5.32224   3
   2   6  -8 56.3651  8.2533   2
   2   6  -8 69.7828 10.8818   3
   0   6  -8 -1.4688  4.9657   2
   0   6  -8 0.16402 4.81237   3
  -2   6  -8 3.81811 5.46848   2
  -2   6  -8 2.83946 5.04136   3
  -4   6  -8 12.0825  6.4258   2
  -6   6  -8 7.20541 6.11013   2
  -8   6  -8 3.67278 6.79365   2
 -10   6  -8 26.9420 10.3216   2
 -12   6  -8 -0.5641  9.8882   2
 -15  -5   8 -1.0565 14.8755   1
 -13  -5   8 -5.0914 12.3658   1
  11   5  -8 7.85916 9.00656   3
 -11  -5   8 -16.051  15.859   1
   9   5  -8 14.3207  8.5811   3
  -9  -5   8 -6.1592 14.3859   1
   7   5  -8 3.44873 5.94290   3
  -7  -5   8 11.6122 13.8013   1
   5   5  -8 0.40158 5.60139   3
  -5  -5   8 -8.5102  9.9681   1
   3   5  -8 102.533   9.918   2
   3   5  -8 86.9761 11.4822   3
   1   5  -8 18.6474  6.0813   2
   1   5  -8 11.8036  6.2541   3
  -1   5  -8 8.42675 5.71656   2
  -1   5  -8 1.79062 4.86155   3
  -3   5  -8 15.2602  6.5302   2
  -5   5  -8 20.3692  7.5287   2
  -7   5  -8 9.81747 7.48649   2
  -9   5  -8 17.8977  8.7603   2
 -11   5  -8 -5.2507  8.1285   2
 -14  -4   8 -5.0187 10.1883   1
 -12  -4   8  3.3044 13.7109   1
  10   4  -8 8.26993 8.53227   3
 -10  -4   8 13.4305 16.2807   1
   8   4  -8 22.0385  8.4954   3
  -8  -4   8 -15.689  12.225   1
   6   4  -8 2.47065 5.36630   3
  -6  -4   8 -6.1214 10.6155   1
   4   4  -8 79.4873 10.7546   3
   4   4  -8 77.8034  8.6845   2
   2   4  -8 7.89774 5.38564   3
   2   4  -8 10.9453  5.2050   2
   0   4  -8 28.3573  6.6714   2
   0   4  -8 14.4427  5.9929   3
  -2   4  -8 20.3340  6.5550   3
  -2   4  -8 23.9146  6.7771   2
  -4   4  -8 251.133  14.913   2
  -6   4  -8 11.9084  7.0370   2
  -8   4  -8 -1.5957  6.7288   2
 -10   4  -8 2.94332 8.08408   2
 -12   4  -8 -3.4113  8.0488   2
 -15  -3   8  5.4248 14.9236   1
 -13  -3   8 -12.370  13.651   1
 -11  -3   8  1.0093 17.3369   1
   9   3  -8 17.4224  8.7649   3
  -9  -3   8 -0.6464 14.5904   1
   5   3  -8 3.55959 4.20945   2
   5   3  -8 0.67808 5.01297   3
  -5  -3   8 -6.3626  9.9759   1
   3   3  -8 12.8052  5.0558   2
   3   3  -8 6.96468 5.30927   3
  -3  -3   8 -3.8976  8.0099   1
   1   3  -8 37.1375  7.1439   2
   1   3  -8 39.4971  7.7466   3
  -1   3  -8 23.9966  6.5877   3
  -1   3  -8 17.5132  6.4783   2
  -3   3  -8 29.6730  7.0033   3
  -3   3  -8 32.9769  7.8062   2
  -5   3  -8 13.0224  7.1885   2
  -7   3  -8 2.94486 7.40560   2
  -9   3  -8 22.8308  8.8492   2
 -11   3  -8 -3.1575  8.3358   2
 -14  -2   8 -0.4635 21.2081   1
 -12  -2   8  1.8279 19.8410   1
 -10  -2   8 -4.6203 15.2736   1
   8   2  -8 2.61236 6.87520   3
  -8  -2   8 -2.2766 12.8330   1
   6   2  -8 1.59990 4.83012   2
   6   2  -8 5.68059 5.61412   3
  -6  -2   8 -0.4362 10.9948   1
   4   2  -8 4.00230 4.17478   2
   4   2  -8 3.54790 4.75663   3
  -4  -2   8 10.5828  9.4768   1
   2   2  -8 20.2931  5.8973   2
   2   2  -8 18.6821  6.1274   3
  -2  -2   8 5.64946 7.52751   1
   0   2  -8 21.8010  6.5821   2
   0   2  -8 20.0906  6.1509   3
  -2   2  -8 60.3003  8.9124   2
  -2   2  -8 65.2907  8.9115   3
  -4   2  -8 20.7493  7.6265   2
  -6   2  -8 14.5274  7.6478   2
  -8   2  -8 9.46839 7.97560   2
 -10   2  -8 3.97176 8.40211   2
 -12   2  -8 4.82128 9.58184   2
 -15  -1   8 -6.7780 21.5563   1
 -13  -1   8 -5.2713 17.5058   1
 -11  -1   8 -1.4127 17.4308   1
   9   1  -8 44.2343 10.2713   3
  -9  -1   8 -5.5356 13.9036   1
   7   1  -8 33.2304  8.3183   3
  -7  -1   8 -8.0220 11.0235   1
   5   1  -8 69.6556  9.6244   3
   5   1  -8 72.3921  9.0862   2
   3   1  -8 37.4281  6.7542   2
   3   1  -8 42.1963  7.2819   3
   1   1  -8 18.5158  5.3843   3
   1   1  -8 14.7016  5.7409   2
  -1   1  -8 37.5612  7.7069   2
  -1   1  -8 40.0954  7.0490   3
  -3   1  -8 22.5882  7.3172   2
  -3   1  -8 14.3983  5.2973   3
  -5   1  -8 1.77461 6.54645   2
  -7   1  -8 10.7698  7.7271   2
  -9   1  -8 -4.2793  7.1674   2
 -11   1  -8 -8.7224  7.8218   2
 -13   1  -8 0.36800 9.55802   2
 -14   0   8 -10.923  20.457   1
 -12   0   8 13.3061 20.2249   1
 -10   0   8  9.3763 17.3518   1
   8   0  -8 -0.4885  5.8666   3
  -8   0   8 -6.3108 11.8876   1
   6   0  -8 73.6683 10.4002   3
   6   0  -8 80.8855 10.4206   2
   4   0  -8 32.3843  6.8720   2
   4   0  -8 32.1334  6.4066   3
  -4   0   8 10.3582 10.6195   1
   2   0  -8 18.2402  5.4806   3
   2   0  -8 14.3540  5.6827   2
  -2   0   8 2.65533 8.35399   1
   0   0  -8 46.3435  7.0313   3
   0   0  -8 38.5054  7.5132   2
  -2   0  -8 2.86704 3.74509   3
  -2   0  -8 2.23107 4.95897   2
  -4   0  -8 4.32179 6.57222   2
  -6   0  -8 286.897  17.153   2
  -8   0  -8 18.6751  7.9045   2
 -10   0  -8 6.18788 8.44806   2
 -12   0  -8 -7.3179  8.9564   2
 -15   1   8 13.8425 22.3732   1
 -13   1   8 -0.5793 20.2119   1
 -11   1   8 19.4927 19.0305   1
  -9   1   8  3.8768 14.9604   1
   7  -1  -8 25.6327  7.7226   3
  -7   1   8  2.6934 11.9743   1
   5  -1  -8 69.5805  9.6616   2
   5  -1  -8 58.3336  8.2501   3
   3  -1  -8 32.1290  5.9133   3
   3  -1  -8 35.2763  7.0879   2
  -3   1   8 9.38034 9.45390   1
   1  -1  -8 18.7256  5.0379   3
   1  -1  -8 21.0872  6.1205   2
  -1   1   8 11.1586  7.9857   1
  -1  -1  -8 33.0976  6.1122   3
  -1  -1  -8 27.9394  7.0636   2
  -3  -1  -8 24.2421  7.3956   2
  -5  -1  -8 -1.4158  6.6534   2
  -7  -1  -8 5.67706 7.48498   2
  -9  -1  -8 -4.8962  7.4075   2
 -11  -1  -8 -4.8123  7.9193   2
 -13  -1  -8 20.8624 11.4104   2
 -14   2   8  3.2428 20.9442   1
 -12   2   8  9.6874 17.3831   1
 -10   2   8 10.5789 16.6102   1
  -8   2   8  1.2335 13.4842   1
   6  -2  -8 3.48085 5.48278   2
   6  -2  -8 -2.6977  4.6257   3
  -6   2   8 -8.1113 11.2578   1
   4  -2  -8 4.74736 4.31613   3
   4  -2  -8 -0.7603  4.3904   2
  -4   2   8 7.07511 9.63901   1
   2  -2  -8 20.0881  4.8848   3
   2  -2  -8 20.4802  6.0269   2
  -2   2   8 13.9673  9.0356   1
   0  -2  -8 18.5396  6.2186   2
   0   2   8 20.6078  8.6099   1
  -2  -2  -8 63.4196  8.6773   2
   2   2   8 64.4561  9.3532   1
  -4  -2  -8 26.2971  8.0772   2
  -6  -2  -8 10.2039  6.8049   2
  -8  -2  -8 19.0976  8.8464   2
 -10  -2  -8 -5.0789  7.2778   2
 -12  -2  -8 -1.3239  9.0844   2
 -15   3   8 21.5625 24.0393   1
 -13   3   8 -1.5510 17.4329   1
 -11   3   8 -0.2891 14.8421   1
  -9   3   8 -4.8117 13.6360   1
  -7   3   8 21.1068 15.2579   1
   5  -3  -8 5.23767 5.85504   2
   5  -3  -8 2.18627 4.58622   3
  -5   3   8 -3.7762 10.4240   1
   3  -3  -8 13.8950  5.8231   2
   3  -3  -8 10.4925  4.4228   3
  -3   3   8 9.87652 9.22243   1
   1  -3  -8 28.7031  6.5659   2
  -1   3   8 27.4681 10.0037   1
  -1  -3  -8 27.4755  6.6244   2
   1   3   8 35.5694  9.8242   1
  -3  -3  -8 25.9389  7.4381   2
  -5  -3  -8 16.2404  7.7070   2
  -7  -3  -8 11.6212  7.2290   2
  -9  -3  -8 16.8344  8.9466   2
 -11  -3  -8 4.75669 8.96477   2
 -13  -3  -8 -6.3951  9.6131   2
 -14   4   8 -0.6753 19.7538   1
 -12   4   8  1.5536 16.0998   1
 -10   4   8  1.0784 14.6600   1
  -8   4   8 11.3452 16.3400   1
  -6   4   8 -1.3520 12.0700   1
   4  -4  -8 73.0553 10.7839   2
   2  -4  -8 17.4861  5.9234   2
  -2   4   8 8.29324 8.10771   1
   0  -4  -8 11.2883  5.7465   2
   0   4   8 22.5451  9.2056   1
  -2  -4  -8 21.0497  6.8830   2
  -4  -4  -8 236.820  16.342   2
  -6  -4  -8 9.17222 7.25964   2
  -8  -4  -8 5.50442 7.71536   2
 -10  -4  -8 9.76329 9.06340   2
 -12  -4  -8 -4.4467  8.3522   2
 -15   5   8 -8.3143 19.8935   1
 -13   5   8 -0.4676 17.7266   1
 -11   5   8  2.0645 14.8965   1
  -9   5   8 10.3695 16.8602   1
  -7   5   8  5.6045 14.7115   1
   5  -5  -8 4.00001 5.73949   2
  -5   5   8 -5.6219  9.4459   1
   3  -5  -8 79.0112 11.1198   2
  -3   5   8 48.7184 13.3091   1
   1  -5  -8 10.5445  5.7882   2
  -1   5   8 15.2635  9.3220   1
  -1  -5  -8 5.50464 5.36204   2
   1   5   8 4.13690 7.76923   1
  -3  -5  -8 21.3292 11.5127   1
  -3  -5  -8 11.1395  6.2521   2
  -5  -5  -8 12.1723  7.4597   2
  -7  -5  -8 23.8645  8.4161   2
  -9  -5  -8 21.4116  9.5243   2
 -11  -5  -8 2.10503 8.98950   2
 -14   6   8 12.6937 20.5365   1
 -12   6   8 -8.6804 15.7421   1
 -10   6   8  2.1541 15.1235   1
  -8   6   8 15.2056 17.7662   1
  -6   6   8 44.5355 15.9708   1
   4  -6  -8 7.55575 6.56892   2
  -4   6   8  4.3035 10.2191   1
   2  -6  -8 53.1676  9.4813   2
  -2   6   8 51.4424 13.6846   1
   0  -6  -8 -2.4837  4.3694   2
   0   6   8 -0.8574  7.5427   1
  -2  -6  -8 5.37210 9.55400   1
  -2  -6  -8 0.72505 4.91899   2
  -4  -6  -8 -2.1278  5.4401   2
  -4  -6  -8 -2.6348  9.2382   1
  -6  -6  -8 6.14002 6.94202   2
  -8  -6  -8 9.86901 7.81488   2
 -10  -6  -8 33.5478 10.5057   2
 -12  -6  -8 11.5008 10.2798   2
 -13   7   8 -3.4910 17.7030   1
 -11   7   8 10.2463 17.0113   1
  -9   7   8 -5.7041 16.2765   1
  -7   7   8 74.3910 20.0685   1
  -5   7   8 24.1443 13.9764   1
   3  -7  -8 -0.2472  5.8307   2
  -3   7   8 15.0775 10.9407   1
   1  -7  -8 20.0008  6.9635   2
  -1   7   8 21.7431 10.8246   1
  -1  -7  -8 8.93711 5.98436   2
   1   7   8 12.3596  9.6794   1
  -3  -7  -8 57.3453 15.8407   1
  -3  -7  -8 30.7021  8.3358   2
  -5  -7  -8 7.58768 6.38030   2
  -5  -7  -8 -0.1760  9.2508   1
  -7  -7  -8 9.47707 7.12972   2
  -9  -7  -8 8.12677 8.20736   2
 -11  -7  -8 6.02090 8.60247   2
 -14   8   8 -1.3571 20.5105   1
 -12   8   8 -1.4642 16.5764   1
 -10   8   8 -4.0245 16.7779   1
  -8   8   8  6.1494 15.0188   1
  -6   8   8 15.0036 14.8803   1
  -4   8   8  3.6507 10.4439   1
   2  -8  -8 25.9525  8.8473   2
  -2   8   8 28.3420 12.8032   1
   0  -8  -8 24.3709  7.7196   2
   0   8   8 30.9176 12.8034   1
  -2  -8  -8 82.4193 11.4890   2
  -2  -8  -8 91.9967 19.6898   1
  -4  -8  -8 8.71592 6.08214   2
  -4  -8  -8 -1.3070  9.3596   1
  -6  -8  -8 3.43347 6.30892   2
  -6  -8  -8 -2.0604  8.9593   1
  -8  -8  -8 13.8270  8.3488   2
 -10  -8  -8 21.5638  9.5955   2
 -13   9   8  2.9729 18.8639   1
 -11   9   8 -14.115  17.184   1
  -9   9   8 13.0403 17.4884   1
  -7   9   8  6.8411 14.8969   1
  -5   9   8  3.5753 12.5874   1
   3  -9  -8 7.79235 7.46399   2
  -3   9   8 -0.4549  9.9517   1
   1  -9  -8 96.1596 12.9101   2
  -1   9   8 116.526  20.479   1
  -1  -9  -8 33.6763  8.9502   2
  -3  -9  -8 -0.5173  5.3023   2
  -3  -9  -8  2.0824 10.0378   1
  -5  -9  -8 -0.1922  9.7053   1
  -5  -9  -8 3.43720 5.30680   2
  -7  -9  -8 6.15690 7.54085   2
  -9  -9  -8 0.31338 6.99823   2
 -12  10   8 -7.9722 18.3284   1
 -10  10   8  8.6898 19.5501   1
  -8  10   8  4.1858 15.8975   1
  -6  10   8 16.1620 15.2518   1
  -4  10   8 13.0175 13.1254   1
   2 -10  -8 10.2565  8.0030   2
  -2  10   8 14.2035 12.6864   1
   0 -10  -8 48.0737 10.6882   2
   0  10   8 62.0082 17.3860   1
  -2 -10  -8  2.6510 10.4193   1
  -2 -10  -8 4.58132 5.89974   2
  -4 -10  -8 10.8339  6.8256   2
  -4 -10  -8 12.8926 12.4708   1
  -6 -10  -8  0.1943 10.4219   1
  -6 -10  -8 -1.2953  5.6551   2
  -8 -10  -8 0.84853 6.58928   2
 -13  11   8 -1.1363 19.6017   1
 -11  11   8  2.6004 21.0991   1
  -9  11   8  5.0329 16.7838   1
  -7  11   8  2.8735 15.3149   1
  -5  11   8 12.8515 14.2944   1
  -3  11   8 21.3440 14.2473   1
   1 -11  -8 12.2459  8.4503   2
  -1  11   8 11.3662 13.4969   1
  -1 -11  -8 22.1517  8.9082   2
  -1 -11  -8 23.3110 14.5051   1
  -3 -11  -8 8.35982 6.82693   2
  -3 -11  -8 20.1738 14.0472   1
  -5 -11  -8  6.9132 12.1541   1
  -5 -11  -8 8.40024 7.02488   2
  -7 -11  -8  1.6390 10.6150   1
  -7 -11  -8 13.9607  8.2490   2
  -9 -11  -8 7.98637 7.75903   2
 -12  12   8 -3.9114 20.4951   1
 -10  12   8  2.8505 18.9632   1
  -8  12   8 -4.3954 16.1033   1
  -6  12   8 -4.4893 13.8550   1
  -4  12   8 -2.3340 12.2665   1
  -2  12   8 11.0115 13.6696   1
   0 -12  -8 59.0272 12.4286   2
   0  12   8 78.7773 20.4666   1
  -2 -12  -8 10.0907  7.8271   2
  -2 -12  -8 20.4295 14.9543   1
  -4 -12  -8 21.7526  8.6710   2
  -4 -12  -8 12.4530 13.4791   1
  -6 -12  -8 4.08252 7.07740   2
  -6 -12  -8 -0.8868 11.4694   1
  -8 -12  -8  1.0992 12.0596   1
  -8 -12  -8 7.53108 7.80924   2
 -11  13   8 14.5219 23.0983   1
  -9  13   8 -4.2848 17.4388   1
  -7  13   8 -4.7930 15.4833   1
  -5  13   8 -4.5005 13.4173   1
  -3  13   8  8.9198 14.5623   1
  -1  13   8 14.8591 15.1608   1
  -1 -13  -8 19.0851  9.5632   2
  -1 -13  -8 12.9387 14.1116   1
  -3 -13  -8  4.6133 13.2584   1
  -3 -13  -8 7.86628 7.72166   2
  -5 -13  -8 14.0823 14.1896   1
  -5 -13  -8 3.08596 7.09946   2
  -7 -13  -8 -0.0665 11.7056   1
  -7 -13  -8 4.07801 7.72985   2
 -10  14   8 -6.2845 18.9801   1
  -8  14   8  3.0413 19.0190   1
  -6  14   8  8.0507 15.9904   1
  -4  14   8  6.0670 15.2601   1
  -2  14   8  9.9559 15.0114   1
   0  14   8 16.8153 15.7816   1
  -2 -14  -8 5.69759 7.90502   2
  -2 -14  -8 10.1224 14.5130   1
  -4 -14  -8 5.28779 7.83120   2
  -4 -14  -8  7.1079 13.4163   1
  -6 -14  -8 11.5824  8.9143   2
  -6 -14  -8 17.7152 15.7249   1
  -8 -14  -8  3.2305 14.4103   1
  -9  15   8  0.1029 19.5699   1
  -7  15   8  4.8856 18.0310   1
  -5  15   8  7.1405 17.1124   1
  -3  15   8  1.3959 15.7550   1
  -1  15   8 42.9352 19.8790   1
  -1 -15  -8 17.8605 16.0658   1
   1  15   8 15.2655 16.1270   1
  -3 -15  -8  1.3521 13.0386   1
  -3 -15  -8 0.67469 8.08885   2
  -5 -15  -8  7.0644 14.1051   1
  -5 -15  -8 8.59624 8.85204   2
  -7 -15  -8 -1.5513 13.2309   1
  -8  16   8 -4.0032 19.9078   1
  -6  16   8 -2.3419 17.6154   1
  -4  16   8  2.5229 16.6610   1
  -2  16   8 20.1537 17.3849   1
   0  16   8 -1.7715 15.0107   1
  -2 -16  -8 -1.3212 13.0140   1
  -4 -16  -8  1.4436 13.7300   1
  -4 -16  -8 -1.8599  8.6846   2
  -7  17   8 -4.8475 18.2758   1
  -5  17   8  7.6634 19.7605   1
  -3  17   8 -1.1605 16.0145   1
  -1  17   8 -2.7584 15.9676   1
   1  17   8  1.6697 16.2656   1
  -3 -17  -8  8.1421 15.6864   1
  -4  18   8 14.4809 20.7823   1
  -2  18   8  9.8041 18.2574   1
   0  18   8  4.0740 17.6983   1
   4  18  -9 13.2781 11.8995   3
   2  18  -9 -2.8087  9.9206   3
   0  18  -9 0.29461 9.48019   3
   7  17  -9  4.9843 10.9639   3
   5  17  -9 -7.9868  9.8281   3
   3  17  -9 -0.8265  9.5665   3
   1  17  -9 5.25611 9.94725   3
  -1  17  -9 -4.1658  7.9244   3
  -3  17  -9 1.34942 8.35484   3
   8  16  -9 0.79827 9.87328   3
   6  16  -9 11.9642 11.3614   3
   4  16  -9 2.67225 9.20039   3
   2  16  -9 1.16320 9.32636   3
   0  16  -9 4.64419 9.31550   3
  -2  16  -9 4.28356 8.20364   3
  -4  16  -9 1.25206 8.11938   3
   9  15  -9 -3.0589  9.7407   3
   7  15  -9 -6.3273  8.7534   3
   5  15  -9 2.31141 9.92367   3
   3  15  -9 -2.2265  8.9888   3
   1  15  -9 -4.3427  7.4511   3
  -1  15  -9 12.8347  9.5008   3
  -3  15  -9 2.52670 7.89983   3
  -5  15  -9 7.44726 9.18209   3
  -5  15  -9 -4.7308  7.6196   2
  10  14  -9  2.6208 10.8439   3
   8  14  -9 2.86846 9.74000   3
   6  14  -9 2.10672 9.26050   3
   4  14  -9 -0.4642  8.5824   3
   2  14  -9 6.34396 9.38675   3
   0  14  -9 -0.6791  7.6467   3
  -2  14  -9 8.37395 8.86296   3
  -4  14  -9 -1.3300  6.7110   2
  -4  14  -9 -2.6241  7.4533   3
  -6  14  -9 5.77355 8.85560   3
  -6  14  -9 2.47410 7.87861   2
  11  13  -9 -0.1244  9.8280   3
   9  13  -9 -3.5758  8.6138   3
   7  13  -9 -4.8885  8.5593   3
   5  13  -9 13.9258  9.5636   3
   3  13  -9 3.27764 8.24205   3
   1  13  -9 15.3636  9.7709   3
  -1  13  -9 5.66311 7.78792   3
  -3  13  -9 12.9403  8.7472   3
  -3  13  -9 11.6246  7.1760   2
  -5  13  -9 8.30392 7.51941   2
  -5  13  -9 -0.2307  7.4054   3
  -7  13  -9 4.39319 8.19636   2
  12  12  -9 -2.4862  9.5882   3
  10  12  -9 -0.2513  9.6063   3
   8  12  -9 3.52555 8.89414   3
   6  12  -9 3.50599 8.42508   3
   4  12  -9 2.03766 7.97184   3
   2  12  -9 0.91407 7.42895   3
   0  12  -9 5.52190 7.54273   3
  -2  12  -9 2.25695 6.87334   3
  -2  12  -9 -7.0152  5.8413   2
  -4  12  -9 11.4020  7.6896   2
  -4  12  -9 2.50098 7.32420   3
  -6  12  -9 -3.9987  6.8097   2
  -8  12  -9 5.45820 9.08595   2
  13  11  -9 -1.7098  9.8369   3
  11  11  -9 1.66626 9.66581   3
   9  11  -9 11.9527  9.7432   3
   7  11  -9 1.65756 8.33553   3
   5  11  -9 5.91328 8.22235   3
   3  11  -9 9.44050 8.38383   3
   1  11  -9 -5.3364  5.8832   3
  -1  11  -9 17.2179  8.8725   3
  -3  11  -9 0.97167 6.09765   2
  -3  11  -9 6.02121 7.49079   3
  -5  11  -9 -3.1886  6.0055   3
  -5  11  -9 -3.2299  6.8399   2
  -7  11  -9 -0.9295  7.7776   2
  -9  11  -9 -8.5441  8.8578   2
  12  10  -9 2.69819 9.82596   3
  10  10  -9 -7.5988  7.1860   3
   8  10  -9 1.08403 6.72539   3
   6  10  -9 5.47327 7.97330   3
   4  10  -9 9.95936 8.52096   3
   2  10  -9 19.6764  9.3702   3
   0  10  -9 12.9040  8.3610   3
  -2  10  -9 8.66058 6.57561   2
  -2  10  -9 2.06570 6.18532   3
  -4  10  -9 2.48116 6.37932   2
  -4  10  -9 7.09672 7.31084   3
  -6  10  -9 -3.2049  6.6300   2
  -8  10  -9 13.3535  9.4082   2
  13   9  -9 -5.6286  9.2781   3
  11   9  -9 15.4861 10.3545   3
   9   9  -9 6.92371 8.57411   3
   7   9  -9 11.6061  8.4539   3
   5   9  -9 -0.9395  7.1155   3
   3   9  -9 74.2369 13.2297   3
   1   9  -9 7.33533 7.45609   3
  -1   9  -9 -0.4156  5.6478   2
  -1   9  -9 1.66717 6.24778   3
  -3   9  -9 2.53292 6.70571   2
  -3   9  -9 -5.9605  5.1199   3
  -5   9  -9 2.62284 6.62155   2
  -7   9  -9 -0.3857  7.3865   2
  -9   9  -9 -1.0579  8.8104   2
 -14  -8   9  1.3785 15.7604   1
  12   8  -9 1.74967 9.56363   3
 -12  -8   9  2.5712 17.6267   1
  10   8  -9 13.6187  8.8778   3
 -10  -8   9  6.3181 12.8996   1
   8   8  -9 32.9849  9.6803   3
   6   8  -9 11.3310  7.9027   3
   4   8  -9 4.35344 7.14756   3
   2   8  -9 2.75754 6.65793   3
   0   8  -9 -0.3356  5.6796   2
   0   8  -9 0.93602 6.20749   3
  -2   8  -9 8.59393 6.93700   2
  -2   8  -9 6.93249 6.53620   3
  -4   8  -9 1.13013 6.28810   2
  -4   8  -9 2.64866 6.24288   3
  -6   8  -9 -0.2708  6.8834   2
  -8   8  -9 4.94817 7.59547   2
 -10   8  -9 4.66289 9.81599   2
 -13  -7   9  4.8872 19.9580   1
  11   7  -9 9.02271 9.60086   3
 -11  -7   9 -0.9494 14.7859   1
   9   7  -9 0.89416 7.51698   3
  -9  -7   9 -5.1947 11.1755   1
   7   7  -9 -1.0483  6.5361   3
   5   7  -9 5.23500 6.78492   3
   3   7  -9 4.69169 6.68233   3
   1   7  -9 19.9895  7.6772   3
   1   7  -9 26.5824  7.6523   2
  -1   7  -9 -2.1524  4.7814   3
  -1   7  -9 -3.0554  5.7089   2
  -3   7  -9 1.07307 5.62571   3
  -3   7  -9 -1.2110  5.8779   2
  -5   7  -9 -4.0330  6.3503   2
  -7   7  -9 -2.0918  7.3082   2
  -9   7  -9 -2.0525  8.5030   2
 -14  -6   9 -7.3426 15.8333   1
  12   6  -9  8.7498 10.2428   3
 -12  -6   9 -9.9143 16.6041   1
  10   6  -9 21.5430 10.4146   3
 -10  -6   9 -3.2899 13.4121   1
   8   6  -9 24.9249  9.3304   3
  -8  -6   9 -7.5588 11.8823   1
   6   6  -9 5.63909 6.80618   3
   4   6  -9 18.2457  7.9611   3
   2   6  -9 -0.6417  5.4069   3
   2   6  -9 1.74331 5.27905   2
   0   6  -9 -0.4488  5.2426   3
   0   6  -9 2.11897 5.76812   2
  -2   6  -9 -2.2868  5.7296   2
  -2   6  -9 -0.2427  5.2888   3
  -4   6  -9 13.1135  7.1793   3
  -4   6  -9 16.0777  7.6134   2
  -6   6  -9 9.29338 6.88137   2
  -8   6  -9 2.39520 8.08369   2
 -10   6  -9 29.3218 11.3790   2
 -15  -5   9 -6.2147 13.1270   1
 -13  -5   9  2.3302 14.4638   1
  11   5  -9 8.69129 9.61431   3
 -11  -5   9 -1.0977 16.6160   1
   9   5  -9 27.4534  9.6741   3
  -9  -5   9  0.8515 15.0917   1
   7   5  -9 3.20698 6.63420   3
  -7  -5   9 -4.0358 12.5886   1
   5   5  -9 56.4684 10.2858   3
   3   5  -9 21.1054  7.5483   3
   3   5  -9 20.2622  6.7749   2
   1   5  -9 2.66262 5.56221   3
   1   5  -9 2.58886 5.50421   2
  -1   5  -9 4.85183 6.19182   2
  -1   5  -9 3.25691 5.54332   3
  -3   5  -9 9.28216 6.11622   2
  -3   5  -9 9.23995 6.08185   3
  -5   5  -9 15.2933  7.8334   2
  -7   5  -9 2.67779 6.80404   2
  -9   5  -9 -8.0334  7.9810   2
 -11   5  -9 -8.2282  9.0651   2
 -14  -4   9 -1.0631 15.8134   1
 -12  -4   9 -4.9615 18.2990   1
  10   4  -9 3.29961 7.60790   3
 -10  -4   9 -6.0539 13.7437   1
   8   4  -9 19.7943  8.3410   3
  -8  -4   9 -4.8342 12.8772   1
   6   4  -9 13.4259  7.0157   3
  -6  -4   9 -8.4447 11.0018   1
   4   4  -9 17.2014  7.2060   3
   4   4  -9 24.1571  6.5478   2
   2   4  -9 -0.7762  4.6471   3
   2   4  -9 2.24500 5.27638   2
   0   4  -9 4.92519 5.99100   2
   0   4  -9 -0.9783  4.3991   3
  -2   4  -9 15.7733  6.4765   3
  -2   4  -9 13.3849  7.2018   2
  -4   4  -9 64.3169 10.3923   3
  -4   4  -9 61.6490 10.4379   2
  -6   4  -9 5.39826 7.31655   2
  -8   4  -9 -2.3933  8.0037   2
 -10   4  -9 -5.4923  8.4798   2
 -15  -3   9 -2.7381 14.0081   1
 -13  -3   9  4.6705 19.1727   1
 -11  -3   9 -8.6801 15.8088   1
   9   3  -9 8.22724 8.27608   3
  -9  -3   9  2.9742 14.1644   1
   7   3  -9 -0.0627  6.0193   3
  -7  -3   9  0.6872 12.3726   1
   5   3  -9 -1.8038  4.3094   2
   5   3  -9 1.80133 5.45264   3
  -5  -3   9 -7.4160  9.9091   1
   3   3  -9 -2.7462  4.6166   2
   3   3  -9 -0.2289  4.7938   3
   1   3  -9 -3.0710  4.0712   3
   1   3  -9 8.11439 5.57842   2
  -1   3  -9 5.54775 5.28336   3
  -1   3  -9 -0.7073  5.7386   2
  -3   3  -9 4.20203 6.99688   2
  -3   3  -9 1.31161 4.92011   3
  -5   3  -9 5.88349 7.15046   2
  -7   3  -9 6.13553 7.86985   2
  -9   3  -9 -8.2241  7.4866   2
 -11   3  -9 2.21444 9.73138   2
 -14  -2   9 -1.3252 20.6455   1
 -12  -2   9 -7.7828 17.7730   1
  10   2  -9 10.1545  8.2855   3
 -10  -2   9 -6.9665 15.1957   1
   8   2  -9 8.68423 7.13733   3
  -8  -2   9 -10.575  12.252   1
   6   2  -9 3.91706 5.25911   2
   6   2  -9 3.24719 5.75462   3
  -6  -2   9 -0.2024 10.7897   1
   4   2  -9 1.40878 4.73559   3
   4   2  -9 -0.8250  4.2005   2
   2   2  -9 0.41528 4.33892   3
   2   2  -9 -1.7953  4.5303   2
   0   2  -9 10.3094  5.9070   2
   0   2  -9 11.8524  5.8703   3
  -2   2  -9 2.49325 4.49248   3
  -2   2  -9 8.45206 6.72679   2
  -4   2  -9 0.76267 6.85754   2
  -4   2  -9 -2.4829  4.2055   3
  -6   2  -9 3.97826 7.40985   2
  -8   2  -9 10.7788  8.5523   2
 -10   2  -9 -4.7552  7.6708   2
 -15  -1   9  5.3257 24.2434   1
 -13  -1   9 -11.696  18.958   1
 -11  -1   9  0.0169 17.9097   1
   9   1  -9 3.09930 7.11918   3
  -9  -1   9 -5.0939 12.8763   1
   7   1  -9 100.268  11.690   2
   7   1  -9 105.078  13.587   3
   5   1  -9 92.0483 10.7474   2
   5   1  -9 84.7779 10.3720   3
   3   1  -9 1.92122 4.58858   3
   3   1  -9 -1.1204  4.2069   2
   1   1  -9 -0.4582  4.6376   2
   1   1  -9 -0.4769  4.1588   3
  -1   1  -9 61.0272  8.9124   3
  -1   1  -9 51.2513  9.0653   2
  -3   1  -9 15.1790  7.5802   2
  -5   1  -9 15.6584  8.0209   2
  -7   1  -9 -11.271   6.123   2
  -9   1  -9 -7.0160  8.2877   2
 -11   1  -9 -2.3606  9.3711   2
 -14   0   9 -8.1096 22.5427   1
 -12   0   9 -8.4313 20.0763   1
 -10   0   9 -4.7663 14.0795   1
   8   0  -9 -3.7660  5.7415   3
  -8   0   9 -2.9832 11.6853   1
   6   0  -9 -2.4178  4.8259   3
   6   0  -9 -1.2819  5.5254   2
  -6   0   9 -6.6919  9.7237   1
   4   0  -9 1.01871 4.57003   2
   4   0  -9 2.05741 4.27624   3
  -4   0   9 -0.8704  8.6175   1
   2   0  -9 0.60181 4.38303   2
   2   0  -9 -1.2415  3.5649   3
   0   0  -9 -0.2996  3.7745   3
   0   0  -9 -6.1464  4.7129   2
  -2   0  -9 -4.0230  5.9872   2
  -4   0  -9 -7.7401  5.2107   2
  -6   0  -9 5.17740 7.32577   2
  -8   0  -9 -0.8590  7.6239   2
 -10   0  -9 -10.834   7.855   2
 -12   0  -9 -6.6011  9.3662   2
 -15   1   9 -18.353  22.844   1
 -13   1   9 -14.395  17.115   1
 -11   1   9 -4.3145 16.6470   1
  -9   1   9 -3.5994 13.5130   1
   7  -1  -9 111.167  12.837   3
   5  -1  -9 86.5994 11.1368   2
   5  -1  -9 83.3162 10.0875   3
   3  -1  -9 -0.5224  4.3545   2
   3  -1  -9 -0.2550  3.8658   3
  -3   1   9 -4.6671  8.6645   1
   1  -1  -9 -2.2936  4.6463   2
  -1  -1  -9 56.2038  9.4797   2
  -3  -1  -9 15.0529  7.4065   2
  -5  -1  -9 3.51849 7.20618   2
  -7  -1  -9 13.7125  8.4344   2
  -9  -1  -9 -2.8916  8.1482   2
 -11  -1  -9 -9.2918  8.2868   2
 -14   2   9 -10.917  21.939   1
 -12   2   9 -1.7899 18.8411   1
 -10   2   9 -10.137  14.485   1
  -8   2   9 -1.2881 12.5199   1
   6  -2  -9 4.71954 5.37596   3
   6  -2  -9 2.04813 5.85283   2
  -6   2   9  2.4918 11.5291   1
   4  -2  -9 1.07803 4.98313   2
   4  -2  -9 1.44733 4.49850   3
  -4   2   9 1.18931 9.76606   1
   2  -2  -9 -2.8112  3.8914   2
  -2   2   9 -4.2853  7.3745   1
   0  -2  -9 11.6846  6.2887   2
  -2  -2  -9 10.8821  6.6662   2
  -4  -2  -9 -3.0169  6.2410   2
  -6  -2  -9 2.84410 7.23251   2
  -8  -2  -9 -2.3130  7.4260   2
 -10  -2  -9 -0.8716  8.5516   2
 -15   3   9 11.4190 25.2618   1
 -13   3   9 -7.5014 19.7774   1
 -11   3   9 -2.1896 17.5113   1
  -9   3   9  3.5245 14.3084   1
  -7   3   9 -3.3179 12.5070   1
   5  -3  -9 2.82645 5.79044   2
  -5   3   9  1.8498 10.7684   1
   3  -3  -9 3.27112 5.05178   2
  -3   3   9 2.07922 8.94226   1
   1  -3  -9 7.92369 5.49474   2
  -1   3   9 -3.3513  6.7987   1
  -1  -3  -9 -4.1703  4.9506   2
  -3  -3  -9 -1.3508  5.7867   2
  -5  -3  -9 4.06090 6.72620   2
  -7  -3  -9 10.1010  8.4585   2
  -9  -3  -9 4.79508 7.64972   2
 -11  -3  -9 -2.8599  8.9296   2
 -14   4   9 -1.2230 21.5643   1
 -12   4   9 10.6981 19.3149   1
 -10   4   9 -5.6516 14.9685   1
  -8   4   9 21.1578 16.1792   1
  -6   4   9 14.9642 13.6181   1
   4  -4  -9 26.3911  8.3667   2
  -4   4   9 10.3581 10.7588   1
   2  -4  -9 3.46700 5.16568   2
  -2   4   9 -2.5524  7.7579   1
   0  -4  -9 2.86264 4.95238   2
   0   4   9 -1.6112  6.8026   1
  -2  -4  -9 17.1133  7.2606   2
  -4  -4  -9 68.0888 11.0283   2
  -6  -4  -9 3.80438 7.09360   2
  -8  -4  -9 5.30742 8.30328   2
 -10  -4  -9 -5.7425  7.6706   2
 -13   5   9 -4.1059 18.4861   1
 -11   5   9 -3.2143 16.0618   1
  -9   5   9 -9.2482 14.6922   1
  -7   5   9 -2.4991 14.2686   1
   5  -5  -9 55.1638 11.2194   2
  -5   5   9  7.0857 11.1379   1
   3  -5  -9 24.5792  7.7939   2
  -3   5   9 2.89690 9.43614   1
   1  -5  -9 3.81629 5.28726   2
  -1   5   9 -2.8262  7.3816   1
  -1  -5  -9 2.13204 5.09362   2
   1   5   9 2.75329 7.80374   1
  -3  -5  -9 10.0593  6.9195   2
  -5  -5  -9 19.1988  8.0930   2
  -7  -5  -9 4.36287 7.62893   2
  -9  -5  -9 -0.4688  7.7217   2
 -11  -5  -9 0.84834 8.94742   2
 -14   6   9  4.5401 19.7129   1
 -12   6   9 11.8508 17.8900   1
 -10   6   9  1.4259 16.2836   1
  -8   6   9 10.5943 16.7800   1
  -6   6   9 -7.1380 11.6148   1
   4  -6  -9 13.4450  7.4932   2
  -4   6   9 -3.5695  9.5076   1
   2  -6  -9 -0.5172  5.2232   2
  -2   6   9 -1.6527  8.6872   1
   0  -6  -9 6.78289 5.64051   2
   0   6   9 2.15152 8.36431   1
  -2  -6  -9 -1.2326  5.0730   2
   2   6   9 -4.1510  7.3245   1
  -4  -6  -9 12.3120  6.7457   2
  -6  -6  -9 10.3427  7.9701   2
  -8  -6  -9 8.03428 8.39641   2
 -10  -6  -9 14.9817 10.0860   2
 -13   7   9 -0.9013 18.6936   1
 -11   7   9  1.2848 16.4509   1
  -9   7   9  0.0123 17.4107   1
  -7   7   9 24.9031 16.1914   1
  -5   7   9  3.7486 12.3542   1
   3  -7  -9 8.08660 6.81227   2
  -3   7   9 0.71669 9.64986   1
   1  -7  -9 29.3419  8.3191   2
  -1   7   9 31.9692 12.5250   1
  -1  -7  -9 -0.8493  4.6615   2
   1   7   9 2.13249 8.61024   1
  -3  -7  -9 -0.3420  9.9204   1
  -3  -7  -9 -1.5434  5.3859   2
  -5  -7  -9 -1.2679  5.8231   2
  -7  -7  -9 -0.9647  6.8426   2
  -9  -7  -9 7.57977 8.68837   2
 -11  -7  -9 12.2222  9.7516   2
 -12   8   9  3.7825 18.3724   1
 -10   8   9  2.7201 18.9652   1
  -8   8   9 12.8622 16.6146   1
  -6   8   9  3.4368 13.5178   1
   4  -8  -9 0.63158 6.71480   2
  -4   8   9 -4.9841 10.0946   1
   2  -8  -9 1.44534 6.48648   2
  -2   8   9 -0.0156  9.4277   1
   0  -8  -9 3.14277 5.69696   2
   0   8   9 -0.1337  8.2648   1
  -2  -8  -9 15.1716  7.0925   2
   2   8   9 12.7040 11.3075   1
  -4  -8  -9 8.48772 6.84025   2
  -6  -8  -9 7.70062 7.11001   2
  -8  -8  -9 2.01001 7.82312   2
 -10  -8  -9 12.1743  8.8620   2
 -13   9   9  0.5068 18.3938   1
 -11   9   9  4.7592 19.4942   1
  -9   9   9  4.8059 18.2698   1
  -7   9   9  4.7024 14.7058   1
  -5   9   9 -8.8241 11.1318   1
   3  -9  -9 72.7138 13.5491   2
  -3   9   9 37.2729 15.1157   1
   1  -9  -9 12.8426  7.9580   2
  -1   9   9 12.6926 11.6664   1
  -1  -9  -9 12.3395  7.1268   2
   1   9   9  7.8975 10.9134   1
  -3  -9  -9  7.5746 11.1114   1
  -3  -9  -9 -1.2828  5.7155   2
  -5  -9  -9 -0.1424  5.8396   2
  -7  -9  -9 5.32271 7.14292   2
  -9  -9  -9 13.2402  9.1709   2
 -12  10   9 -0.2204 17.9847   1
 -10  10   9  8.0031 20.8269   1
  -8  10   9 -4.2206 16.2896   1
  -6  10   9 -3.2003 14.0986   1
  -4  10   9  1.1838 12.2089   1
   2 -10  -9 19.9392  8.7926   2
  -2  10   9  8.0204 11.8961   1
   0 -10  -9 27.7770  9.2626   2
   0  10   9 26.5103 13.8852   1
  -2 -10  -9 1.03930 6.10701   2
  -4 -10  -9  4.2808 11.4848   1
  -4 -10  -9 8.97263 7.08051   2
  -6 -10  -9 -3.3823  5.7920   2
  -8 -10  -9 28.3900 10.2510   2
 -11  11   9 -11.243  18.892   1
  -9  11   9 -3.7631 16.7176   1
  -7  11   9 -2.2528 16.6674   1
  -5  11   9  0.2137 13.3822   1
  -3  11   9  2.3838 11.9729   1
   1 -11  -9 -2.8255  7.1149   2
  -1  11   9 -4.0219 10.9309   1
  -1 -11  -9 16.8272  8.7779   2
   1  11   9 27.9255 14.7213   1
  -3 -11  -9 3.00697 6.48109   2
  -3 -11  -9 -2.7464 11.2872   1
  -5 -11  -9  3.7666 11.5969   1
  -5 -11  -9 0.17463 6.56436   2
  -7 -11  -9 8.97866 8.27884   2
  -9 -11  -9 9.42021 8.92647   2
 -10  12   9 -13.548  18.779   1
  -8  12   9  9.3621 18.7542   1
  -6  12   9 -14.161  13.434   1
  -4  12   9  1.2934 13.6924   1
  -2  12   9 -8.3205 10.7461   1
   0 -12  -9 9.93656 8.94098   2
   0  12   9  6.5075 13.1036   1
  -2 -12  -9 -0.9184 11.6480   1
  -2 -12  -9 6.54635 7.82930   2
  -4 -12  -9  0.8273 12.2787   1
  -4 -12  -9 0.04306 7.08856   2
  -6 -12  -9 2.26157 7.37229   2
  -6 -12  -9 -6.2194 10.8920   1
  -8 -12  -9 14.9766  9.8384   2
  -9  13   9 -6.8321 18.1091   1
  -7  13   9 -10.595  15.019   1
  -5  13   9 -0.4648 14.9758   1
  -3  13   9  7.9393 14.8230   1
  -1  13   9 14.0238 13.9997   1
  -1 -13  -9 19.5626  9.9258   2
   1  13   9 16.8344 14.7924   1
  -3 -13  -9  7.5453 13.5750   1
  -3 -13  -9 9.31352 8.40902   2
  -5 -13  -9  4.2619 13.3273   1
  -5 -13  -9 3.96343 7.78551   2
  -7 -13  -9 8.29175 8.24802   2
  -8  14   9 -1.7455 18.6768   1
  -6  14   9 -2.8005 16.7329   1
  -4  14   9 -0.1985 15.2486   1
  -2  14   9 26.9967 17.4473   1
   0  14   9  3.9906 14.4265   1
  -2 -14  -9 6.36687 9.03263   2
  -2 -14  -9  2.7736 13.5740   1
   2  14   9 11.0915 13.3633   1
  -4 -14  -9 -3.7679  7.1758   2
  -4 -14  -9 -2.4909 12.7593   1
  -6 -14  -9 6.58942 8.31210   2
  -6 -14  -9  7.2730 14.8372   1
  -7  15   9  1.6439 18.8129   1
  -5  15   9 -3.2837 15.3385   1
  -3  15   9 -0.9617 15.3251   1
  -1  15   9  1.6156 14.3650   1
   1  15   9 12.6194 16.5651   1
  -3 -15  -9 13.1405 15.8023   1
  -3 -15  -9 2.68383 8.21519   2
  -5 -15  -9 5.61638 9.88838   2
  -5 -15  -9 10.0990 16.1698   1
  -6  16   9 -8.7748 17.0290   1
  -4  16   9 -1.8678 16.4402   1
  -2  16   9 -2.6530 15.3559   1
   0  16   9  2.6101 16.3267   1
   2  16   9 12.6797 16.4293   1
  -4 -16  -9 5.13582 9.40689   2
  -3  17   9  2.1309 18.2257   1
  -1  17   9 -4.3009 17.3488   1
   3  17 -10  1.5005 11.1394   3
   1  17 -10  0.8242 10.0890   3
   6  16 -10 -8.0925 10.5922   3
   4  16 -10  9.7572 11.8890   3
   2  16 -10  6.1344 10.4437   3
   0  16 -10 18.1387 11.2757   3
  -2  16 -10 5.39405 9.49286   3
   7  15 -10 -4.2895 10.2115   3
   5  15 -10  8.1290 11.2637   3
   3  15 -10 -6.7540  8.3018   3
   1  15 -10 -3.9696  8.5333   3
  -1  15 -10 4.59555 9.61072   3
  -3  15 -10 8.97728 9.34709   3
   8  14 -10 -5.8405 10.0466   3
   6  14 -10 1.72241 9.74341   3
   4  14 -10  7.2846 10.5201   3
   2  14 -10 0.04476 8.74219   3
   0  14 -10 4.24241 8.72104   3
  -2  14 -10 12.5564  9.6800   3
  -4  14 -10 5.16213 8.93081   3
   9  13 -10 -3.7471  7.6783   3
   7  13 -10  6.2259 10.5414   3
   5  13 -10 3.43964 9.60795   3
   3  13 -10 3.45113 9.15836   3
   1  13 -10 7.27932 9.37330   3
  -1  13 -10 2.80133 8.01989   3
  -3  13 -10 2.28679 7.85049   3
  -5  13 -10 -1.5283  8.2742   2
  -5  13 -10 -0.0849  8.0541   3
  10  12 -10 -0.6818 10.0320   3
   8  12 -10 -2.5975  8.3707   3
   6  12 -10 15.5168 10.5358   3
   4  12 -10 -0.8622  7.6523   3
   2  12 -10 18.7197 10.3661   3
   0  12 -10 4.21207 8.10834   3
  -2  12 -10 -2.3736  6.6336   3
  -4  12 -10 0.68966 7.17726   2
  -4  12 -10 10.6991  8.8601   3
  -6  12 -10 11.0723  8.6838   2
  -6  12 -10 6.87493 8.76770   3
  11  11 -10 0.42446 9.86890   3
   9  11 -10 2.61797 9.58151   3
   7  11 -10 -3.1040  8.4419   3
   5  11 -10 3.01712 8.88827   3
   3  11 -10 0.88461 7.24512   3
   1  11 -10 -2.4371  7.3451   3
  -1  11 -10 6.06453 7.92249   3
  -3  11 -10 0.69763 6.98725   3
  -3  11 -10 -2.1370  6.8749   2
  -5  11 -10 15.0354  8.5694   2
  -5  11 -10 16.1711  9.4881   3
  -7  11 -10 -2.7615  7.9788   2
  12  10 -10 -3.1553  9.9145   3
  10  10 -10 -6.9864  8.2097   3
   8  10 -10 0.46910 8.45996   3
   6  10 -10 7.27294 8.35231   3
   4  10 -10 1.58525 8.19868   3
   2  10 -10 16.6007  9.0079   3
   0  10 -10 0.53213 7.45582   3
  -2  10 -10 1.97495 6.93728   3
  -2  10 -10 2.84036 6.88103   2
  -4  10 -10 6.60125 7.75112   3
  -4  10 -10 4.77642 7.01205   2
  -6  10 -10 2.48529 7.30760   3
  -6  10 -10 6.14138 8.15098   2
  -8  10 -10 0.48029 9.08273   2
  13   9 -10  1.6677 10.4117   3
  11   9 -10 -5.9105  9.1224   3
   9   9 -10 2.61525 8.83056   3
   7   9 -10 13.4851  9.5660   3
   5   9 -10 -4.7602  7.2811   3
   3   9 -10 30.7797 10.8154   3
   1   9 -10 6.99244 7.95595   3
  -1   9 -10 8.27195 7.52450   2
  -1   9 -10 11.3790  8.1236   3
  -3   9 -10 11.5964  7.9576   3
  -3   9 -10 11.4442  7.5970   2
  -5   9 -10 2.41720 6.74719   3
  -5   9 -10 -2.2662  7.3399   2
  -7   9 -10 -2.4258  8.1898   2
  12   8 -10  4.7049 10.0481   3
  10   8 -10 1.26969 8.82734   3
   8   8 -10 10.7587  9.1712   3
   6   8 -10 0.56507 7.31697   3
   4   8 -10 31.5126 10.5524   3
   2   8 -10 2.72388 7.39681   3
   0   8 -10 12.3901  8.1472   3
   0   8 -10 18.7568  8.0265   2
  -2   8 -10 9.64249 7.12964   2
  -2   8 -10 7.18929 7.10497   3
  -4   8 -10 11.8150  7.8987   3
  -4   8 -10 4.39792 7.82170   2
  -6   8 -10 1.96222 7.93226   2
  -8   8 -10 0.03933 9.25743   2
 -13  -7  10 16.8903 21.1934   1
  11   7 -10 -1.7156  9.2510   3
   9   7 -10 54.8461 12.6572   3
   7   7 -10 -2.0228  6.2619   3
   5   7 -10 1.93882 7.32191   3
   3   7 -10 4.35544 7.40559   3
   1   7 -10 33.0027 10.0274   3
   1   7 -10 29.5759  8.2924   2
  -1   7 -10 7.27586 7.58272   3
  -1   7 -10 8.02004 7.04558   2
  -3   7 -10 2.66638 6.95790   2
  -3   7 -10 4.85511 6.42877   3
  -5   7 -10 2.76361 7.45811   2
  -5   7 -10 3.87121 6.46689   3
  -7   7 -10 18.8824  9.4011   2
  -9   7 -10 4.27427 9.93332   2
 -14  -6  10 -5.7692 15.5835   1
  12   6 -10  8.2125 10.4764   3
 -12  -6  10  7.3245 18.2318   1
  10   6 -10 2.71015 9.31263   3
   8   6 -10 -0.7286  7.2141   3
   6   6 -10 -1.3060  6.7531   3
   4   6 -10 11.5029  8.2292   3
   2   6 -10 0.67111 6.38531   3
   2   6 -10 5.72140 6.09576   2
   0   6 -10 14.0610  7.9939   3
   0   6 -10 16.8512  7.9234   2
  -2   6 -10 26.8202  8.5235   2
  -2   6 -10 22.8705  8.1264   3
  -4   6 -10 1.03655 5.68524   3
  -4   6 -10 -2.3283  6.6177   2
  -6   6 -10 19.0545  9.0765   2
  -8   6 -10 17.8391  9.0893   2
 -13  -5  10  1.7562 19.9518   1
  11   5 -10 18.8604 10.9728   3
 -11  -5  10 10.5674 17.8603   1
   9   5 -10 -3.2274  7.4031   3
   7   5 -10 -0.8268  6.8595   3
   5   5 -10 26.2431  9.0007   3
   3   5 -10 29.2187  9.3237   3
   3   5 -10 38.5161  8.3841   2
   1   5 -10 8.26849 6.91761   2
   1   5 -10 1.20222 5.86279   3
  -1   5 -10 23.1794  8.0295   3
  -1   5 -10 31.7452  8.6786   2
  -3   5 -10 11.0981  6.6724   3
  -3   5 -10 18.8199  8.1431   2
  -5   5 -10 1.50650 5.11974   3
  -5   5 -10 13.3683  8.2518   2
  -7   5 -10 8.44852 8.75654   2
  -9   5 -10 -2.0143  9.1381   2
 -14  -4  10  9.2807 16.9584   1
 -12  -4  10  3.1871 19.8181   1
  10   4 -10 10.4189  9.1867   3
 -10  -4  10 -7.5503 13.2115   1
   8   4 -10 2.62359 7.09735   3
   6   4 -10 22.9164  8.3541   3
   4   4 -10 2.82721 5.55650   2
   4   4 -10 -0.6497  5.8996   3
   2   4 -10 19.5431  7.6940   3
   2   4 -10 13.1923  6.6710   2
   0   4 -10 1.81400 5.77533   3
   0   4 -10 13.9637  7.3458   2
  -2   4 -10 37.9798  8.7867   3
  -2   4 -10 36.6667  9.2502   2
  -4   4 -10 3.94527 7.20918   2
  -4   4 -10 -0.2850  5.3598   3
  -6   4 -10 -4.0989  7.1854   2
  -8   4 -10 -8.2029  7.9489   2
 -10   4 -10  5.7795 10.1993   2
 -13  -3  10  1.1798 17.1444   1
 -11  -3  10  6.9336 16.4231   1
   9   3 -10 4.54029 8.14148   3
  -9  -3  10  3.7225 14.0397   1
   7   3 -10 3.90217 6.82355   3
   5   3 -10 -1.4549  6.0182   3
   3   3 -10 28.9620  8.0599   2
   3   3 -10 32.3870  8.4290   3
   1   3 -10 19.3610  7.2844   2
   1   3 -10 23.8796  7.5145   3
  -1   3 -10 40.1685  8.7908   3
  -1   3 -10 49.8311  9.9145   2
  -3   3 -10 4.52908 6.50839   2
  -5   3 -10 11.1675  8.2685   2
  -7   3 -10 3.65367 7.57016   2
  -9   3 -10 10.6407  9.9411   2
 -14  -2  10  0.8243 19.7873   1
 -12  -2  10  4.4701 16.8905   1
  10   2 -10 2.70130 8.28240   3
 -10  -2  10  1.3814 15.5773   1
   8   2 -10 -3.3800  7.3340   3
  -8  -2  10  6.2058 13.9670   1
   6   2 -10 4.27250 6.30035   3
   4   2 -10 23.3245  7.3837   3
   4   2 -10 26.1881  7.4554   2
   2   2 -10 11.4252  6.2907   3
   2   2 -10 20.4024  7.4412   2
   0   2 -10 36.4398  8.5784   2
   0   2 -10 33.7285  8.0940   3
  -2   2 -10 11.5688  7.7889   2
  -4   2 -10 22.7959  8.8022   2
  -6   2 -10 9.04457 8.46174   2
  -8   2 -10 5.66278 9.00485   2
 -10   2 -10 14.4512  9.6422   2
 -13  -1  10 -4.1819 18.3164   1
 -11  -1  10  1.6139 17.0561   1
   9   1 -10 -0.5279  7.0309   3
  -9  -1  10  1.0452 13.7907   1
   7   1 -10 21.3709  8.3411   3
  -7  -1  10 -4.2085 10.8625   1
   5   1 -10 14.3100  7.1584   2
   5   1 -10 12.3328  6.5934   3
   3   1 -10 0.38386 5.15296   2
   3   1 -10 -0.0343  5.3250   3
   1   1 -10 34.8102  8.3647   2
  -1   1 -10 14.2125  7.4054   2
  -3   1 -10 58.1501 10.9239   2
  -5   1 -10 14.2602  8.6620   2
  -7   1 -10 -0.9022  7.9628   2
  -9   1 -10 -3.2028  9.0464   2
 -14   0  10  5.2659 22.7423   1
 -12   0  10 10.1244 19.6596   1
 -10   0  10  5.3634 15.3861   1
   8   0 -10 68.1426 11.7297   3
  -8   0  10 -3.6517 11.7184   1
   6   0 -10 12.7175  6.7426   3
   6   0 -10 12.4921  7.1443   2
  -6   0  10  1.5649 11.2652   1
   4   0 -10 5.43549 6.02078   2
   4   0 -10 1.81605 5.39430   3
   2   0 -10 22.4526  7.4820   2
   0   0 -10 1.06917 6.20713   2
  -2   0 -10 56.3373 10.4811   2
  -4   0 -10 39.6149  9.9473   2
  -6   0 -10 6.56462 8.26474   2
  -8   0 -10 4.95733 8.91314   2
 -10   0 -10 10.3510 10.3527   2
 -13   1  10 -18.944  19.843   1
 -11   1  10 -0.2096 16.5877   1
  -9   1  10  0.4870 12.9619   1
   7  -1 -10 25.4923  8.1643   3
  -7   1  10 -6.8562 10.6301   1
   5  -1 -10 19.7100  7.0115   3
   5  -1 -10 21.3207  7.9099   2
  -5   1  10  6.7240 10.9582   1
   3  -1 -10 4.83102 5.88027   2
   1  -1 -10 18.9931  7.4999   2
  -1  -1 -10 4.88858 6.71970   2
  -3  -1 -10 45.7904  9.4965   2
  -5  -1 -10 25.5560  9.5671   2
  -7  -1 -10 4.75951 8.55490   2
  -9  -1 -10 4.58359 9.42203   2
 -14   2  10  6.0994 24.8582   1
 -12   2  10  9.7335 19.3087   1
 -10   2  10  5.8550 15.6102   1
  -8   2  10 -11.091  11.349   1
   6  -2 -10 6.58161 7.54075   2
  -6   2  10  0.8653 10.8362   1
   4  -2 -10 26.5666  8.3431   2
  -4   2  10  1.4973 10.9791   1
   2  -2 -10 14.6934  6.7355   2
   0  -2 -10 33.1235  8.7124   2
  -2  -2 -10 12.7475  7.7412   2
  -4  -2 -10 32.5810  9.5662   2
  -6  -2 -10 4.77151 7.98848   2
  -8  -2 -10 0.94263 8.51346   2
 -10  -2 -10 14.6119 10.2095   2
 -13   3  10 -6.1116 19.8232   1
 -11   3  10  5.4929 17.5099   1
  -9   3  10  2.6850 14.1090   1
  -7   3  10 -2.5277 11.3081   1
   5  -3 -10 -6.2199  5.5544   2
  -5   3  10  2.7491 11.4443   1
   3  -3 -10 27.9541  8.3735   2
  -3   3  10  7.6975 10.3450   1
   1  -3 -10 14.6100  7.1538   2
  -1  -3 -10 56.2626  9.8606   2
  -3  -3 -10 5.06384 6.88244   2
  -5  -3 -10 4.17406 6.94671   2
  -7  -3 -10 15.5030  9.0073   2
  -9  -3 -10 22.3292 10.5670   2
 -14   4  10 -5.2349 23.1882   1
 -12   4  10  6.9549 19.4287   1
 -10   4  10 -5.3498 15.0766   1
  -8   4  10 -2.6684 13.3295   1
   6  -4 -10 22.5115  9.2620   2
  -6   4  10  2.6825 13.1766   1
   4  -4 -10 6.29314 6.88786   2
  -4   4  10  3.6543 10.9130   1
   2  -4 -10 14.0255  7.0291   2
  -2   4  10  6.3616 10.0875   1
   0  -4 -10 21.2351  7.1893   2
  -2  -4 -10 32.1412  9.1328   2
  -4  -4 -10 3.38696 6.89781   2
  -6  -4 -10 5.76735 7.81351   2
  -8  -4 -10 7.32345 8.47890   2
 -10  -4 -10 1.15183 8.72720   2
 -13   5  10 -2.6870 19.9433   1
 -11   5  10 -7.1713 16.0346   1
  -9   5  10 -1.5907 14.6428   1
  -7   5  10  4.3485 14.6963   1
   5  -5 -10 28.8887  9.8024   2
  -5   5  10 -0.5427 11.6673   1
   3  -5 -10 32.7743  9.2419   2
  -3   5  10  8.2909 10.8358   1
   1  -5 -10 1.57491 5.81999   2
  -1   5  10 0.24031 8.72109   1
  -1  -5 -10 29.9830  8.4058   2
  -3  -5 -10 18.8404  7.8110   2
  -5  -5 -10 -1.5100  6.6174   2
  -7  -5 -10 13.2801  9.0015   2
  -9  -5 -10 10.4210  9.4996   2
 -12   6  10 -13.186  17.883   1
 -10   6  10 -5.7701 16.9538   1
  -8   6  10 -0.7821 16.2044   1
  -6   6  10 -0.9112 12.1467   1
   4  -6 -10 22.3015  9.3151   2
  -4   6  10 -1.3750 11.2787   1
   2  -6 -10 6.69485 6.99109   2
  -2   6  10 -4.7161  9.0584   1
   0  -6 -10 16.8669  7.4532   2
   0   6  10 18.2243 11.0367   1
  -2  -6 -10 24.4407  7.9708   2
  -4  -6 -10 0.86208 6.01638   2
  -6  -6 -10 15.1838  8.7357   2
  -8  -6 -10 40.0351 11.3854   2
 -13   7  10 -10.826  19.095   1
 -11   7  10  3.6159 18.1470   1
  -9   7  10  2.6633 18.7106   1
  -7   7  10 -3.2003 13.6810   1
  -5   7  10 -3.6676 12.1112   1
   3  -7 -10 3.83595 7.50080   2
  -3   7  10 -2.1676 10.9250   1
   1  -7 -10 35.2383  9.6027   2
  -1   7  10 11.6318 11.3260   1
  -1  -7 -10 9.75610 7.11171   2
   1   7  10 2.52630 9.30962   1
  -3  -7 -10 4.04783 6.75190   2
  -5  -7 -10 7.03499 7.45330   2
  -7  -7 -10 11.6733  8.4475   2
  -9  -7 -10 8.09109 8.87958   2
 -12   8  10  1.5830 20.2149   1
 -10   8  10 -5.7539 19.3550   1
  -8   8  10  4.4143 16.9275   1
  -6   8  10 -3.9427 13.0323   1
   4  -8 -10 26.7158 10.5824   2
  -4   8  10 -1.5205 11.7684   1
   2  -8 -10 -2.6348  6.3820   2
  -2   8  10 -2.9481 10.4935   1
   0  -8 -10 20.4047  8.2496   2
   0   8  10 14.1023 11.3807   1
  -2  -8 -10 10.8673  7.4982   2
   2   8  10 1.92225 9.38333   1
  -4  -8 -10 21.0586  8.4603   2
  -6  -8 -10 13.9492  8.1632   2
  -8  -8 -10 18.0483  9.3784   2
 -11   9  10  7.3625 20.6014   1
  -9   9  10 -9.2235 18.4136   1
  -7   9  10  2.4522 15.9682   1
  -5   9  10  2.2097 13.2304   1
   3  -9 -10 28.1390 10.6818   2
  -3   9  10 19.7772 13.3996   1
   1  -9 -10 0.96471 7.30607   2
  -1   9  10 -3.7245  9.6664   1
  -1  -9 -10 6.12641 7.03511   2
   1   9  10  9.3995 11.6338   1
  -3  -9 -10 14.5389  8.1718   2
   3   9  10 15.3449 11.8056   1
  -5  -9 -10 13.4608  8.2990   2
  -7  -9 -10 19.4349  9.5192   2
 -10  10  10 -12.146  20.568   1
  -8  10  10 -9.2748 16.8923   1
  -6  10  10  0.5801 15.0062   1
  -4  10  10 -7.8897 11.8396   1
   2 -10 -10 34.8106 11.2718   2
  -2  10  10 24.2580 15.0488   1
   0 -10 -10 1.53790 7.16670   2
   0  10  10  4.4173 10.9313   1
  -2 -10 -10 10.6916  7.9602   2
   2  10  10  6.2492 10.8683   1
  -4 -10 -10 20.5123  9.0567   2
  -6 -10 -10 5.66821 8.18849   2
  -8 -10 -10 2.60285 7.59879   2
 -11  11  10 -5.9504 21.0104   1
  -9  11  10  0.0546 19.3812   1
  -7  11  10 -1.4984 17.1646   1
  -5  11  10 -3.6860 14.0603   1
  -3  11  10  3.9807 13.0411   1
   1 -11 -10 -1.2754  7.6965   2
  -1  11  10  0.0165 11.3798   1
  -1 -11 -10 3.79723 7.99471   2
   1  11  10  1.1456 11.3306   1
  -3 -11 -10 5.60019 7.35287   2
   3  11  10  7.8174 11.7607   1
  -5 -11 -10 32.9976 10.8062   2
  -7 -11 -10 10.6508  9.4258   2
 -10  12  10 -15.599  18.040   1
  -8  12  10 -12.985  16.807   1
  -6  12  10 -9.3788 15.8298   1
  -4  12  10  1.8548 14.5428   1
  -2  12  10  4.3535 13.0822   1
   0 -12 -10 0.87255 8.29655   2
   0  12  10  5.2873 12.8329   1
  -2 -12 -10 5.50730 7.82345   2
   2  12  10  4.7034 11.9036   1
  -4 -12 -10 1.03840 7.67717   2
  -6 -12 -10 23.0201 10.4606   2
  -9  13  10 -17.661  17.517   1
  -7  13  10  8.5737 20.4397   1
  -5  13  10 -5.3203 16.5351   1
  -3  13  10  2.6944 14.4896   1
   1 -13 -10 16.9934 11.2483   2
  -1  13  10 18.7157 15.7992   1
  -1 -13 -10 2.82305 8.89298   2
   1  13  10  7.4932 13.4191   1
  -3 -13 -10 6.97300 9.10758   2
   3  13  10 11.5006 13.0555   1
  -5 -13 -10 16.3212 10.0884   2
  -6  14  10 -1.8211 17.9291   1
  -4  14  10 -8.7049 15.2159   1
  -2  14  10  2.6294 14.2715   1
   0 -14 -10 5.27244 9.40797   2
   0  14  10  6.3944 14.2547   1
  -2 -14 -10 16.0467 10.9305   2
   2  14  10 21.3033 15.7229   1
  -4 -14 -10  8.8529 10.2237   2
  -4 -14 -10  5.4631 14.8973   1
  -5  15  10 -2.9598 18.2699   1
  -3  15  10 -2.5578 15.4166   1
  -1  15  10 -6.4308 13.9730   1
  -1 -15 -10 10.9833 10.0561   2
   1  15  10  7.0465 15.0294   1
  -3 -15 -10 6.05846 9.99306   2
   3  15  10 11.7214 14.6119   1
   5  15 -11  2.0496 10.7216   3
   3  15 -11 -4.1409  9.5982   3
   1  15 -11  5.8636 10.1308   3
   6  14 -11 -6.6740  9.4391   3
   4  14 -11  0.3611 10.1142   3
   2  14 -11 0.48043 9.63647   3
   0  14 -11 -1.1520  8.9166   3
  -2  14 -11 6.28878 9.62363   3
   7  13 -11 -2.5704  9.6238   3
   5  13 -11 -4.0306  9.5205   3
   3  13 -11 -3.1319  9.0813   3
   1  13 -11 -3.7751  8.0383   3
  -1  13 -11 4.99850 8.97040   3
  -3  13 -11 -1.2539  7.8560   3
   8  12 -11 1.13039 9.77071   3
   6  12 -11 -2.5283  9.1880   3
   4  12 -11 -1.3000  9.2095   3
   2  12 -11 -4.2318  7.9329   3
   0  12 -11 -0.8864  7.9648   3
  -2  12 -11 4.35356 8.57570   3
  -4  12 -11 7.11435 8.78289   3
  -4  12 -11 -2.7266  8.3069   2
   9  11 -11 1.13855 9.95308   3
   7  11 -11 -4.6023  8.7219   3
   5  11 -11 1.10780 9.15290   3
   3  11 -11 5.91389 9.29721   3
   1  11 -11 0.69921 8.13594   3
  -1  11 -11 0.51171 7.75957   3
  -3  11 -11 -4.7700  7.1937   2
  -3  11 -11 1.43146 7.52706   3
  -5  11 -11 1.65376 7.37373   3
  -5  11 -11 1.27971 8.36640   2
  10  10 -11 -4.4074  9.3785   3
   8  10 -11 4.07333 9.51622   3
   6  10 -11 8.14954 8.84000   3
   4  10 -11 1.37067 8.59579   3
   2  10 -11 2.41589 7.86921   3
   0  10 -11 3.65135 7.83268   3
  -2  10 -11 -3.9263  6.7386   2
  -2  10 -11 -1.8474  7.7048   3
  -4  10 -11 4.26443 7.48946   3
  -4  10 -11 -10.221   6.994   2
  -6  10 -11 3.31661 8.99230   2
  -6  10 -11 4.54987 8.28084   3
  11   9 -11 -0.6350 10.2901   3
   9   9 -11 -3.2212  9.0081   3
   7   9 -11 3.32035 8.10305   3
   5   9 -11 7.01791 8.56459   3
   3   9 -11 0.80418 7.86547   3
   1   9 -11 -0.3561  7.7295   3
  -1   9 -11 1.47427 7.38389   3
  -1   9 -11 6.98849 7.67802   2
  -3   9 -11 0.19061 7.82809   2
  -3   9 -11 -2.8786  6.7714   3
  -5   9 -11 -7.8904  7.6044   2
  -5   9 -11 1.94945 6.75797   3
  -7   9 -11 -5.6926  8.7342   2
  12   8 -11  3.7521 10.6630   3
  10   8 -11 -1.7888  9.0129   3
   8   8 -11 11.0568  9.5484   3
   6   8 -11 -1.3300  8.0122   3
   4   8 -11 2.26481 7.81796   3
   2   8 -11 1.88935 7.46356   3
   0   8 -11 -1.1307  7.2706   2
   0   8 -11 -1.1658  6.8668   3
  -2   8 -11 -0.4950  6.7906   3
  -2   8 -11 7.36302 7.56617   2
  -4   8 -11 -2.2044  7.5622   2
  -4   8 -11 -2.3649  5.8112   3
  -6   8 -11 0.48638 6.78947   3
  -6   8 -11 -2.0104  8.4653   2
  11   7 -11 -4.7778  9.7065   3
   9   7 -11 -3.8888  8.0251   3
   7   7 -11 0.88100 7.61416   3
   5   7 -11 -4.9758  7.2737   3
   3   7 -11 -1.5357  6.9811   3
   1   7 -11 0.42866 7.23613   3
  -1   7 -11 -5.6184  6.5165   2
  -1   7 -11 0.58701 6.62610   3
  -3   7 -11 6.70072 7.93213   2
  -3   7 -11 2.44197 6.37383   3
  -5   7 -11 -6.6281  7.4529   2
  -5   7 -11 -1.8327  6.3014   3
  -7   7 -11 -11.173   8.138   2
  12   6 -11 0.85730 9.99564   3
  10   6 -11 5.03864 9.63922   3
   8   6 -11 1.72840 7.97893   3
   6   6 -11 -2.5470  6.9552   3
   4   6 -11 0.79996 6.93435   3
   2   6 -11 -2.9064  6.4212   3
   0   6 -11 -1.2861  6.9834   2
   0   6 -11 2.17520 6.94345   3
  -2   6 -11 -4.0593  5.5436   3
  -2   6 -11 4.51777 7.40296   2
  -4   6 -11 0.11216 7.60412   2
  -4   6 -11 0.38023 5.86224   3
  -6   6 -11 1.66680 8.72455   2
  -8   6 -11 2.59789 9.77954   2
  11   5 -11 25.9611 12.0229   3
   9   5 -11 -6.3826  7.2767   3
   7   5 -11 0.37887 7.12265   3
   5   5 -11 5.42909 7.44995   3
   3   5 -11 3.18519 6.75876   3
   1   5 -11 0.02181 6.56265   2
   1   5 -11 -2.7842  5.5211   3
  -1   5 -11 -0.6757  6.1427   3
  -1   5 -11 5.47197 7.40263   2
  -3   5 -11 6.35294 7.54274   2
  -5   5 -11 -7.8959  7.5078   2
  -7   5 -11 2.28770 9.17975   2
  10   4 -11 11.5482  9.6059   3
   8   4 -11 0.44881 7.50847   3
   6   4 -11 0.28730 6.18309   3
   4   4 -11 -2.5014  5.7738   3
   2   4 -11 10.9151  6.7255   2
   2   4 -11 4.34930 6.93953   3
   0   4 -11 6.65594 6.72543   3
   0   4 -11 10.0980  7.6182   2
  -2   4 -11 -1.1874  6.9819   2
  -4   4 -11 4.34427 8.01067   2
  -6   4 -11 -2.4574  8.1648   2
  -8   4 -11 -6.8295  9.5500   2
 -13  -3  11  0.2784 17.3227   1
  11   3 -11 2.81932 9.23874   3
 -11  -3  11 -5.5627 14.6090   1
   9   3 -11 -1.0052  8.2293   3
   7   3 -11 2.20864 6.80700   3
   5   3 -11 -0.6789  5.8141   3
   3   3 -11 10.7356  6.3997   2
   3   3 -11 1.10104 6.45008   3
   1   3 -11 2.35724 6.32631   2
   1   3 -11 -0.5635  5.7604   3
  -1   3 -11 1.90401 6.59084   2
  -3   3 -11 -4.7575  7.0471   2
  -5   3 -11 3.24333 8.54949   2
  -7   3 -11 -3.6848  8.3704   2
  -9   3 -11 -1.1589  9.0776   2
 -12  -2  11  3.5787 16.5956   1
  10   2 -11 4.39733 8.30947   3
 -10  -2  11  1.1712 15.1640   1
   8   2 -11 1.51902 7.46642   3
   6   2 -11 3.53689 7.08504   3
   4   2 -11 -5.1799  5.1095   3
   4   2 -11 2.65323 5.52728   2
   2   2 -11 19.7740  7.6474   2
   0   2 -11 10.5336  7.4293   2
  -2   2 -11 1.68395 7.27873   2
  -4   2 -11 10.3420  7.6030   2
  -6   2 -11 6.33232 8.94715   2
  -8   2 -11 0.54439 9.48737   2
 -13  -1  11 -11.155  17.162   1
 -11  -1  11 -6.0130 15.6219   1
   9   1 -11 5.12638 7.88935   3
  -9  -1  11  2.2866 14.2682   1
   7   1 -11 -4.0669  6.7135   3
   5   1 -11 2.85196 5.84922   3
   5   1 -11 1.92576 5.96533   2
   3   1 -11 5.43153 5.94655   2
   1   1 -11 15.4091  7.5800   2
  -1   1 -11 11.9597  7.2570   2
  -3   1 -11 5.10519 7.54705   2
  -5   1 -11 -8.8594  7.0338   2
  -7   1 -11 -5.1479  8.3945   2
  -9   1 -11 -6.2844  9.1444   2
 -12   0  11 -0.9146 17.6069   1
 -10   0  11  1.2725 14.9917   1
   8   0 -11 -2.5112  6.5864   3
  -8   0  11  5.5976 12.4169   1
   6   0 -11 0.58044 6.36988   2
   4   0 -11 -0.2730  5.6884   2
   2   0 -11 0.09076 5.86368   2
   0   0 -11 0.89569 6.40692   2
  -2   0 -11 0.74734 6.74370   2
  -4   0 -11 1.86086 6.92840   2
  -6   0 -11 4.38110 8.85405   2
  -8   0 -11 -4.5899  8.6973   2
 -13   1  11 -19.182  17.644   1
 -11   1  11  5.6895 15.6532   1
  -9   1  11 -2.9014 12.6626   1
   7  -1 -11 -1.6295  6.9816   2
  -7   1  11  0.8121 11.1061   1
   5  -1 -11 0.67682 6.52509   2
   3  -1 -11 1.30734 6.03434   2
   1  -1 -11 20.1403  8.1222   2
  -1  -1 -11 17.0398  8.0751   2
  -3  -1 -11 -3.0493  6.0014   2
  -5  -1 -11 0.13393 7.40260   2
  -7  -1 -11 4.72539 9.05636   2
  -9  -1 -11 -0.5959  9.5456   2
 -12   2  11 -3.9805 15.5681   1
 -10   2  11  0.0414 13.8214   1
  -8   2  11 -3.0377 11.3671   1
   6  -2 -11 9.93331 7.82280   2
   4  -2 -11 3.82311 6.35557   2
   2  -2 -11 23.8502  8.1904   2
   0  -2 -11 -0.0760  6.1537   2
  -2  -2 -11 5.71008 7.29457   2
  -4  -2 -11 1.60585 7.62170   2
  -6  -2 -11 5.36980 8.39947   2
  -8  -2 -11 7.33418 9.08717   2
 -13   3  11 -6.9440 18.5620   1
 -11   3  11  0.5267 14.9045   1
  -9   3  11 -3.7005 12.9294   1
  -7   3  11 -2.3640 10.7808   1
   5  -3 -11 2.63454 6.93094   2
  -5   3  11 -3.6781 11.6324   1
   3  -3 -11 3.42431 6.43307   2
   1  -3 -11 3.88074 6.18487   2
  -1  -3 -11 -1.7681  6.3211   2
  -3  -3 -11 6.94361 6.88852   2
  -5  -3 -11 4.90004 7.12641   2
  -7  -3 -11 6.09626 7.98646   2
  -9  -3 -11 0.00936 8.66848   2
 -12   4  11 -5.7833 17.4981   1
 -10   4  11 -0.3510 14.5772   1
  -8   4  11  1.5250 12.6954   1
   6  -4 -11 -2.7312  7.1230   2
  -6   4  11  3.8918 12.8255   1
   4  -4 -11 -1.3731  5.5932   2
  -4   4  11 -4.9570 10.3401   1
   2  -4 -11 2.14954 6.26395   2
   0  -4 -11 1.69175 6.20873   2
  -2  -4 -11 2.70595 6.22426   2
  -4  -4 -11 9.00999 7.88900   2
  -6  -4 -11 2.49682 8.32500   2
  -8  -4 -11 -5.5126  7.8026   2
 -11   5  11 -11.965  14.626   1
  -9   5  11 -3.4718 12.7386   1
  -7   5  11  3.1375 13.4344   1
   5  -5 -11 3.13547 7.85474   2
  -5   5  11 -12.214   9.596   1
   3  -5 -11 0.52292 6.55187   2
   1  -5 -11 0.27097 5.53351   2
  -1  -5 -11 6.19111 6.71324   2
  -3  -5 -11 10.5607  7.5441   2
  -5  -5 -11 4.96825 7.82861   2
  -7  -5 -11 10.1093  9.0419   2
 -12   6  11  1.7756 18.5895   1
 -10   6  11 -6.4305 15.7036   1
  -8   6  11 -6.3519 13.5673   1
  -6   6  11 -7.5114 11.4686   1
   4  -6 -11 4.97888 7.95957   2
  -4   6  11 -5.9400 10.8079   1
   2  -6 -11 2.45075 6.66908   2
   0  -6 -11 -0.9795  5.9984   2
  -2  -6 -11 -1.9013  6.1582   2
  -4  -6 -11 7.03826 7.49008   2
  -6  -6 -11 2.96205 8.13047   2
  -8  -6 -11 -7.1150  7.2543   2
 -11   7  11  3.4308 18.1028   1
  -9   7  11 -10.579  15.528   1
  -7   7  11 -1.7389 13.6464   1
   5  -7 -11 -3.8143  7.1052   2
  -5   7  11 -4.3262 11.5264   1
   3  -7 -11 1.78699 7.16849   2
  -3   7  11 -3.8973 10.9053   1
   1  -7 -11 3.68228 6.79663   2
  -1  -7 -11 0.20458 6.08152   2
  -3  -7 -11 6.42793 6.54460   2
  -5  -7 -11 5.49974 7.74986   2
  -7  -7 -11 1.74821 8.19223   2
 -10   8  11 -6.8729 18.3990   1
  -8   8  11 -5.1239 15.0289   1
  -6   8  11 -5.4713 12.4309   1
   4  -8 -11 3.58180 8.27715   2
  -4   8  11 -11.548  11.209   1
   2  -8 -11 -3.0889  7.1592   2
  -2   8  11 -0.1086 10.9300   1
   0  -8 -11 -1.1436  6.5831   2
  -2  -8 -11 5.07275 6.54882   2
  -4  -8 -11 3.16865 6.96816   2
  -6  -8 -11 6.19450 8.29593   2
  -9   9  11 -11.959  17.814   1
  -7   9  11 -1.9111 14.1887   1
  -5   9  11 -3.9476 13.4846   1
   3  -9 -11 5.65622 8.97379   2
  -3   9  11 -8.5880 10.6952   1
   1  -9 -11 4.57446 8.00603   2
  -1   9  11 -4.5763 10.9889   1
  -1  -9 -11 9.08726 7.72377   2
  -3  -9 -11 0.49814 7.02500   2
  -5  -9 -11 9.96561 8.33125   2
  -7  -9 -11 8.19954 8.72110   2
 -10  10  11 -3.9242 20.7606   1
  -8  10  11 -14.326  15.997   1
  -6  10  11 -5.7567 13.7473   1
  -4  10  11 -1.1573 13.5488   1
   2 -10 -11 -0.9208  7.9525   2
  -2  10  11 -7.4232 11.6679   1
   0 -10 -11 0.82810 6.80781   2
   0  10  11 -4.5718 10.9239   1
  -2 -10 -11 2.90655 7.31028   2
  -4 -10 -11 5.93533 7.65055   2
  -6 -10 -11 7.31207 8.67838   2
  -9  11  11  3.2531 20.5739   1
  -7  11  11 -19.598  15.260   1
  -5  11  11 -3.4885 14.0590   1
  -3  11  11 -9.3363 12.0660   1
   1 -11 -11 1.27290 8.39334   2
  -1  11  11 -2.2545 12.2770   1
  -1 -11 -11 0.54114 7.13505   2
   1  11  11  1.0012 12.0723   1
  -3 -11 -11 1.22220 7.45809   2
  -5 -11 -11 1.96288 8.35729   2
  -8  12  11 -9.3570 17.3054   1
  -6  12  11 -3.7468 17.8201   1
  -4  12  11 -8.9922 14.0941   1
   2 -12 -11 2.42540 9.02321   2
  -2  12  11 -2.2626 13.7280   1
   0 -12 -11 -1.6478  8.7177   2
   0  12  11  1.9285 12.8692   1
  -2 -12 -11 -4.0609  7.6341   2
   2  12  11  5.3385 12.2668   1
  -4 -12 -11 2.17543 8.00237   2
  -7  13  11 -9.2678 17.7282   1
  -5  13  11 -3.9879 16.0445   1
  -3  13  11  2.2307 15.1195   1
   1 -13 -11 2.05843 9.46252   2
  -1  13  11  4.0102 13.9528   1
  -1 -13 -11 2.54006 9.87247   2
   1  13  11  0.1929 13.1901   1
  -3 -13 -11 3.26875 8.76913   2
   3  13  11  0.3008 12.0846   1
  -4  14  11 -20.223  15.424   1
  -2  14  11 -1.0983 15.0695   1
   0 -14 -11 3.49043 9.68752   2
   0  14  11  1.4953 14.3053   1
  -2 -14 -11  0.9515 10.0441   2
   2  14  11  5.0069 14.2645   1
   3  13 -12  4.6232 10.4979   3
   1  13 -12 -8.5869  8.4057   3
   6  12 -12  1.6157 10.4999   3
   4  12 -12  1.7032 10.4257   3
   2  12 -12 3.32971 9.75290   3
   0  12 -12 -5.4510  8.0434   3
   7  11 -12  7.0523 10.0508   3
   5  11 -12  2.9619 10.1365   3
   3  11 -12  7.6830 10.2719   3
   1  11 -12 3.43984 9.08411   3
  -1  11 -12 -0.4136  8.5095   3
   8  10 -12 -6.5838  8.7523   3
   6  10 -12 0.80458 9.63319   3
   4  10 -12 4.59900 9.79484   3
   2  10 -12 9.02474 9.56097   3
   0  10 -12 -3.0300  7.8387   3
  -2  10 -12 0.81001 7.68396   3
   9   9 -12 -14.673   8.211   3
   7   9 -12 -2.3684  8.4406   3
   5   9 -12 0.79238 9.01162   3
   3   9 -12 12.3156 10.4161   3
   1   9 -12 -5.0795  7.1108   3
  -1   9 -12 0.31763 7.53711   3
  -3   9 -12 11.8421  8.7274   2
  -3   9 -12 4.61151 8.19520   3
  10   8 -12 0.85612 9.80603   3
   8   8 -12 0.40142 9.83750   3
   6   8 -12 20.5651 10.5160   3
   4   8 -12 -1.8074  8.2489   3
   2   8 -12 0.16648 8.01701   3
   0   8 -12 3.25269 7.93871   3
  -2   8 -12 -0.1335  7.6508   2
  -2   8 -12 -3.9657  6.8114   3
  -4   8 -12 -2.5801  8.0044   2
  11   7 -12 -3.8410  9.9879   3
   9   7 -12  9.6248 10.1018   3
   7   7 -12 -0.5085  8.1551   3
   5   7 -12 7.43104 9.55916   3
   3   7 -12 -1.5871  7.6649   3
   1   7 -12 0.23228 7.48855   3
  -1   7 -12 7.51980 7.96003   3
  -1   7 -12 5.30473 7.91472   2
  -3   7 -12 -0.9294  7.8187   2
  -5   7 -12 -3.4617  8.2933   2
  10   6 -12 14.1216 11.1281   3
   8   6 -12 -6.7331  7.8450   3
   6   6 -12 -6.2516  7.0118   3
   4   6 -12 3.78768 8.81969   3
   2   6 -12 5.06102 7.61384   3
   0   6 -12 -3.3906  6.7104   3
   0   6 -12 3.12502 7.11662   2
  -2   6 -12 8.33979 8.24402   2
  -4   6 -12 -3.3732  7.7663   2
  -6   6 -12 0.73920 9.09213   2
  11   5 -12 17.3930 11.5000   3
   9   5 -12 3.03790 8.88876   3
   7   5 -12 0.34707 7.79246   3
   5   5 -12 -0.6553  7.6609   3
   3   5 -12 2.17765 7.52752   3
   1   5 -12 15.2080  8.4176   2
   1   5 -12 6.98760 7.78342   3
  -1   5 -12 -1.0882  6.9671   2
  -3   5 -12 6.53686 8.30467   2
  -5   5 -12 -3.6675  8.1248   2
  10   4 -12 -1.6957  9.2220   3
   8   4 -12 6.57647 9.16677   3
   6   4 -12 -1.3874  6.9360   3
   4   4 -12 1.04465 6.58702   3
   2   4 -12 19.7936  8.4682   2
   0   4 -12 2.32829 7.58409   2
  -2   4 -12 9.45733 8.61557   2
  -4   4 -12 0.78881 8.15033   2
  -6   4 -12 -3.2748  8.9563   2
  11   3 -12  9.6747 10.4004   3
   9   3 -12 5.19838 8.73760   3
   7   3 -12 0.46940 6.93236   3
   5   3 -12 0.46032 7.21721   3
   3   3 -12 5.61330 6.75102   2
   1   3 -12 7.69448 7.28458   2
  -1   3 -12 8.76997 8.40691   2
  -3   3 -12 5.21125 7.97931   2
  -5   3 -12 11.2958  9.0264   2
  -7   3 -12 2.66653 9.48598   2
  10   2 -12 4.58176 9.12208   3
   8   2 -12 -6.2063  6.8531   3
   4   2 -12 5.80890 6.59441   2
   2   2 -12 9.50489 7.24573   2
   0   2 -12 38.5673  9.9387   2
  -2   2 -12 -1.3761  7.3199   2
  -4   2 -12 -1.3013  7.7576   2
  -6   2 -12 11.3078 10.0200   2
   9   1 -12 2.62118 8.88853   3
   5   1 -12 5.47036 7.07204   2
   3   1 -12 6.97847 6.98368   2
   1   1 -12 4.30248 6.80312   2
  -1   1 -12 -1.3277  7.0430   2
  -3   1 -12 3.92570 8.03468   2
  -5   1 -12 3.24253 8.57728   2
  -7   1 -12 -0.2022  9.2760   2
 -12   0  12 -17.050  16.022   1
   4   0 -12 8.48879 7.77060   2
   2   0 -12 5.49870 6.77792   2
   0   0 -12 26.0201  9.0205   2
  -2   0 -12 11.5603  8.6493   2
  -4   0 -12 8.04698 8.79946   2
  -6   0 -12 1.74068 8.54313   2
 -11   1  12  8.3595 16.3028   1
   5  -1 -12 8.89625 8.03436   2
   3  -1 -12 0.20233 6.45087   2
   1  -1 -12 7.16105 7.01283   2
  -1  -1 -12 1.17057 6.82010   2
  -3  -1 -12 8.00705 8.08164   2
  -5  -1 -12 13.7090  9.4646   2
  -7  -1 -12 9.31826 9.59072   2
 -12   2  12  3.4185 17.1662   1
 -10   2  12  0.9932 14.1954   1
   6  -2 -12 10.1285  8.4581   2
   4  -2 -12 5.55353 7.35192   2
   2  -2 -12 5.49203 6.84646   2
   0  -2 -12 28.1330  8.8519   2
  -2  -2 -12 5.81929 7.47431   2
  -4  -2 -12 5.81561 8.30631   2
  -6  -2 -12 4.09769 8.48991   2
 -11   3  12  7.7250 15.8251   1
  -9   3  12  2.0311 13.9156   1
   5  -3 -12 8.61734 8.33103   2
   3  -3 -12 4.25829 6.90058   2
   1  -3 -12 -2.7879  6.3110   2
  -1  -3 -12 14.6602  8.3224   2
  -3  -3 -12 11.3901  8.5153   2
  -5  -3 -12 8.54754 8.81489   2
  -7  -3 -12 2.82779 9.16672   2
 -12   4  12  8.5108 17.0082   1
 -10   4  12 -6.9118 13.0054   1
  -8   4  12 -3.4306 12.5230   1
   6  -4 -12 4.09901 8.68929   2
   4  -4 -12 11.7963  8.6563   2
   2  -4 -12 6.45344 7.42736   2
   0  -4 -12 0.65090 6.38515   2
  -2  -4 -12 4.68302 7.52099   2
  -4  -4 -12 6.67862 7.83367   2
  -6  -4 -12 4.46644 8.01067   2
 -11   5  12 -4.8003 15.3720   1
  -9   5  12 -2.0474 13.3986   1
  -7   5  12 -1.7219 13.4792   1
   5  -5 -12 -2.3801  8.0902   2
   3  -5 -12 3.14671 7.66426   2
   1  -5 -12 9.16237 7.81517   2
  -1  -5 -12 4.48582 7.34786   2
  -3  -5 -12 5.00399 7.82002   2
  -5  -5 -12 14.0734  9.0645   2
 -10   6  12  2.8807 14.8488   1
  -8   6  12 -8.7526 13.5608   1
  -6   6  12 -2.8023 13.3087   1
   4  -6 -12 -0.4827  8.2843   2
   2  -6 -12 1.30839 7.32450   2
   0  -6 -12 -4.3750  6.5652   2
  -2  -6 -12 11.7594  8.2941   2
  -4  -6 -12 0.42501 6.55160   2
  -6  -6 -12 8.72967 9.04370   2
  -9   7  12 -1.6745 15.4999   1
  -7   7  12 -13.771  12.867   1
   5  -7 -12 -1.2860  8.2859   2
  -5   7  12 -10.108  11.538   1
   3  -7 -12 -2.0803  7.4414   2
   1  -7 -12 3.90653 6.94225   2
  -1  -7 -12 11.9780  8.2582   2
  -3  -7 -12 2.62418 7.35827   2
  -5  -7 -12 5.34307 8.34763   2
 -10   8  12 -1.6745 17.1044   1
  -8   8  12 -5.7301 15.8131   1
  -6   8  12 -0.2023 13.7725   1
   4  -8 -12 0.78116 8.77968   2
  -4   8  12 -6.0864 12.7119   1
   2  -8 -12 3.08445 8.18618   2
   0  -8 -12 10.6737  8.8730   2
  -2  -8 -12 0.87121 7.33744   2
  -4  -8 -12 4.05445 8.26207   2
  -9   9  12 11.1948 18.9925   1
  -7   9  12 -7.0234 13.9984   1
  -5   9  12 -5.3345 13.5890   1
   3  -9 -12 14.6263 10.7748   2
  -3   9  12  0.1091 13.4596   1
   1  -9 -12 1.03297 8.84345   2
  -1  -9 -12 12.3623  8.7432   2
  -3  -9 -12 11.2802  8.6719   2
  -8  10  12 -8.0574 15.8908   1
  -6  10  12 -7.1349 14.0172   1
  -4  10  12 -8.5275 12.7865   1
   2 -10 -12  8.0928 10.0663   2
  -2  10  12 -3.2645 12.5867   1
   0 -10 -12 10.6215  9.4782   2
  -2 -10 -12 11.4160  9.1861   2
  -4 -10 -12 6.10800 8.68629   2
  -7  11  12 -9.2743 16.1184   1
  -5  11  12 -8.0126 14.8511   1
  -3  11  12 -1.9605 13.8582   1
   1 -11 -12  8.6381 10.3025   2
  -1  11  12  5.0403 14.0484   1
  -1 -11 -12 6.81684 9.10748   2
  -3 -11 -12 8.11300 9.19542   2
  -6  12  12 -8.9251 17.1778   1
  -4  12  12 -11.530  13.770   1
   2 -12 -12 5.84760 9.17378   2
  -2  12  12 -3.3774 14.0959   1
   0 -12 -12 -1.8260  9.1402   2
   1 -13 -12  3.0092 10.3510   2
  -1  13  12 -1.9773 14.2218   1
   4  10 -13 0.45023 9.79890   3
   2  10 -13 3.23344 9.81605   3
   7   9 -13 -7.3881  8.8039   3
   5   9 -13 -5.8790  8.8441   3
   3   9 -13 -2.1571  8.8471   3
   1   9 -13 -1.6155  9.3240   3
  -1   9 -13 -6.3531  7.4925   3
   8   8 -13  4.1494 10.2554   3
   6   8 -13 -5.7248  9.8222   3
   4   8 -13 -7.2152  8.1093   3
   2   8 -13 -5.6771  7.8274   3
   0   8 -13 -5.2809  8.0487   3
  -2   8 -13 0.50894 8.86523   2
   7   7 -13 -3.7315  8.1306   3
   5   7 -13 -3.8554  8.4599   3
   3   7 -13 -0.8683  8.8238   3
  -1   7 -13 3.27847 7.64782   2
  -3   7 -13 1.80120 8.81462   2
   8   6 -13 -9.1653  8.3302   3
   6   6 -13 3.79524 8.35982   3
   4   6 -13 3.60684 9.16085   3
   0   6 -13 -3.1932  6.8743   2
  -2   6 -13 -2.5954  7.4583   2
   9   5 -13  1.3397 10.7763   3
   7   5 -13 -4.2869  8.3265   3
   5   5 -13 -0.0383  8.4739   3
   1   5 -13 4.70199 7.42873   2
  -1   5 -13 6.45243 8.47291   2
  -3   5 -13 2.33098 8.55566   2
  10   4 -13 -1.2268  9.7141   3
   8   4 -13 -10.610   8.782   3
   0   4 -13 8.30739 7.74279   2
  -2   4 -13 0.27594 7.73157   2
  -4   4 -13 4.26405 8.86103   2
   9   3 -13 5.23099 9.50719   3
   1   3 -13 3.90518 7.19474   2
  -1   3 -13 5.89218 8.03734   2
  -3   3 -13 4.99508 8.49418   2
   2   2 -13 5.14419 7.24878   2
   0   2 -13 4.68389 8.05344   2
  -2   2 -13 8.63603 8.50342   2
  -4   2 -13 7.48580 8.97438   2
   3   1 -13 8.41732 7.67830   2
   1   1 -13 13.8132  8.1281   2
  -1   1 -13 8.47621 8.11923   2
  -3   1 -13 7.77640 8.53347   2
  -5   1 -13 4.47074 8.65141   2
   4   0 -13 -3.3976  6.2059   2
   2   0 -13 3.95715 7.25480   2
   0   0 -13 -0.9887  6.7811   2
  -2   0 -13 4.76674 8.17004   2
  -4   0 -13 -0.3528  8.3791   2
   5  -1 -13 11.7213  9.0868   2
   3  -1 -13 -2.0889  7.3027   2
   1  -1 -13 10.9005  8.0122   2
  -1  -1 -13 5.99310 7.95545   2
  -3  -1 -13 3.15108 8.21248   2
  -5  -1 -13 8.58033 9.43667   2
   6  -2 -13 2.97726 8.59012   2
   4  -2 -13 -0.4460  7.3565   2
   2  -2 -13 6.89116 7.86046   2
   0  -2 -13 4.73625 7.42713   2
  -2  -2 -13 9.89414 8.75482   2
  -4  -2 -13 8.74983 9.01839   2
   5  -3 -13 -0.8004  8.4975   2
   3  -3 -13 -1.4844  7.1893   2
   1  -3 -13 3.14211 7.56232   2
  -1  -3 -13 8.05150 7.79145   2
  -3  -3 -13 2.74204 8.11861   2
   6  -4 -13 1.66852 9.89999   2
   4  -4 -13 10.1289  9.3100   2
   2  -4 -13 6.76379 7.59340   2
   0  -4 -13 2.79962 7.56104   2
  -2  -4 -13 0.65508 7.70212   2
  -4  -4 -13 3.11829 8.55088   2
   5  -5 -13 5.38961 9.75750   2
   3  -5 -13 3.55871 8.47935   2
   1  -5 -13 3.86850 7.57927   2
  -1  -5 -13 10.4691  8.7922   2
  -3  -5 -13 3.07890 8.31486   2
   4  -6 -13 9.56582 9.94141   2
   2  -6 -13 11.4895  9.4136   2
   0  -6 -13 5.40016 7.69784   2
  -2  -6 -13 5.06886 8.81463   2
  -9   7  13 -0.4514 14.9990   1
   5  -7 -13  1.6795 10.1268   2
   3  -7 -13 3.19418 9.52572   2
   1  -7 -13 3.83731 8.60039   2
  -1  -7 -13 12.6899  9.4057   2
  -3  -7 -13 3.05506 8.36855   2
  -8   8  13 -0.9109 16.1063   1
   4  -8 -13  0.6754 10.2735   2
   2  -8 -13 3.01888 9.07846   2
   0  -8 -13 3.61177 7.51517   2
  -2  -8 -13 7.01870 9.18753   2
  -7   9  13 -2.1949 15.8831   1
   3  -9 -13 0.81109 9.84934   2
   1  -9 -13 6.62476 9.82788   2
  -1  -9 -13 0.27845 8.38308   2
  -6  10  13  5.3565 16.4566   1
   2 -10 -13 3.12287 9.94847   2
   0 -10 -13 1.94160 8.94718   2
   0   4 -14 8.54152 8.56553   2
   1   3 -14 10.2114  8.3648   2
  -1   3 -14 25.9326 10.0847   2
   2   2 -14 -1.6909  7.5487   2
   0   2 -14 11.0810  9.1920   2
   3   1 -14 12.5411  8.7829   2
   1   1 -14 14.5269  8.7209   2
  -1   1 -14 3.63496 8.34267   2
   4   0 -14 13.7740 10.1698   2
   2   0 -14 12.6362  8.9004   2
   0   0 -14 14.4002  8.9966   2
   5  -1 -14 7.00761 9.95331   2
   3  -1 -14 8.86949 9.51964   2
   1  -1 -14 9.83699 8.97437   2
  -1  -1 -14 9.36864 8.97249   2
   4  -2 -14 13.3631 10.2395   2
   2  -2 -14 0.75631 8.77582   2
   0  -2 -14 13.2502  9.4401   2
   5  -3 -14  4.7152 10.7855   2
   3  -3 -14 2.94789 8.24138   2
   1  -3 -14 11.7322  9.3279   2
  -1  -3 -14 12.5275  9.6047   2
   6  -4 -14  6.8281 10.8804   2
   4  -4 -14 3.95695 9.95038   2
   2  -4 -14 13.8241 10.1725   2
   0  -4 -14 -1.1187  8.6467   2
   5  -5 -14  3.2022 10.7989   2
   3  -5 -14 13.5637 10.7815   2
   1  -5 -14 1.06875 8.58358   2
   4  -6 -14 22.2681 12.4916   2
   2  -6 -14 2.22452 9.96128   2
   0   0   0    0.00    0.00   0
;
_shelx_hkl_checksum              32211
_shelx_fab_file
;
    2    0    0    136.33      0.00
    4    0    0     42.44      0.00
    6    0    0     22.79      0.00
    8    0    0     12.50      0.00
   10    0    0      3.24      0.00
   12    0    0      1.80      0.00
   14    0    0      1.20      0.00
   16    0    0      1.05      0.00
    1    1    0   -176.60      0.00
    3    1    0    -56.70      0.00
    5    1    0    -21.53      0.00
    7    1    0    -13.00      0.00
    9    1    0     -5.44      0.00
   11    1    0     -0.56      0.00
   13    1    0     -1.14      0.00
   15    1    0     -0.97      0.00
   17    1    0     -0.74      0.00
    0    2    0    128.08      0.00
    2    2    0     56.51      0.00
    4    2    0      3.63      0.00
    6    2    0      3.90      0.00
    8    2    0      3.04      0.00
   10    2    0     -1.20      0.00
   12    2    0     -0.54      0.00
   14    2    0      0.37      0.00
   16    2    0      0.99      0.00
    1    3    0    -38.88      0.00
    3    3    0     13.18      0.00
    5    3    0     11.54      0.00
    7    3    0      3.55      0.00
    9    3    0      2.31      0.00
   11    3    0      2.41      0.00
   13    3    0      0.51      0.00
   15    3    0     -0.88      0.00
   17    3    0     -0.64      0.00
    0    4    0     17.12      0.00
    2    4    0     -8.33      0.00
    4    4    0    -18.51      0.00
    6    4    0     -8.14      0.00
    8    4    0     -2.75      0.00
   10    4    0     -1.95      0.00
   12    4    0     -0.86      0.00
   14    4    0      0.23      0.00
   16    4    0      0.99      0.00
    1    5    0    -10.84      0.00
    3    5    0      4.84      0.00
    5    5    0      4.46      0.00
    7    5    0      0.89      0.00
    9    5    0     -0.62      0.00
   11    5    0     -0.09      0.00
   13    5    0      0.26      0.00
   15    5    0     -0.56      0.00
   17    5    0     -0.15      0.00
    0    6    0     23.15      0.00
    2    6    0     15.63      0.00
    4    6    0      6.46      0.00
    6    6    0      3.64      0.00
    8    6    0      3.46      0.00
   10    6    0      1.87      0.00
   12    6    0     -0.12      0.00
   14    6    0     -0.59      0.00
   16    6    0     -0.02      0.00
    1    7    0    -20.27      0.00
    3    7    0    -13.32      0.00
    5    7    0     -6.73      0.00
    7    7    0     -4.59      0.00
    9    7    0     -2.93      0.00
   11    7    0     -0.25      0.00
   13    7    0      0.98      0.00
   15    7    0      0.87      0.00
    0    8    0      9.53      0.00
    2    8    0      7.99      0.00
    4    8    0      3.98      0.00
    6    8    0      2.33      0.00
    8    8    0      1.76      0.00
   10    8    0      0.22      0.00
   12    8    0     -0.51      0.00
   14    8    0     -0.86      0.00
   16    8    0     -0.46      0.00
    1    9    0      1.62      0.00
    3    9    0      2.58      0.00
    5    9    0      2.33      0.00
    7    9    0      1.50      0.00
    9    9    0      0.73      0.00
   11    9    0      0.30      0.00
   13    9    0     -0.53      0.00
   15    9    0      0.39      0.00
    0   10    0     -5.05      0.00
    2   10    0     -5.79      0.00
    4   10    0     -5.32      0.00
    6   10    0     -4.19      0.00
    8   10    0     -2.37      0.00
   10   10    0     -0.55      0.00
   12   10    0      1.23      0.00
   14   10    0      0.74      0.00
    1   11    0      3.48      0.00
    3   11    0      4.13      0.00
    5   11    0      3.84      0.00
    7   11    0      3.19      0.00
    9   11    0      0.69      0.00
   11   11    0     -0.62      0.00
   13   11    0     -1.31      0.00
   15   11    0     -0.31      0.00
    0   12    0     -1.05      0.00
    2   12    0     -1.26      0.00
    4   12    0     -1.27      0.00
    6   12    0     -2.29      0.00
    8   12    0     -0.64      0.00
   10   12    0      0.26      0.00
   12   12    0      0.37      0.00
   14   12    0      0.27      0.00
    1   13    0      1.14      0.00
    3   13    0     -0.26      0.00
    5   13    0      0.79      0.00
    7   13    0      0.88      0.00
    9   13    0     -0.34      0.00
   11   13    0      0.40      0.00
   13   13    0      0.50      0.00
    0   14    0     -3.51      0.00
    2   14    0     -1.34      0.00
    4   14    0     -0.30      0.00
    6   14    0     -1.53      0.00
    8   14    0     -0.37      0.00
   10   14    0     -0.36      0.00
   12   14    0     -0.92      0.00
   14   14    0     -0.07      0.00
    1   15    0      4.32      0.00
    3   15    0      1.40      0.00
    5   15    0      1.93      0.00
    7   15    0      1.62      0.00
    9   15    0      0.67      0.00
   11   15    0      0.53      0.00
   13   15    0      0.25      0.00
    0   16    0     -4.72      0.00
    2   16    0     -2.75      0.00
    4   16    0     -1.81      0.00
    6   16    0     -1.85      0.00
    8   16    0     -1.16      0.00
   10   16    0     -0.30      0.00
   12   16    0     -0.06      0.00
    1   17    0      1.89      0.00
    3   17    0      1.11      0.00
    5   17    0      0.99      0.00
    7   17    0      0.57      0.00
    9   17    0      0.35      0.00
   11   17    0     -0.14      0.00
    0   18    0      1.03      0.00
    2   18    0      0.76      0.00
    4   18    0     -0.06      0.00
    6   18    0      0.54      0.00
    8   18    0      0.08      0.00
   10   18    0      0.13      0.00
    1   19    0     -2.79      0.00
    3   19    0     -1.04      0.00
    5   19    0     -0.56      0.00
    7   19    0     -0.70      0.00
    9   19    0      0.02      0.00
    0   20    0      2.71      0.00
    2   20    0      2.00      0.00
    4   20    0     -0.01      0.00
    6   20    0      0.38      0.00
    8   20    0     -0.10      0.00
    1   21    0     -1.16      0.00
    3   21    0     -0.27      0.00
    5   21    0      0.72      0.00
    7   21    0      0.05      0.00
    2   22    0      0.39      0.00
    4   22    0     -0.83      0.00
  -17    1    1     -1.57      0.00
  -15    1    1     -1.72      0.00
  -13    1    1     -1.56      0.00
  -11    1    1     -2.49      0.00
   -9    1    1     -4.51      0.00
   -7    1    1     -8.19      0.00
   -5    1    1    -15.55      0.00
   -3    1    1    -31.16      0.00
   -1    1    1    -45.99      0.00
    1    1    1    -37.93      0.00
    3    1    1    -25.11      0.00
    5    1    1    -13.42      0.00
    7    1    1     -8.09      0.00
    9    1    1     -3.67      0.00
   11    1    1     -2.35      0.00
   13    1    1     -0.40      0.00
   15    1    1      0.64      0.00
  -16    2    1      2.38      0.00
  -14    2    1      2.36      0.00
  -12    2    1      1.66      0.00
  -10    2    1      4.30      0.00
   -8    2    1      7.10      0.00
   -6    2    1     15.11      0.00
   -4    2    1     26.41      0.00
   -2    2    1     54.20      0.00
    0    2    1     57.25      0.00
    2    2    1     39.86      0.00
    4    2    1     22.37      0.00
    6    2    1     13.24      0.00
    8    2    1      7.28      0.00
   10    2    1      3.69      0.00
   12    2    1      1.53      0.00
   14    2    1     -0.50      0.00
   16    2    1     -1.19      0.00
  -17    3    1     -2.01      0.00
  -15    3    1     -2.09      0.00
  -13    3    1     -1.08      0.00
  -11    3    1     -0.57      0.00
   -9    3    1     -2.70      0.00
   -7    3    1     -6.64      0.00
   -5    3    1    -10.33      0.00
   -3    3    1    -22.44      0.00
   -1    3    1    -41.39      0.00
    1    3    1    -29.22      0.00
    3    3    1    -16.41      0.00
    5    3    1     -7.11      0.00
    7    3    1     -6.97      0.00
    9    3    1     -2.62      0.00
   11    3    1     -1.80      0.00
   13    3    1      0.38      0.00
   15    3    1      0.53      0.00
   17    3    1      0.67      0.00
  -16    4    1      1.30      0.00
  -14    4    1      1.30      0.00
  -12    4    1     -1.20      0.00
  -10    4    1     -0.99      0.00
   -8    4    1     -0.79      0.00
   -6    4    1      1.19      0.00
   -4    4    1     -5.36      0.00
   -2    4    1      5.95      0.00
    0    4    1      7.01      0.00
    2    4    1     -1.17      0.00
    4    4    1     -6.26      0.00
    6    4    1     -1.59      0.00
    8    4    1      0.33      0.00
   10    4    1      0.36      0.00
   12    4    1     -0.40      0.00
   14    4    1      0.12      0.00
   16    4    1      0.12      0.00
  -17    5    1     -0.88      0.00
  -15    5    1     -0.77      0.00
  -13    5    1     -0.15      0.00
  -11    5    1      2.10      0.00
   -9    5    1      2.27      0.00
   -7    5    1      2.36      0.00
   -5    5    1      7.34      0.00
   -3    5    1     14.52      0.00
   -1    5    1      6.71      0.00
    1    5    1     10.34      0.00
    3    5    1     13.36      0.00
    5    5    1     11.78      0.00
    7    5    1      2.79      0.00
    9    5    1      1.34      0.00
   11    5    1     -0.10      0.00
   13    5    1      0.08      0.00
   15    5    1     -1.39      0.00
  -16    6    1      0.40      0.00
  -14    6    1      0.59      0.00
  -12    6    1     -0.84      0.00
  -10    6    1     -0.82      0.00
   -8    6    1     -1.60      0.00
   -6    6    1     -0.75      0.00
   -4    6    1     -8.21      0.00
   -2    6    1     -6.35      0.00
    0    6    1     -1.99      0.00
    2    6    1     -5.62      0.00
    4    6    1    -11.17      0.00
    6    6    1     -4.85      0.00
    8    6    1     -1.04      0.00
   10    6    1      0.87      0.00
   12    6    1     -0.03      0.00
   14    6    1      1.61      0.00
   16    6    1      0.91      0.00
  -15    7    1     -0.03      0.00
  -13    7    1      0.29      0.00
  -11    7    1      0.55      0.00
   -9    7    1     -1.14      0.00
   -7    7    1     -1.70      0.00
   -5    7    1     -3.58      0.00
   -3    7    1     -2.24      0.00
   -1    7    1     -9.77      0.00
    1    7    1     -9.97      0.00
    3    7    1     -0.61      0.00
    5    7    1      2.61      0.00
    7    7    1     -1.62      0.00
    9    7    1     -1.70      0.00
   11    7    1     -1.20      0.00
   13    7    1     -0.09      0.00
   15    7    1     -1.42      0.00
  -16    8    1      0.35      0.00
  -14    8    1     -0.55      0.00
  -12    8    1     -1.66      0.00
  -10    8    1      0.92      0.00
   -8    8    1      2.38      0.00
   -6    8    1      5.14      0.00
   -4    8    1      7.66      0.00
   -2    8    1     12.33      0.00
    0    8    1     17.57      0.00
    2    8    1     11.35      0.00
    4    8    1      2.17      0.00
    6    8    1      3.89      0.00
    8    8    1      3.14      0.00
   10    8    1      2.24      0.00
   12    8    1     -0.72      0.00
   14    8    1     -0.07      0.00
   16    8    1      0.19      0.00
  -15    9    1     -0.39      0.00
  -13    9    1      1.93      0.00
  -11    9    1      1.80      0.00
   -9    9    1     -1.77      0.00
   -7    9    1     -2.37      0.00
   -5    9    1     -4.77      0.00
   -3    9    1     -7.22      0.00
   -1    9    1    -12.47      0.00
    1    9    1    -11.92      0.00
    3    9    1     -4.14      0.00
    5    9    1     -2.68      0.00
    7    9    1     -3.95      0.00
    9    9    1     -1.93      0.00
   11    9    1     -0.40      0.00
   13    9    1      2.05      0.00
   15    9    1      0.31      0.00
  -16   10    1      1.12      0.00
  -14   10    1     -0.13      0.00
  -12   10    1     -3.04      0.00
  -10   10    1     -0.63      0.00
   -8   10    1      1.17      0.00
   -6   10    1      0.56      0.00
   -4   10    1      0.47      0.00
   -2   10    1      3.45      0.00
    0   10    1      5.55      0.00
    2   10    1      1.88      0.00
    4   10    1     -0.94      0.00
    6   10    1      1.69      0.00
    8   10    1      1.09      0.00
   10   10    1      0.88      0.00
   12   10    1     -1.10      0.00
   14   10    1     -1.99      0.00
  -15   11    1     -1.44      0.00
  -13   11    1      1.54      0.00
  -11   11    1      2.43      0.00
   -9   11    1     -0.34      0.00
   -7   11    1     -0.24      0.00
   -5   11    1      2.41      0.00
   -3   11    1      2.38      0.00
   -1   11    1     -0.70      0.00
    1   11    1      0.84      0.00
    3   11    1      3.19      0.00
    5   11    1      2.20      0.00
    7   11    1     -0.12      0.00
    9   11    1      0.12      0.00
   11   11    1     -0.98      0.00
   13   11    1      1.75      0.00
   15   11    1      0.87      0.00
  -14   12    1      0.44      0.00
  -12   12    1     -2.29      0.00
  -10   12    1     -0.65      0.00
   -8   12    1      1.04      0.00
   -6   12    1     -0.43      0.00
   -4   12    1     -3.53      0.00
   -2   12    1     -0.61      0.00
    0   12    1     -0.31      0.00
    2   12    1     -2.57      0.00
    4   12    1     -3.35      0.00
    6   12    1     -1.15      0.00
    8   12    1     -0.34      0.00
   10   12    1      0.63      0.00
   12   12    1      0.48      0.00
   14   12    1     -1.40      0.00
  -13   13    1      0.94      0.00
  -11   13    1      1.31      0.00
   -9   13    1     -0.99      0.00
   -7   13    1     -1.65      0.00
   -5   13    1      1.02      0.00
   -3   13    1      1.02      0.00
   -1   13    1     -2.10      0.00
    1   13    1      0.01      0.00
    3   13    1      1.09      0.00
    5   13    1      1.44      0.00
    7   13    1     -0.43      0.00
    9   13    1      0.59      0.00
   11   13    1     -0.93      0.00
   13   13    1      0.50      0.00
  -14   14    1     -0.05      0.00
  -12   14    1     -1.18      0.00
  -10   14    1      0.37      0.00
   -8   14    1      1.63      0.00
   -6   14    1      1.07      0.00
   -4   14    1     -0.85      0.00
   -2   14    1      2.22      0.00
    0   14    1      2.57      0.00
    2   14    1      1.41      0.00
    4   14    1      0.05      0.00
    6   14    1      0.38      0.00
    8   14    1     -0.35      0.00
   10   14    1     -0.77      0.00
   12   14    1      0.16      0.00
  -13   15    1      0.43      0.00
  -11   15    1      0.51      0.00
   -9   15    1     -0.95      0.00
   -7   15    1     -0.58      0.00
   -5   15    1      0.37      0.00
   -3   15    1     -0.20      0.00
   -1   15    1     -2.57      0.00
    1   15    1     -1.81      0.00
    3   15    1     -1.28      0.00
    5   15    1      0.52      0.00
    7   15    1      0.37      0.00
    9   15    1      1.75      0.00
   11   15    1      0.39      0.00
   13   15    1     -0.11      0.00
  -12   16    1     -0.67      0.00
  -10   16    1     -0.19      0.00
   -8   16    1     -0.31      0.00
   -6   16    1     -0.95      0.00
   -4   16    1     -0.83      0.00
   -2   16    1      0.42      0.00
    0   16    1      0.22      0.00
    2   16    1      0.00      0.00
    4   16    1     -1.51      0.00
    6   16    1     -2.04      0.00
    8   16    1     -1.80      0.00
   10   16    1     -0.81      0.00
   12   16    1      0.20      0.00
  -11   17    1      1.04      0.00
   -9   17    1      0.75      0.00
   -7   17    1      1.67      0.00
   -5   17    1      0.73      0.00
   -3   17    1      0.40      0.00
   -1   17    1      1.23      0.00
    1   17    1      2.59      0.00
    3   17    1      2.84      0.00
    5   17    1      3.80      0.00
    7   17    1      2.37      0.00
    9   17    1      0.51      0.00
   11   17    1     -0.51      0.00
  -10   18    1     -1.05      0.00
   -8   18    1     -1.42      0.00
   -6   18    1     -0.79      0.00
   -4   18    1      0.69      0.00
   -2   18    1     -0.46      0.00
    0   18    1     -2.99      0.00
    2   18    1     -3.79      0.00
    4   18    1     -4.09      0.00
    6   18    1     -3.12      0.00
    8   18    1     -0.27      0.00
   10   18    1      1.09      0.00
   -9   19    1      0.77      0.00
   -7   19    1      0.79      0.00
   -5   19    1     -1.19      0.00
   -3   19    1     -1.30      0.00
   -1   19    1      0.55      0.00
    1   19    1      2.39      0.00
    3   19    1      2.68      0.00
    5   19    1      2.80      0.00
    7   19    1      0.54      0.00
    9   19    1     -1.47      0.00
   -8   20    1     -0.50      0.00
   -6   20    1      0.63      0.00
   -4   20    1      1.61      0.00
   -2   20    1      1.32      0.00
    0   20    1      0.76      0.00
    2   20    1      0.06      0.00
    4   20    1     -1.09      0.00
    6   20    1     -0.95      0.00
    8   20    1      1.17      0.00
   -7   21    1      0.03      0.00
   -5   21    1     -0.90      0.00
   -3   21    1     -0.79      0.00
   -1   21    1     -2.06      0.00
    1   21    1     -2.75      0.00
    3   21    1     -1.17      0.00
    5   21    1      0.72      0.00
    7   21    1     -0.20      0.00
   -4   22    1      0.07      0.00
    0   22    1      3.26      0.00
    2   22    1      2.88      0.00
    4   22    1      0.14      0.00
    1   23    1     -3.22      0.00
  -16    0    2     -1.36      0.00
  -14    0    2     -2.19      0.00
  -12    0    2     -0.89      0.00
  -10    0    2     -2.00      0.00
   -8    0    2     -7.42      0.00
   -6    0    2    -12.98      0.00
   -4    0    2     -4.59      0.00
   -2    0    2     20.03      0.00
    0    0    2    -20.18      0.00
    2    0    2    -48.43      0.00
    4    0    2    -16.95      0.00
    6    0    2     -9.60      0.00
    8    0    2     -7.57      0.00
   10    0    2     -4.70      0.00
   12    0    2     -0.44      0.00
   14    0    2      0.23      0.00
  -17    1    2      0.40      0.00
  -15    1    2      1.67      0.00
  -13    1    2      0.64      0.00
  -11    1    2      0.08      0.00
   -9    1    2      1.98      0.00
   -7    1    2      8.27      0.00
   -5    1    2      7.32      0.00
   -3    1    2    -14.79      0.00
   -1    1    2    -16.61      0.00
    1    1    2     35.68      0.00
    3    1    2     22.50      0.00
    5    1    2      5.76      0.00
    7    1    2      5.25      0.00
    9    1    2      5.58      0.00
   11    1    2      0.66      0.00
   13    1    2      0.07      0.00
   15    1    2     -1.04      0.00
  -16    2    2      0.49      0.00
  -14    2    2     -0.64      0.00
  -12    2    2      1.75      0.00
  -10    2    2      2.50      0.00
   -8    2    2     -0.25      0.00
   -6    2    2     -1.65      0.00
   -4    2    2     10.75      0.00
   -2    2    2     34.96      0.00
    0    2    2      6.79      0.00
    2    2    2    -13.52      0.00
    4    2    2      5.87      0.00
    6    2    2      3.08      0.00
    8    2    2     -1.26      0.00
   10    2    2     -0.67      0.00
   12    2    2      1.44      0.00
   14    2    2      0.42      0.00
  -17    3    2     -1.54      0.00
  -15    3    2     -0.37      0.00
  -13    3    2     -0.91      0.00
  -11    3    2     -3.50      0.00
   -9    3    2     -4.23      0.00
   -7    3    2     -2.66      0.00
   -5    3    2     -8.12      0.00
   -3    3    2    -27.83      0.00
   -1    3    2    -31.97      0.00
    1    3    2     -4.72      0.00
    3    3    2    -12.30      0.00
    5    3    2    -13.72      0.00
    7    3    2     -5.17      0.00
    9    3    2     -0.47      0.00
   11    3    2     -2.32      0.00
   13    3    2     -0.62      0.00
   15    3    2     -0.28      0.00
  -16    4    2      1.62      0.00
  -14    4    2     -0.41      0.00
  -12    4    2      1.47      0.00
  -10    4    2      3.40      0.00
   -8    4    2      3.64      0.00
   -6    4    2      3.78      0.00
   -4    4    2     12.22      0.00
   -2    4    2     23.41      0.00
    0    4    2     11.69      0.00
    2    4    2      7.04      0.00
    4    4    2     14.11      0.00
    6    4    2      8.23      0.00
    8    4    2      1.98      0.00
   10    4    2      1.00      0.00
   12    4    2      0.77      0.00
   14    4    2     -0.22      0.00
   16    4    2     -0.12      0.00
  -17    5    2     -0.88      0.00
  -15    5    2      0.07      0.00
  -13    5    2      0.81      0.00
  -11    5    2     -0.76      0.00
   -9    5    2     -2.10      0.00
   -7    5    2     -0.86      0.00
   -5    5    2     -0.29      0.00
   -3    5    2     -4.59      0.00
   -1    5    2     -1.89      0.00
    1    5    2      3.94      0.00
    3    5    2     -1.63      0.00
    5    5    2     -3.42      0.00
    7    5    2     -1.03      0.00
    9    5    2      1.04      0.00
   11    5    2      0.31      0.00
   13    5    2      1.08      0.00
   15    5    2     -0.10      0.00
  -16    6    2     -0.18      0.00
  -14    6    2     -1.15      0.00
  -12    6    2     -0.70      0.00
  -10    6    2      0.31      0.00
   -8    6    2      0.71      0.00
   -6    6    2     -3.30      0.00
   -4    6    2     -5.30      0.00
   -2    6    2     -7.79      0.00
    0    6    2    -11.65      0.00
    2    6    2     -9.69      0.00
    4    6    2     -5.70      0.00
    6    6    2     -2.77      0.00
    8    6    2     -2.47      0.00
   10    6    2     -1.74      0.00
   12    6    2     -1.29      0.00
   14    6    2     -0.53      0.00
   16    6    2      0.45      0.00
  -17    7    2      1.05      0.00
  -15    7    2      1.29      0.00
  -13    7    2      0.59      0.00
  -11    7    2      0.33      0.00
   -9    7    2     -0.89      0.00
   -7    7    2      0.77      0.00
   -5    7    2      5.22      0.00
   -3    7    2      7.36      0.00
   -1    7    2     10.46      0.00
    1    7    2      9.99      0.00
    3    7    2      8.97      0.00
    5    7    2      5.16      0.00
    7    7    2      2.59      0.00
    9    7    2      1.74      0.00
   11    7    2      0.67      0.00
   13    7    2      0.33      0.00
   15    7    2     -0.36      0.00
  -16    8    2     -2.10      0.00
  -14    8    2     -0.59      0.00
  -12    8    2     -0.03      0.00
  -10    8    2      0.20      0.00
   -8    8    2      1.16      0.00
   -6    8    2     -1.19      0.00
   -4    8    2     -2.52      0.00
   -2    8    2     -3.14      0.00
    0    8    2     -3.11      0.00
    2    8    2     -3.89      0.00
    4    8    2     -2.70      0.00
    6    8    2     -0.31      0.00
    8    8    2      0.15      0.00
   10    8    2      0.37      0.00
   12    8    2      1.01      0.00
   14    8    2      0.48      0.00
  -15    9    2      1.61      0.00
  -13    9    2     -0.48      0.00
  -11    9    2      0.41      0.00
   -9    9    2     -0.24      0.00
   -7    9    2     -0.54      0.00
   -5    9    2     -0.36      0.00
   -3    9    2     -1.99      0.00
   -1    9    2     -3.34      0.00
    1    9    2     -2.59      0.00
    3    9    2     -1.75      0.00
    5    9    2     -3.44      0.00
    7    9    2     -2.78      0.00
    9    9    2     -1.81      0.00
   11    9    2     -1.61      0.00
   13    9    2     -1.30      0.00
   15    9    2     -0.27      0.00
  -16   10    2     -1.58      0.00
  -14   10    2     -0.04      0.00
  -12   10    2      0.14      0.00
  -10   10    2     -0.92      0.00
   -8   10    2     -0.51      0.00
   -6   10    2      0.00      0.00
   -4   10    2      1.74      0.00
   -2   10    2      4.69      0.00
    0   10    2      5.55      0.00
    2   10    2      3.75      0.00
    4   10    2      5.04      0.00
    6   10    2      4.30      0.00
    8   10    2      2.90      0.00
   10   10    2      1.31      0.00
   12   10    2      1.32      0.00
   14   10    2      0.47      0.00
  -15   11    2      0.89      0.00
  -13   11    2     -0.38      0.00
  -11   11    2      0.65      0.00
   -9   11    2      1.00      0.00
   -7   11    2      1.13      0.00
   -5   11    2      0.54      0.00
   -3   11    2     -1.51      0.00
   -1   11    2     -4.50      0.00
    1   11    2     -3.40      0.00
    3   11    2     -3.18      0.00
    5   11    2     -3.32      0.00
    7   11    2     -2.46      0.00
    9   11    2     -1.23      0.00
   11   11    2     -0.34      0.00
   13   11    2     -0.28      0.00
  -14   12    2     -0.90      0.00
  -12   12    2     -0.31      0.00
  -10   12    2     -0.64      0.00
   -8   12    2     -0.46      0.00
   -6   12    2     -1.03      0.00
   -4   12    2     -1.40      0.00
   -2   12    2      0.87      0.00
    0   12    2      2.22      0.00
    2   12    2      0.71      0.00
    4   12    2      0.49      0.00
    6   12    2      0.61      0.00
    8   12    2      1.17      0.00
   10   12    2      0.02      0.00
   12   12    2     -0.26      0.00
   14   12    2     -0.04      0.00
  -13   13    2      1.45      0.00
  -11   13    2      0.74      0.00
   -9   13    2     -0.19      0.00
   -7   13    2     -0.74      0.00
   -5   13    2      0.90      0.00
   -3   13    2      1.75      0.00
   -1   13    2     -0.34      0.00
    1   13    2      0.10      0.00
    3   13    2      1.54      0.00
    5   13    2      1.32      0.00
    7   13    2     -0.82      0.00
    9   13    2     -0.65      0.00
   11   13    2      0.22      0.00
   13   13    2      0.20      0.00
  -14   14    2     -2.31      0.00
  -12   14    2     -1.31      0.00
  -10   14    2     -0.55      0.00
   -8   14    2      1.56      0.00
   -6   14    2      1.53      0.00
   -4   14    2     -1.20      0.00
   -2   14    2     -1.01      0.00
    0   14    2      0.21      0.00
    2   14    2     -1.01      0.00
    4   14    2     -1.88      0.00
    6   14    2      0.54      0.00
    8   14    2      1.29      0.00
   10   14    2      0.34      0.00
   12   14    2     -0.14      0.00
  -13   15    2      1.58      0.00
  -11   15    2      0.67      0.00
   -9   15    2     -0.18      0.00
   -7   15    2     -2.46      0.00
   -5   15    2     -0.67      0.00
   -3   15    2      1.02      0.00
   -1   15    2     -0.73      0.00
    1   15    2     -1.10      0.00
    3   15    2      0.36      0.00
    5   15    2     -0.58      0.00
    7   15    2     -1.63      0.00
    9   15    2     -0.43      0.00
   11   15    2     -0.06      0.00
  -12   16    2      0.04      0.00
  -10   16    2     -0.30      0.00
   -8   16    2      0.94      0.00
   -6   16    2      1.62      0.00
   -4   16    2     -0.75      0.00
   -2   16    2      0.56      0.00
    0   16    2      2.59      0.00
    2   16    2      1.88      0.00
    4   16    2      1.02      0.00
    6   16    2      1.63      0.00
    8   16    2     -0.01      0.00
   10   16    2     -0.09      0.00
   12   16    2      0.40      0.00
  -11   17    2     -0.68      0.00
   -9   17    2      0.32      0.00
   -7   17    2     -1.02      0.00
   -5   17    2      0.17      0.00
   -3   17    2      0.62      0.00
   -1   17    2     -2.00      0.00
    1   17    2     -2.48      0.00
    3   17    2     -1.23      0.00
    5   17    2     -1.18      0.00
    7   17    2      0.24      0.00
    9   17    2      0.58      0.00
   11   17    2     -0.27      0.00
  -10   18    2      0.03      0.00
   -8   18    2     -0.26      0.00
   -6   18    2      0.77      0.00
   -4   18    2     -0.72      0.00
   -2   18    2      0.17      0.00
    0   18    2      0.98      0.00
    2   18    2      0.33      0.00
    4   18    2      0.21      0.00
    6   18    2      0.02      0.00
    8   18    2     -0.76      0.00
   10   18    2      0.28      0.00
   -9   19    2      0.73      0.00
   -7   19    2     -0.55      0.00
   -5   19    2     -1.01      0.00
   -3   19    2      0.19      0.00
   -1   19    2      0.71      0.00
    1   19    2      1.06      0.00
    3   19    2      0.88      0.00
    5   19    2     -0.21      0.00
    7   19    2      0.11      0.00
    9   19    2     -0.42      0.00
   -8   20    2     -0.42      0.00
   -6   20    2      1.67      0.00
   -4   20    2      1.33      0.00
   -2   20    2     -0.68      0.00
    0   20    2     -1.69      0.00
    2   20    2     -0.96      0.00
    4   20    2      0.02      0.00
    6   20    2      0.84      0.00
    8   20    2      0.56      0.00
   -7   21    2     -0.46      0.00
   -5   21    2     -1.85      0.00
   -3   21    2     -0.55      0.00
   -1   21    2      1.44      0.00
    1   21    2      0.14      0.00
    3   21    2     -0.39      0.00
    5   21    2     -0.96      0.00
   -2   22    2     -0.84      0.00
    0   22    2     -0.09      0.00
    2   22    2      1.51      0.00
   -1   23    2      0.78      0.00
  -17    1    3      0.54      0.00
  -15    1    3      0.67      0.00
  -13    1    3      0.86      0.00
  -11    1    3      1.07      0.00
   -9    1    3      2.94      0.00
   -7    1    3      4.99      0.00
   -5    1    3      7.09      0.00
   -3    1    3      4.63      0.00
   -1    1    3     13.02      0.00
    1    1    3     19.80      0.00
    3    1    3     15.73      0.00
    5    1    3      8.85      0.00
    7    1    3      4.89      0.00
    9    1    3      2.68      0.00
   11    1    3      0.89      0.00
   13    1    3     -0.06      0.00
   15    1    3     -0.61      0.00
  -16    2    3     -0.84      0.00
  -14    2    3     -0.71      0.00
  -12    2    3     -0.63      0.00
  -10    2    3     -1.72      0.00
   -8    2    3     -4.51      0.00
   -6    2    3     -8.28      0.00
   -4    2    3     -6.57      0.00
   -2    2    3     -6.80      0.00
    0    2    3    -23.49      0.00
    2    2    3    -22.76      0.00
    4    2    3    -14.70      0.00
    6    2    3     -7.17      0.00
    8    2    3     -5.18      0.00
   10    2    3     -1.57      0.00
   12    2    3      0.15      0.00
   14    2    3      0.83      0.00
   16    2    3      0.91      0.00
  -17    3    3      0.44      0.00
  -15    3    3      0.27      0.00
  -13    3    3     -0.05      0.00
  -11    3    3     -0.73      0.00
   -9    3    3      1.09      0.00
   -7    3    3      2.67      0.00
   -5    3    3      5.45      0.00
   -3    3    3     -2.79      0.00
   -1    3    3      7.07      0.00
    1    3    3     15.00      0.00
    3    3    3      9.11      0.00
    5    3    3      3.38      0.00
    7    3    3      3.26      0.00
    9    3    3      1.72      0.00
   11    3    3     -0.99      0.00
   13    3    3     -1.72      0.00
   15    3    3     -0.63      0.00
  -16    4    3      0.04      0.00
  -14    4    3      0.27      0.00
  -12    4    3      1.00      0.00
  -10    4    3      1.55      0.00
   -8    4    3      1.51      0.00
   -6    4    3      0.61      0.00
   -4    4    3      4.53      0.00
   -2    4    3     10.25      0.00
    0    4    3     -0.28      0.00
    2    4    3      2.22      0.00
    4    4    3      4.57      0.00
    6    4    3      3.51      0.00
    8    4    3     -0.42      0.00
   10    4    3      1.67      0.00
   12    4    3      2.69      0.00
   14    4    3      1.47      0.00
   16    4    3     -0.19      0.00
  -17    5    3     -0.86      0.00
  -15    5    3      0.00      0.00
  -13    5    3      0.08      0.00
  -11    5    3     -1.16      0.00
   -9    5    3     -1.65      0.00
   -7    5    3     -3.63      0.00
   -5    5    3     -4.07      0.00
   -3    5    3    -12.70      0.00
   -1    5    3    -10.45      0.00
    1    5    3     -7.19      0.00
    3    5    3     -8.62      0.00
    5    5    3     -8.26      0.00
    7    5    3     -2.57      0.00
    9    5    3     -1.16      0.00
   11    5    3     -1.84      0.00
   13    5    3     -2.66      0.00
   15    5    3      0.13      0.00
  -16    6    3      0.55      0.00
  -14    6    3     -0.99      0.00
  -12    6    3     -0.59      0.00
  -10    6    3      0.70      0.00
   -8    6    3      1.27      0.00
   -6    6    3      2.84      0.00
   -4    6    3      6.24      0.00
   -2    6    3     10.89      0.00
    0    6    3      5.60      0.00
    2    6    3      3.93      0.00
    4    6    3      4.85      0.00
    6    6    3      3.79      0.00
    8    6    3     -0.13      0.00
   10    6    3     -0.43      0.00
   12    6    3      0.92      0.00
   14    6    3      1.27      0.00
  -17    7    3     -1.71      0.00
  -15    7    3      0.92      0.00
  -13    7    3      1.47      0.00
  -11    7    3     -0.05      0.00
   -9    7    3     -0.18      0.00
   -7    7    3      0.42      0.00
   -5    7    3     -0.67      0.00
   -3    7    3     -4.47      0.00
   -1    7    3     -2.95      0.00
    1    7    3      2.79      0.00
    3    7    3      3.65      0.00
    5    7    3     -0.51      0.00
    7    7    3      1.27      0.00
    9    7    3      2.30      0.00
   11    7    3      2.53      0.00
   13    7    3     -1.01      0.00
   15    7    3     -0.07      0.00
  -16    8    3      0.23      0.00
  -14    8    3     -1.44      0.00
  -12    8    3     -0.30      0.00
  -10    8    3      1.30      0.00
   -8    8    3     -0.98      0.00
   -6    8    3     -2.38      0.00
   -4    8    3     -0.82      0.00
   -2    8    3      0.37      0.00
    0    8    3     -4.24      0.00
    2    8    3     -8.63      0.00
    4    8    3     -4.03      0.00
    6    8    3     -1.32      0.00
    8    8    3     -2.72      0.00
   10    8    3     -3.41      0.00
   12    8    3     -1.49      0.00
   14    8    3      1.24      0.00
  -15    9    3      0.71      0.00
  -13    9    3      0.21      0.00
  -11    9    3     -1.27      0.00
   -9    9    3     -1.21      0.00
   -7    9    3      2.29      0.00
   -5    9    3      2.46      0.00
   -3    9    3      1.22      0.00
   -1    9    3      2.41      0.00
    1    9    3      6.98      0.00
    3    9    3      5.19      0.00
    5    9    3     -0.22      0.00
    7    9    3      0.96      0.00
    9    9    3      1.57      0.00
   11    9    3      2.00      0.00
   13    9    3     -0.71      0.00
   15    9    3     -0.87      0.00
  -16   10    3      0.03      0.00
  -14   10    3      0.50      0.00
  -12   10    3      0.90      0.00
  -10   10    3      1.42      0.00
   -8   10    3     -0.17      0.00
   -6   10    3     -2.04      0.00
   -4   10    3     -0.99      0.00
   -2   10    3     -0.74      0.00
    0   10    3     -2.99      0.00
    2   10    3     -3.15      0.00
    4   10    3      2.18      0.00
    6   10    3      2.43      0.00
    8   10    3      0.38      0.00
   10   10    3      0.33      0.00
   12   10    3      0.05      0.00
   14   10    3      1.58      0.00
  -15   11    3     -1.04      0.00
  -13   11    3     -1.85      0.00
  -11   11    3     -0.68      0.00
   -9   11    3     -0.48      0.00
   -7   11    3      0.93      0.00
   -5   11    3      0.66      0.00
   -3   11    3     -0.37      0.00
   -1   11    3      0.29      0.00
    1   11    3      0.99      0.00
    3   11    3     -2.78      0.00
    5   11    3     -4.63      0.00
    7   11    3     -1.73      0.00
    9   11    3     -1.38      0.00
   11   11    3     -1.12      0.00
   13   11    3     -0.91      0.00
  -14   12    3      2.56      0.00
  -12   12    3      1.63      0.00
  -10   12    3      0.27      0.00
   -8   12    3     -0.22      0.00
   -6   12    3     -0.87      0.00
   -4   12    3      0.06      0.00
   -2   12    3      0.68      0.00
    0   12    3     -0.08      0.00
    2   12    3      1.76      0.00
    4   12    3      3.74      0.00
    6   12    3      2.19      0.00
    8   12    3      0.10      0.00
   10   12    3      1.54      0.00
   12   12    3      0.55      0.00
  -13   13    3     -2.46      0.00
  -11   13    3     -0.97      0.00
   -9   13    3     -0.35      0.00
   -7   13    3      0.71      0.00
   -5   13    3      1.13      0.00
   -3   13    3      0.25      0.00
   -1   13    3      0.22      0.00
    1   13    3     -0.08      0.00
    3   13    3     -1.24      0.00
    5   13    3     -0.99      0.00
    7   13    3      0.75      0.00
    9   13    3      0.24      0.00
   11   13    3     -0.87      0.00
   13   13    3     -0.50      0.00
  -14   14    3      1.33      0.00
  -12   14    3      1.12      0.00
  -10   14    3      0.90      0.00
   -8   14    3     -0.12      0.00
   -6   14    3     -1.38      0.00
   -4   14    3     -1.74      0.00
   -2   14    3     -1.22      0.00
    0   14    3     -1.40      0.00
    2   14    3     -0.70      0.00
    4   14    3     -0.86      0.00
    6   14    3     -0.47      0.00
    8   14    3     -1.36      0.00
   10   14    3      0.54      0.00
   12   14    3      0.42      0.00
  -13   15    3     -0.29      0.00
  -11   15    3     -0.29      0.00
   -9   15    3     -0.30      0.00
   -7   15    3      1.16      0.00
   -5   15    3      1.74      0.00
   -3   15    3      1.95      0.00
   -1   15    3      2.04      0.00
    1   15    3      1.55      0.00
    3   15    3      1.29      0.00
    5   15    3      0.27      0.00
    7   15    3      0.12      0.00
    9   15    3     -0.07      0.00
   11   15    3     -0.80      0.00
  -12   16    3     -0.57      0.00
  -10   16    3      0.10      0.00
   -8   16    3     -1.18      0.00
   -6   16    3     -1.43      0.00
   -4   16    3     -1.37      0.00
   -2   16    3     -1.43      0.00
    0   16    3     -1.42      0.00
    2   16    3     -0.27      0.00
    4   16    3      0.16      0.00
    6   16    3      1.29      0.00
    8   16    3      0.60      0.00
   10   16    3      0.98      0.00
  -11   17    3      0.20      0.00
   -9   17    3      0.65      0.00
   -7   17    3      1.88      0.00
   -5   17    3      0.82      0.00
   -3   17    3      0.23      0.00
   -1   17    3      0.42      0.00
    1   17    3     -0.41      0.00
    3   17    3     -1.24      0.00
    5   17    3     -1.36      0.00
    7   17    3     -1.07      0.00
    9   17    3     -0.85      0.00
  -10   18    3      0.29      0.00
   -8   18    3     -1.47      0.00
   -6   18    3     -1.15      0.00
   -4   18    3      0.17      0.00
   -2   18    3      0.77      0.00
    0   18    3      0.13      0.00
    2   18    3      1.36      0.00
    4   18    3      1.00      0.00
    6   18    3      0.39      0.00
    8   18    3      0.34      0.00
   -9   19    3      0.13      0.00
   -7   19    3      0.87      0.00
   -5   19    3      0.00      0.00
   -3   19    3     -1.19      0.00
   -1   19    3     -0.19      0.00
    1   19    3      0.29      0.00
    3   19    3     -0.43      0.00
    5   19    3      0.50      0.00
    7   19    3      0.37      0.00
   -8   20    3     -0.01      0.00
   -6   20    3      0.58      0.00
   -4   20    3      1.03      0.00
   -2   20    3      1.02      0.00
    0   20    3     -1.30      0.00
    2   20    3     -0.84      0.00
    4   20    3     -0.65      0.00
    6   20    3     -0.64      0.00
   -7   21    3     -1.29      0.00
   -5   21    3     -1.34      0.00
   -3   21    3     -1.41      0.00
   -1   21    3      0.19      0.00
    1   21    3      1.50      0.00
    3   21    3      0.61      0.00
    5   21    3      0.23      0.00
   -4   22    3      1.06      0.00
   -2   22    3      0.85      0.00
    0   22    3     -0.42      0.00
    2   22    3     -0.61      0.00
  -16    0    4      0.98      0.00
  -14    0    4      1.38      0.00
  -12    0    4      0.07      0.00
  -10    0    4      1.04      0.00
   -8    0    4      0.57      0.00
   -6    0    4      7.84      0.00
   -4    0    4      8.93      0.00
   -2    0    4      4.00      0.00
    0    0    4      5.88      0.00
    2    0    4     16.22      0.00
    4    0    4      7.17      0.00
    6    0    4      3.22      0.00
    8    0    4      1.95      0.00
   10    0    4      2.48      0.00
   12    0    4      1.23      0.00
   14    0    4      1.50      0.00
  -17    1    4     -0.68      0.00
  -15    1    4     -0.69      0.00
  -13    1    4     -0.42      0.00
  -11    1    4      0.18      0.00
   -9    1    4      0.52      0.00
   -7    1    4     -1.43      0.00
   -5    1    4     -7.14      0.00
   -3    1    4     -2.66      0.00
   -1    1    4      1.88      0.00
    1    1    4     -6.58      0.00
    3    1    4     -7.92      0.00
    5    1    4     -0.80      0.00
    7    1    4     -1.03      0.00
    9    1    4     -1.55      0.00
   11    1    4     -1.23      0.00
   13    1    4     -1.32      0.00
   15    1    4     -0.79      0.00
  -16    2    4      0.03      0.00
  -14    2    4     -0.09      0.00
  -12    2    4     -0.86      0.00
  -10    2    4     -1.43      0.00
   -8    2    4     -3.80      0.00
   -6    2    4      0.12      0.00
   -4    2    4     -1.56      0.00
   -2    2    4     -9.44      0.00
    0    2    4     -9.96      0.00
    2    2    4     -2.13      0.00
    4    2    4     -5.37      0.00
    6    2    4     -3.69      0.00
    8    2    4     -1.27      0.00
   10    2    4      0.58      0.00
   12    2    4     -0.12      0.00
   14    2    4      1.43      0.00
  -17    3    4     -0.58      0.00
  -15    3    4      0.69      0.00
  -13    3    4      0.24      0.00
  -11    3    4      1.30      0.00
   -9    3    4      3.49      0.00
   -7    3    4      4.77      0.00
   -5    3    4      3.76      0.00
   -3    3    4     11.44      0.00
   -1    3    4     16.95      0.00
    1    3    4     12.53      0.00
    3    3    4     10.18      0.00
    5    3    4      9.07      0.00
    7    3    4      4.70      0.00
    9    3    4      0.89      0.00
   11    3    4      0.95      0.00
   13    3    4     -0.11      0.00
   15    3    4     -1.12      0.00
  -16    4    4      0.16      0.00
  -14    4    4      0.23      0.00
  -12    4    4      0.24      0.00
  -10    4    4     -1.06      0.00
   -8    4    4     -2.89      0.00
   -6    4    4     -2.55      0.00
   -4    4    4     -6.52      0.00
   -2    4    4    -13.03      0.00
    0    4    4    -11.45      0.00
    2    4    4     -8.57      0.00
    4    4    4     -8.23      0.00
    6    4    4     -5.89      0.00
    8    4    4     -2.07      0.00
   10    4    4     -0.01      0.00
   12    4    4     -1.35      0.00
   14    4    4      0.59      0.00
  -17    5    4     -0.74      0.00
  -15    5    4     -0.73      0.00
  -13    5    4     -1.49      0.00
  -11    5    4     -0.49      0.00
   -9    5    4     -0.59      0.00
   -7    5    4     -1.27      0.00
   -5    5    4     -1.22      0.00
   -3    5    4      4.11      0.00
   -1    5    4      3.39      0.00
    1    5    4      0.76      0.00
    3    5    4      1.51      0.00
    5    5    4      2.12      0.00
    7    5    4      1.54      0.00
    9    5    4     -1.58      0.00
   11    5    4      0.15      0.00
   13    5    4      0.81      0.00
   15    5    4     -0.40      0.00
  -16    6    4      0.81      0.00
  -14    6    4      1.56      0.00
  -12    6    4      1.12      0.00
  -10    6    4      0.93      0.00
   -8    6    4      3.29      0.00
   -6    6    4      5.97      0.00
   -4    6    4      4.56      0.00
   -2    6    4      2.71      0.00
    0    6    4      5.84      0.00
    2    6    4      4.05      0.00
    4    6    4      3.09      0.00
    6    6    4      0.63      0.00
    8    6    4      2.30      0.00
   10    6    4      2.32      0.00
   12    6    4     -0.73      0.00
   14    6    4     -0.42      0.00
  -15    7    4     -0.76      0.00
  -13    7    4     -1.02      0.00
  -11    7    4     -0.19      0.00
   -9    7    4     -1.52      0.00
   -7    7    4     -4.92      0.00
   -5    7    4     -7.91      0.00
   -3    7    4     -5.63      0.00
   -1    7    4     -6.11      0.00
    1    7    4     -4.12      0.00
    3    7    4     -3.23      0.00
    5    7    4     -1.96      0.00
    7    7    4     -1.37      0.00
    9    7    4     -2.83      0.00
   11    7    4     -0.60      0.00
   13    7    4      1.09      0.00
   15    7    4     -0.12      0.00
  -16    8    4     -0.38      0.00
  -14    8    4      0.32      0.00
  -12    8    4      0.08      0.00
  -10    8    4     -0.08      0.00
   -8    8    4      0.73      0.00
   -6    8    4      4.60      0.00
   -4    8    4      5.79      0.00
   -2    8    4      3.34      0.00
    0    8    4      0.66      0.00
    2    8    4     -1.64      0.00
    4    8    4      0.31      0.00
    6    8    4     -0.89      0.00
    8    8    4      0.95      0.00
   10    8    4      0.49      0.00
   12    8    4     -0.85      0.00
   14    8    4     -0.50      0.00
  -15    9    4      0.63      0.00
  -13    9    4     -0.04      0.00
  -11    9    4     -0.07      0.00
   -9    9    4      1.09      0.00
   -7    9    4      0.79      0.00
   -5    9    4     -2.98      0.00
   -3    9    4     -1.74      0.00
   -1    9    4      1.73      0.00
    1    9    4      5.69      0.00
    3    9    4      2.79      0.00
    5    9    4      2.52      0.00
    7    9    4      1.48      0.00
    9    9    4      0.79      0.00
   11    9    4      0.90      0.00
   13    9    4      0.80      0.00
  -14   10    4     -0.05      0.00
  -12   10    4      0.17      0.00
  -10   10    4     -0.29      0.00
   -8   10    4     -2.71      0.00
   -6   10    4     -0.58      0.00
   -4   10    4      1.47      0.00
   -2   10    4     -0.85      0.00
    0   10    4     -5.07      0.00
    2   10    4     -4.15      0.00
    4   10    4     -1.73      0.00
    6   10    4     -2.31      0.00
    8   10    4     -0.93      0.00
   10   10    4     -1.23      0.00
   12   10    4     -0.64      0.00
   14   10    4      0.02      0.00
  -15   11    4      0.14      0.00
  -13   11    4     -0.57      0.00
  -11   11    4      0.31      0.00
   -9   11    4      1.43      0.00
   -7   11    4      1.99      0.00
   -5   11    4     -1.40      0.00
   -3   11    4     -1.75      0.00
   -1   11    4      0.82      0.00
    1   11    4      2.44      0.00
    3   11    4     -0.57      0.00
    5   11    4      0.55      0.00
    7   11    4     -0.18      0.00
    9   11    4      0.20      0.00
   11   11    4      0.43      0.00
   13   11    4      0.03      0.00
  -14   12    4      1.26      0.00
  -12   12    4     -0.15      0.00
  -10   12    4     -1.09      0.00
   -8   12    4     -1.04      0.00
   -6   12    4      1.03      0.00
   -4   12    4      3.41      0.00
   -2   12    4      3.41      0.00
    0   12    4      1.19      0.00
    2   12    4      2.30      0.00
    4   12    4      2.21      0.00
    6   12    4      1.35      0.00
    8   12    4      1.44      0.00
   10   12    4      0.23      0.00
   12   12    4     -0.14      0.00
  -13   13    4     -1.46      0.00
  -11   13    4      1.48      0.00
   -9   13    4      0.39      0.00
   -7   13    4     -0.95      0.00
   -5   13    4     -2.83      0.00
   -3   13    4     -4.51      0.00
   -1   13    4     -4.09      0.00
    1   13    4     -2.85      0.00
    3   13    4     -3.21      0.00
    5   13    4     -2.03      0.00
    7   13    4     -1.63      0.00
    9   13    4     -0.72      0.00
   11   13    4      0.28      0.00
  -14   14    4      1.66      0.00
  -12   14    4     -0.02      0.00
  -10   14    4     -1.25      0.00
   -8   14    4      1.11      0.00
   -6   14    4      1.38      0.00
   -4   14    4      2.37      0.00
   -2   14    4      4.06      0.00
    0   14    4      2.58      0.00
    2   14    4      1.83      0.00
    4   14    4      1.55      0.00
    6   14    4      0.83      0.00
    8   14    4     -0.17      0.00
   10   14    4     -0.56      0.00
   12   14    4     -0.23      0.00
  -13   15    4     -1.33      0.00
  -11   15    4      1.36      0.00
   -9   15    4     -0.07      0.00
   -7   15    4     -0.83      0.00
   -5   15    4      0.24      0.00
   -3   15    4     -1.48      0.00
   -1   15    4     -1.74      0.00
    1   15    4      0.18      0.00
    3   15    4      0.17      0.00
    5   15    4     -0.19      0.00
    7   15    4      1.28      0.00
    9   15    4      1.42      0.00
   11   15    4      0.80      0.00
  -12   16    4     -0.17      0.00
  -10   16    4     -1.43      0.00
   -8   16    4      0.13      0.00
   -6   16    4     -0.91      0.00
   -4   16    4     -0.96      0.00
   -2   16    4      0.74      0.00
    0   16    4     -0.97      0.00
    2   16    4     -1.69      0.00
    4   16    4     -0.38      0.00
    6   16    4     -0.88      0.00
    8   16    4     -1.99      0.00
   10   16    4     -1.33      0.00
  -11   17    4      1.21      0.00
   -9   17    4      1.33      0.00
   -7   17    4      0.73      0.00
   -5   17    4      1.35      0.00
   -3   17    4     -0.09      0.00
   -1   17    4      0.27      0.00
    1   17    4      1.67      0.00
    3   17    4      0.71      0.00
    5   17    4     -0.17      0.00
    7   17    4      1.13      0.00
    9   17    4      1.33      0.00
  -10   18    4     -1.38      0.00
   -8   18    4     -1.41      0.00
   -6   18    4     -0.62      0.00
   -4   18    4      0.09      0.00
   -2   18    4      0.74      0.00
    0   18    4     -0.60      0.00
    2   18    4     -0.31      0.00
    4   18    4      0.53      0.00
    6   18    4      0.14      0.00
    8   18    4     -0.55      0.00
   -9   19    4      1.51      0.00
   -7   19    4      0.76      0.00
   -5   19    4     -0.48      0.00
   -3   19    4     -1.19      0.00
   -1   19    4     -0.21      0.00
    1   19    4     -0.15      0.00
    3   19    4     -0.44      0.00
    5   19    4     -0.32      0.00
    7   19    4     -0.07      0.00
   -8   20    4     -1.32      0.00
   -6   20    4      0.36      0.00
   -4   20    4      1.26      0.00
   -2   20    4      0.61      0.00
    0   20    4     -0.02      0.00
    2   20    4      0.37      0.00
    4   20    4     -0.22      0.00
    6   20    4     -0.09      0.00
   -5   21    4     -1.02      0.00
   -3   21    4     -1.01      0.00
   -1   21    4      0.15      0.00
    1   21    4     -0.25      0.00
    3   21    4      0.33      0.00
   -2   22    4      0.40      0.00
    0   22    4      0.15      0.00
  -17    1    5     -0.97      0.00
  -15    1    5     -1.56      0.00
  -13    1    5     -0.98      0.00
  -11    1    5     -0.43      0.00
   -9    1    5      0.49      0.00
   -7    1    5     -1.03      0.00
   -5    1    5     -4.40      0.00
   -3    1    5     -5.49      0.00
   -1    1    5     -5.29      0.00
    1    1    5     -7.89      0.00
    3    1    5     -6.52      0.00
    5    1    5     -4.18      0.00
    7    1    5     -1.61      0.00
    9    1    5     -1.06      0.00
   11    1    5     -0.46      0.00
   13    1    5      0.22      0.00
   15    1    5      0.09      0.00
  -16    2    5      1.78      0.00
  -14    2    5      1.50      0.00
  -12    2    5      1.27      0.00
  -10    2    5     -0.49      0.00
   -8    2    5     -1.07      0.00
   -6    2    5      2.43      0.00
   -4    2    5      6.60      0.00
   -2    2    5      4.45      0.00
    0    2    5      7.58      0.00
    2    2    5      8.87      0.00
    4    2    5      6.37      0.00
    6    2    5      2.85      0.00
    8    2    5      1.53      0.00
   10    2    5      1.21      0.00
   12    2    5      0.32      0.00
   14    2    5     -0.43      0.00
  -17    3    5     -0.44      0.00
  -15    3    5     -0.62      0.00
  -13    3    5     -0.78      0.00
  -11    3    5     -0.80      0.00
   -9    3    5      2.33      0.00
   -7    3    5      2.03      0.00
   -5    3    5     -1.59      0.00
   -3    3    5     -0.97      0.00
   -1    3    5      0.95      0.00
    1    3    5     -4.00      0.00
    3    3    5     -2.89      0.00
    5    3    5     -1.58      0.00
    7    3    5     -0.03      0.00
    9    3    5     -1.05      0.00
   11    3    5     -1.00      0.00
   13    3    5      0.18      0.00
   15    3    5     -0.11      0.00
  -16    4    5     -0.93      0.00
  -14    4    5     -1.07      0.00
  -12    4    5      0.74      0.00
  -10    4    5     -0.79      0.00
   -8    4    5     -3.71      0.00
   -6    4    5     -3.37      0.00
   -4    4    5     -2.71      0.00
   -2    4    5     -7.51      0.00
    0    4    5     -4.61      0.00
    2    4    5     -2.48      0.00
    4    4    5     -2.32      0.00
    6    4    5     -2.66      0.00
    8    4    5     -0.77      0.00
   10    4    5      0.50      0.00
   12    4    5      0.90      0.00
   14    4    5     -0.41      0.00
  -15    5    5      2.52      0.00
  -13    5    5      1.24      0.00
  -11    5    5     -0.43      0.00
   -9    5    5      2.05      0.00
   -7    5    5      3.44      0.00
   -5    5    5      3.69      0.00
   -3    5    5      6.98      0.00
   -1    5    5      8.88      0.00
    1    5    5      4.93      0.00
    3    5    5      4.21      0.00
    5    5    5      3.91      0.00
    7    5    5      2.79      0.00
    9    5    5      0.72      0.00
   11    5    5     -1.08      0.00
   13    5    5     -0.40      0.00
  -16    6    5     -2.05      0.00
  -14    6    5     -2.57      0.00
  -12    6    5     -0.59      0.00
  -10    6    5     -0.34      0.00
   -8    6    5     -1.28      0.00
   -6    6    5     -0.88      0.00
   -4    6    5     -2.30      0.00
   -2    6    5     -5.50      0.00
    0    6    5     -3.74      0.00
    2    6    5     -1.64      0.00
    4    6    5     -1.54      0.00
    6    6    5     -2.51      0.00
    8    6    5     -0.82      0.00
   10    6    5      0.10      0.00
   12    6    5      1.91      0.00
   14    6    5     -0.11      0.00
  -15    7    5      2.07      0.00
  -13    7    5      1.43      0.00
  -11    7    5      0.30      0.00
   -9    7    5      0.40      0.00
   -7    7    5     -1.34      0.00
   -5    7    5     -2.38      0.00
   -3    7    5     -0.38      0.00
   -1    7    5      0.47      0.00
    1    7    5     -1.44      0.00
    3    7    5     -3.00      0.00
    5    7    5     -0.46      0.00
    7    7    5     -0.48      0.00
    9    7    5     -0.24      0.00
   11    7    5     -1.84      0.00
   13    7    5     -1.42      0.00
  -16    8    5     -0.92      0.00
  -14    8    5     -0.92      0.00
  -12    8    5     -0.11      0.00
  -10    8    5     -0.33      0.00
   -8    8    5      0.32      0.00
   -6    8    5      3.47      0.00
   -4    8    5      3.24      0.00
   -2    8    5      1.77      0.00
    0    8    5      1.51      0.00
    2    8    5      4.81      0.00
    4    8    5      3.94      0.00
    6    8    5      1.53      0.00
    8    8    5      1.68      0.00
   10    8    5      0.79      0.00
   12    8    5      2.34      0.00
   14    8    5      0.67      0.00
  -15    9    5      0.37      0.00
  -13    9    5     -0.81      0.00
  -11    9    5     -0.82      0.00
   -9    9    5      0.86      0.00
   -7    9    5     -0.73      0.00
   -5    9    5     -2.29      0.00
   -3    9    5     -0.81      0.00
   -1    9    5      0.67      0.00
    1    9    5     -1.45      0.00
    3    9    5     -4.86      0.00
    5    9    5     -1.50      0.00
    7    9    5     -1.79      0.00
    9    9    5     -0.53      0.00
   11    9    5     -1.08      0.00
   13    9    5     -1.58      0.00
  -14   10    5      0.96      0.00
  -12   10    5      2.38      0.00
  -10   10    5      0.38      0.00
   -8   10    5     -1.73      0.00
   -6   10    5     -0.33      0.00
   -4   10    5     -1.54      0.00
   -2   10    5     -3.09      0.00
    0   10    5     -3.54      0.00
    2   10    5      1.72      0.00
    4   10    5      0.93      0.00
    6   10    5     -0.19      0.00
    8   10    5      0.41      0.00
   10   10    5     -0.49      0.00
   12   10    5      0.87      0.00
  -15   11    5     -0.46      0.00
  -13   11    5     -2.36      0.00
  -11   11    5     -2.41      0.00
   -9   11    5      1.26      0.00
   -7   11    5      2.01      0.00
   -5   11    5      2.40      0.00
   -3   11    5      4.06      0.00
   -1   11    5      5.38      0.00
    1   11    5      2.94      0.00
    3   11    5      0.26      0.00
    5   11    5      2.10      0.00
    7   11    5      0.38      0.00
    9   11    5      0.71      0.00
   11   11    5      0.62      0.00
   13   11    5     -0.92      0.00
  -14   12    5      1.34      0.00
  -12   12    5      2.68      0.00
  -10   12    5      0.63      0.00
   -8   12    5     -1.87      0.00
   -6   12    5     -1.56      0.00
   -4   12    5     -2.87      0.00
   -2   12    5     -3.47      0.00
    0   12    5     -4.34      0.00
    2   12    5     -2.02      0.00
    4   12    5     -2.64      0.00
    6   12    5     -0.92      0.00
    8   12    5      0.18      0.00
   10   12    5     -0.75      0.00
   12   12    5     -0.13      0.00
  -13   13    5     -1.57      0.00
  -11   13    5     -1.58      0.00
   -9   13    5      0.67      0.00
   -7   13    5      0.54      0.00
   -5   13    5      0.72      0.00
   -3   13    5      0.76      0.00
   -1   13    5      1.55      0.00
    1   13    5      2.43      0.00
    3   13    5      2.47      0.00
    5   13    5      0.67      0.00
    7   13    5     -1.66      0.00
    9   13    5     -0.62      0.00
   11   13    5      0.62      0.00
  -12   14    5      1.12      0.00
  -10   14    5      0.57      0.00
   -8   14    5      0.12      0.00
   -6   14    5      0.77      0.00
   -4   14    5      0.56      0.00
   -2   14    5      1.38      0.00
    0   14    5     -0.47      0.00
    2   14    5     -1.90      0.00
    4   14    5     -0.50      0.00
    6   14    5      2.99      0.00
    8   14    5      2.31      0.00
   10   14    5      0.05      0.00
  -13   15    5     -0.58      0.00
  -11   15    5     -0.81      0.00
   -9   15    5     -0.82      0.00
   -7   15    5     -1.27      0.00
   -5   15    5     -0.85      0.00
   -3   15    5     -1.68      0.00
   -1   15    5     -1.47      0.00
    1   15    5      0.61      0.00
    3   15    5      0.77      0.00
    5   15    5     -2.94      0.00
    7   15    5     -3.37      0.00
    9   15    5     -0.92      0.00
  -12   16    5      0.38      0.00
  -10   16    5      1.02      0.00
   -8   16    5      1.37      0.00
   -6   16    5      1.01      0.00
   -4   16    5      0.85      0.00
   -2   16    5      1.55      0.00
    0   16    5      0.51      0.00
    2   16    5     -0.60      0.00
    4   16    5      1.39      0.00
    6   16    5      3.20      0.00
    8   16    5      1.15      0.00
   10   16    5     -0.17      0.00
  -11   17    5     -0.41      0.00
   -9   17    5     -1.14      0.00
   -7   17    5     -1.05      0.00
   -5   17    5     -0.59      0.00
   -3   17    5     -1.14      0.00
   -1   17    5     -0.63      0.00
    1   17    5     -0.21      0.00
    3   17    5     -0.09      0.00
    5   17    5     -1.77      0.00
    7   17    5     -0.88      0.00
    9   17    5      0.48      0.00
  -10   18    5      0.41      0.00
   -8   18    5      0.85      0.00
   -6   18    5      0.56      0.00
   -4   18    5      1.24      0.00
   -2   18    5      0.69      0.00
    0   18    5      0.48      0.00
    2   18    5      0.40      0.00
    4   18    5      0.25      0.00
    6   18    5      0.40      0.00
    8   18    5     -0.77      0.00
   -9   19    5     -0.37      0.00
   -7   19    5     -0.51      0.00
   -5   19    5     -1.01      0.00
   -3   19    5     -1.32      0.00
   -1   19    5     -0.03      0.00
    1   19    5     -0.96      0.00
    3   19    5      0.03      0.00
    5   19    5      0.24      0.00
   -6   20    5      0.47      0.00
   -4   20    5      1.44      0.00
   -2   20    5     -0.01      0.00
    0   20    5      0.25      0.00
    2   20    5      0.44      0.00
    4   20    5     -0.73      0.00
   -5   21    5     -0.74      0.00
   -3   21    5     -0.51      0.00
   -1   21    5      0.66      0.00
    1   21    5     -0.31      0.00
    3   21    5      0.71      0.00
  -16    0    6     -0.50      0.00
  -14    0    6     -1.84      0.00
  -12    0    6      2.17      0.00
  -10    0    6      5.85      0.00
   -8    0    6      1.39      0.00
   -6    0    6     -0.50      0.00
   -4    0    6     -5.18      0.00
   -2    0    6     -2.77      0.00
    0    0    6     -1.81      0.00
    2    0    6     -6.95      0.00
    4    0    6     -5.24      0.00
    6    0    6     -1.38      0.00
    8    0    6     -0.98      0.00
   10    0    6     -0.28      0.00
   12    0    6      0.67      0.00
   14    0    6      0.51      0.00
  -15    1    6      0.81      0.00
  -13    1    6      1.21      0.00
  -11    1    6     -4.54      0.00
   -9    1    6     -2.60      0.00
   -7    1    6     -0.76      0.00
   -5    1    6      2.13      0.00
   -3    1    6      2.77      0.00
   -1    1    6     -0.52      0.00
    1    1    6      2.04      0.00
    3    1    6      5.23      0.00
    5    1    6      1.11      0.00
    7    1    6      0.65      0.00
    9    1    6      0.34      0.00
   11    1    6     -0.01      0.00
   13    1    6     -0.69      0.00
  -16    2    6      0.48      0.00
  -14    2    6     -1.18      0.00
  -12    2    6      0.29      0.00
  -10    2    6      2.41      0.00
   -8    2    6     -0.15      0.00
   -6    2    6      0.85      0.00
   -4    2    6     -0.22      0.00
   -2    2    6      3.42      0.00
    0    2    6      4.06      0.00
    2    2    6      0.27      0.00
    4    2    6      0.71      0.00
    6    2    6      1.40      0.00
    8    2    6      0.46      0.00
   10    2    6     -0.37      0.00
   12    2    6      0.19      0.00
   14    2    6      0.43      0.00
  -15    3    6     -0.77      0.00
  -13    3    6      1.01      0.00
  -11    3    6     -0.55      0.00
   -9    3    6      0.88      0.00
   -7    3    6      0.24      0.00
   -5    3    6     -1.22      0.00
   -3    3    6     -4.04      0.00
   -1    3    6     -7.06      0.00
    1    3    6     -4.62      0.00
    3    3    6     -3.24      0.00
    5    3    6     -3.06      0.00
    7    3    6     -1.82      0.00
    9    3    6     -0.40      0.00
   11    3    6      0.84      0.00
   13    3    6     -0.06      0.00
  -16    4    6      1.35      0.00
  -14    4    6      0.71      0.00
  -12    4    6     -0.10      0.00
  -10    4    6     -0.24      0.00
   -8    4    6     -1.80      0.00
   -6    4    6     -0.30      0.00
   -4    4    6      1.40      0.00
   -2    4    6      5.69      0.00
    0    4    6      4.42      0.00
    2    4    6      2.87      0.00
    4    4    6      2.73      0.00
    6    4    6      1.65      0.00
    8    4    6      1.41      0.00
   10    4    6     -0.95      0.00
   12    4    6     -1.28      0.00
   14    4    6      0.01      0.00
  -15    5    6     -1.58      0.00
  -13    5    6     -0.93      0.00
  -11    5    6     -0.86      0.00
   -9    5    6      0.60      0.00
   -7    5    6      1.58      0.00
   -5    5    6      1.64      0.00
   -3    5    6     -1.02      0.00
   -1    5    6     -2.25      0.00
    1    5    6      0.81      0.00
    3    5    6     -0.50      0.00
    5    5    6      0.45      0.00
    7    5    6     -0.81      0.00
    9    5    6      0.16      0.00
   11    5    6      2.18      0.00
   13    5    6      1.32      0.00
  -16    6    6      0.78      0.00
  -14    6    6      1.34      0.00
  -12    6    6      1.32      0.00
  -10    6    6      1.11      0.00
   -8    6    6     -0.51      0.00
   -6    6    6     -1.72      0.00
   -4    6    6     -2.52      0.00
   -2    6    6      0.06      0.00
    0    6    6     -2.95      0.00
    2    6    6     -2.56      0.00
    4    6    6     -1.85      0.00
    6    6    6     -1.12      0.00
    8    6    6      0.21      0.00
   10    6    6     -1.57      0.00
   12    6    6     -2.44      0.00
  -15    7    6     -0.74      0.00
  -13    7    6     -0.75      0.00
  -11    7    6     -1.20      0.00
   -9    7    6     -0.36      0.00
   -7    7    6     -0.06      0.00
   -5    7    6      1.56      0.00
   -3    7    6      1.19      0.00
   -1    7    6      1.33      0.00
    1    7    6      3.66      0.00
    3    7    6      1.31      0.00
    5    7    6      1.79      0.00
    7    7    6     -0.26      0.00
    9    7    6      0.52      0.00
   11    7    6      1.50      0.00
   13    7    6      1.30      0.00
  -14    8    6      0.16      0.00
  -12    8    6      0.30      0.00
  -10    8    6     -0.07      0.00
   -8    8    6     -0.19      0.00
   -6    8    6      1.20      0.00
   -4    8    6     -0.33      0.00
   -2    8    6      0.95      0.00
    0    8    6     -1.20      0.00
    2    8    6      0.23      0.00
    4    8    6     -0.02      0.00
    6    8    6      0.83      0.00
    8    8    6      0.52      0.00
   10    8    6      0.24      0.00
   12    8    6     -0.50      0.00
  -15    9    6     -0.13      0.00
  -13    9    6      0.22      0.00
  -11    9    6      0.18      0.00
   -9    9    6      1.83      0.00
   -7    9    6     -0.82      0.00
   -5    9    6     -1.54      0.00
   -3    9    6     -1.21      0.00
   -1    9    6     -1.73      0.00
    1    9    6     -1.92      0.00
    3    9    6     -2.67      0.00
    5    9    6     -1.60      0.00
    7    9    6     -1.95      0.00
    9    9    6     -0.80      0.00
   11    9    6     -1.32      0.00
   13    9    6     -0.57      0.00
  -14   10    6      0.16      0.00
  -12   10    6      0.12      0.00
  -10   10    6     -1.30      0.00
   -8   10    6     -1.88      0.00
   -6   10    6      1.63      0.00
   -4   10    6      0.30      0.00
   -2   10    6      1.29      0.00
    0   10    6      2.37      0.00
    2   10    6      4.25      0.00
    4   10    6      2.09      0.00
    6   10    6      2.49      0.00
    8   10    6      0.95      0.00
   10   10    6      1.54      0.00
   12   10    6      1.38      0.00
  -13   11    6     -0.40      0.00
  -11   11    6     -0.40      0.00
   -9   11    6      2.13      0.00
   -7   11    6      0.29      0.00
   -5   11    6      0.11      0.00
   -3   11    6      1.43      0.00
   -1   11    6     -0.25      0.00
    1   11    6     -3.29      0.00
    3   11    6     -2.40      0.00
    5   11    6     -1.05      0.00
    7   11    6     -1.10      0.00
    9   11    6     -0.37      0.00
   11   11    6     -1.24      0.00
  -14   12    6      0.63      0.00
  -12   12    6      0.69      0.00
  -10   12    6     -0.03      0.00
   -8   12    6     -1.39      0.00
   -6   12    6     -0.07      0.00
   -4   12    6     -2.67      0.00
   -2   12    6     -2.59      0.00
    0   12    6     -0.06      0.00
    2   12    6      1.91      0.00
    4   12    6     -0.71      0.00
    6   12    6     -0.05      0.00
    8   12    6     -0.25      0.00
   10   12    6      0.07      0.00
  -13   13    6     -0.39      0.00
  -11   13    6     -0.75      0.00
   -9   13    6      0.52      0.00
   -7   13    6      0.31      0.00
   -5   13    6      1.69      0.00
   -3   13    6      3.27      0.00
   -1   13    6      2.76      0.00
    1   13    6      0.09      0.00
    3   13    6      0.97      0.00
    5   13    6      1.84      0.00
    7   13    6      0.60      0.00
    9   13    6      0.33      0.00
   11   13    6      0.24      0.00
  -12   14    6      0.21      0.00
  -10   14    6      0.37      0.00
   -8   14    6     -0.51      0.00
   -6   14    6     -0.57      0.00
   -4   14    6     -2.15      0.00
   -2   14    6     -2.35      0.00
    0   14    6     -1.96      0.00
    2   14    6     -0.51      0.00
    4   14    6     -1.79      0.00
    6   14    6     -1.14      0.00
    8   14    6      0.13      0.00
   10   14    6     -0.39      0.00
  -11   15    6     -0.36      0.00
   -9   15    6      0.27      0.00
   -7   15    6      0.29      0.00
   -5   15    6      1.06      0.00
   -3   15    6      0.71      0.00
   -1   15    6      1.38      0.00
    1   15    6      0.51      0.00
    3   15    6      0.02      0.00
    5   15    6      0.55      0.00
    7   15    6     -0.36      0.00
    9   15    6     -0.50      0.00
  -10   16    6      0.16      0.00
   -8   16    6     -0.27      0.00
   -6   16    6     -0.13      0.00
   -4   16    6     -0.20      0.00
   -2   16    6      0.49      0.00
    0   16    6     -0.23      0.00
    2   16    6      1.12      0.00
    4   16    6      1.13      0.00
    6   16    6      0.73      0.00
    8   16    6      1.07      0.00
   -9   17    6      0.23      0.00
   -7   17    6     -0.63      0.00
   -5   17    6     -0.23      0.00
   -3   17    6     -1.02      0.00
   -1   17    6     -0.80      0.00
    1   17    6     -1.08      0.00
    3   17    6     -1.83      0.00
    5   17    6     -1.42      0.00
    7   17    6     -1.06      0.00
   -8   18    6      0.33      0.00
   -6   18    6      1.31      0.00
   -4   18    6      0.73      0.00
   -2   18    6      1.24      0.00
    0   18    6      1.13      0.00
    2   18    6      1.26      0.00
    4   18    6      1.26      0.00
    6   18    6      1.00      0.00
   -7   19    6     -1.30      0.00
   -5   19    6     -1.11      0.00
   -3   19    6     -0.67      0.00
   -1   19    6     -1.06      0.00
    1   19    6     -1.03      0.00
    3   19    6     -0.26      0.00
    5   19    6     -0.62      0.00
   -6   20    6      1.22      0.00
   -4   20    6      0.38      0.00
   -2   20    6      0.16      0.00
    0   20    6      1.03      0.00
    2   20    6     -0.04      0.00
   -1   21    6     -0.10      0.00
  -15    1    7      0.27      0.00
  -13    1    7     -0.60      0.00
  -11    1    7     -1.58      0.00
   -9    1    7     -1.69      0.00
   -7    1    7     -1.57      0.00
   -5    1    7      0.05      0.00
   -3    1    7      0.98      0.00
   -1    1    7      0.65      0.00
    1    1    7      2.82      0.00
    3    1    7      2.78      0.00
    5    1    7      2.17      0.00
    7    1    7      1.13      0.00
    9    1    7      0.43      0.00
   11    1    7      0.39      0.00
   13    1    7      0.21      0.00
  -16    2    7     -0.04      0.00
  -14    2    7     -0.24      0.00
  -12    2    7      1.73      0.00
  -10    2    7      1.79      0.00
   -8    2    7      2.23      0.00
   -6    2    7      1.34      0.00
   -4    2    7     -0.81      0.00
   -2    2    7      0.03      0.00
    0    2    7     -1.21      0.00
    2    2    7     -3.75      0.00
    4    2    7     -2.40      0.00
    6    2    7     -2.04      0.00
    8    2    7     -0.62      0.00
   10    2    7     -0.54      0.00
   12    2    7     -0.66      0.00
  -15    3    7      0.72      0.00
  -13    3    7     -0.71      0.00
  -11    3    7     -1.03      0.00
   -9    3    7     -0.65      0.00
   -7    3    7     -1.52      0.00
   -5    3    7     -0.53      0.00
   -3    3    7     -0.54      0.00
   -1    3    7     -2.58      0.00
    1    3    7      0.94      0.00
    3    3    7      0.64      0.00
    5    3    7      0.70      0.00
    7    3    7      0.28      0.00
    9    3    7      0.19      0.00
   11    3    7      0.66      0.00
   13    3    7      0.54      0.00
  -16    4    7     -0.52      0.00
  -14    4    7      0.00      0.00
  -12    4    7      0.69      0.00
  -10    4    7     -0.87      0.00
   -8    4    7     -0.15      0.00
   -6    4    7      0.80      0.00
   -4    4    7      0.93      0.00
   -2    4    7      3.73      0.00
    0    4    7      3.50      0.00
    2    4    7      1.26      0.00
    4    4    7      1.75      0.00
    6    4    7      0.58      0.00
    8    4    7      0.54      0.00
   10    4    7     -0.18      0.00
   12    4    7     -0.98      0.00
  -15    5    7      0.16      0.00
  -13    5    7     -1.11      0.00
  -11    5    7      0.66      0.00
   -9    5    7      1.18      0.00
   -7    5    7      0.08      0.00
   -5    5    7     -0.65      0.00
   -3    5    7     -2.19      0.00
   -1    5    7     -4.64      0.00
    1    5    7     -2.53      0.00
    3    5    7     -2.12      0.00
    5    5    7     -0.98      0.00
    7    5    7     -0.77      0.00
    9    5    7     -0.14      0.00
   11    5    7      0.78      0.00
   13    5    7      0.81      0.00
  -14    6    7      1.61      0.00
  -12    6    7      0.65      0.00
  -10    6    7     -0.84      0.00
   -8    6    7      0.00      0.00
   -6    6    7      0.07      0.00
   -4    6    7      0.41      0.00
   -2    6    7      2.03      0.00
    0    6    7      2.03      0.00
    2    6    7      0.67      0.00
    4    6    7     -0.29      0.00
    6    6    7     -0.11      0.00
    8    6    7     -0.09      0.00
   10    6    7     -0.56      0.00
   12    6    7     -1.75      0.00
  -15    7    7     -1.17      0.00
  -13    7    7     -2.31      0.00
  -11    7    7      0.42      0.00
   -9    7    7     -0.55      0.00
   -7    7    7     -0.55      0.00
   -5    7    7      0.39      0.00
   -3    7    7      0.38      0.00
   -1    7    7      0.20      0.00
    1    7    7      0.62      0.00
    3    7    7      1.99      0.00
    5    7    7      1.78      0.00
    7    7    7      0.56      0.00
    9    7    7      0.74      0.00
   11    7    7      1.87      0.00
  -14    8    7      2.83      0.00
  -12    8    7      0.87      0.00
  -10    8    7     -0.42      0.00
   -8    8    7      1.28      0.00
   -6    8    7     -0.08      0.00
   -4    8    7     -0.74      0.00
   -2    8    7     -1.23      0.00
    0    8    7     -1.32      0.00
    2    8    7     -1.76      0.00
    4    8    7     -2.87      0.00
    6    8    7     -0.69      0.00
    8    8    7     -0.77      0.00
   10    8    7     -1.23      0.00
   12    8    7     -2.36      0.00
  -15    9    7     -1.27      0.00
  -13    9    7     -2.88      0.00
  -11    9    7      1.04      0.00
   -9    9    7     -0.14      0.00
   -7    9    7     -0.62      0.00
   -5    9    7      0.37      0.00
   -3    9    7     -0.07      0.00
   -1    9    7      0.65      0.00
    1    9    7     -0.03      0.00
    3    9    7      1.82      0.00
    5    9    7      0.42      0.00
    7    9    7     -0.05      0.00
    9    9    7      0.43      0.00
   11    9    7      1.89      0.00
  -14   10    7      2.58      0.00
  -12   10    7      0.97      0.00
  -10   10    7     -1.73      0.00
   -8   10    7      0.39      0.00
   -6   10    7     -0.06      0.00
   -4   10    7      1.02      0.00
   -2   10    7      1.65      0.00
    0   10    7      1.67      0.00
    2   10    7      0.93      0.00
    4   10    7      0.16      0.00
    6   10    7      1.57      0.00
    8   10    7      0.19      0.00
   10   10    7     -0.46      0.00
  -13   11    7     -2.56      0.00
  -11   11    7      1.26      0.00
   -9   11    7      0.90      0.00
   -7   11    7     -0.40      0.00
   -5   11    7     -0.43      0.00
   -3   11    7     -2.88      0.00
   -1   11    7     -2.79      0.00
    1   11    7     -2.74      0.00
    3   11    7     -1.03      0.00
    5   11    7     -2.58      0.00
    7   11    7     -1.07      0.00
    9   11    7     -0.37      0.00
   11   11    7      0.74      0.00
  -12   12    7      0.64      0.00
  -10   12    7     -1.63      0.00
   -8   12    7      0.50      0.00
   -6   12    7      0.19      0.00
   -4   12    7      1.42      0.00
   -2   12    7      2.81      0.00
    0   12    7      2.34      0.00
    2   12    7      1.35      0.00
    4   12    7      2.16      0.00
    6   12    7      2.28      0.00
    8   12    7      0.31      0.00
   10   12    7     -0.08      0.00
  -13   13    7     -0.86      0.00
  -11   13    7      1.04      0.00
   -9   13    7      0.17      0.00
   -7   13    7     -0.73      0.00
   -5   13    7      0.35      0.00
   -3   13    7     -1.02      0.00
   -1   13    7     -0.87      0.00
    1   13    7     -0.42      0.00
    3   13    7     -0.68      0.00
    5   13    7     -2.54      0.00
    7   13    7     -0.47      0.00
    9   13    7      0.14      0.00
  -12   14    7     -0.53      0.00
  -10   14    7     -0.75      0.00
   -8   14    7      0.61      0.00
   -6   14    7     -0.61      0.00
   -4   14    7     -1.11      0.00
   -2   14    7     -0.60      0.00
    0   14    7     -0.69      0.00
    2   14    7     -0.57      0.00
    4   14    7      1.36      0.00
    6   14    7      0.93      0.00
    8   14    7     -0.46      0.00
  -11   15    7      0.90      0.00
   -9   15    7      0.12      0.00
   -7   15    7      0.52      0.00
   -5   15    7      1.81      0.00
   -3   15    7      1.59      0.00
   -1   15    7      0.92      0.00
    1   15    7      0.40      0.00
    3   15    7     -0.30      0.00
    5   15    7     -0.88      0.00
    7   15    7      0.39      0.00
  -10   16    7     -0.50      0.00
   -8   16    7     -0.79      0.00
   -6   16    7     -1.60      0.00
   -4   16    7     -1.57      0.00
   -2   16    7     -0.67      0.00
    0   16    7      0.92      0.00
    2   16    7      0.81      0.00
    4   16    7      0.64      0.00
    6   16    7     -0.22      0.00
   -9   17    7      0.69      0.00
   -7   17    7      1.39      0.00
   -5   17    7      0.96      0.00
   -3   17    7      0.27      0.00
   -1   17    7     -1.73      0.00
    1   17    7     -2.33      0.00
    3   17    7     -0.83      0.00
    5   17    7      0.14      0.00
   -8   18    7     -0.93      0.00
   -6   18    7     -0.61      0.00
   -4   18    7      0.23      0.00
   -2   18    7      1.37      0.00
    0   18    7      3.12      0.00
    2   18    7      1.24      0.00
    4   18    7     -0.20      0.00
   -5   19    7     -0.32      0.00
   -3   19    7     -0.66      0.00
   -1   19    7     -2.40      0.00
    1   19    7     -1.56      0.00
    3   19    7      0.58      0.00
   -4   20    7      0.07      0.00
   -2   20    7      0.88      0.00
    0   20    7      1.57      0.00
  -14    0    8      2.59      0.00
  -12    0    8      2.90      0.00
  -10    0    8     -2.99      0.00
   -8    0    8     -0.52      0.00
   -6    0    8      0.74      0.00
   -4    0    8     -1.19      0.00
   -2    0    8      0.88      0.00
    0    0    8      1.31      0.00
    2    0    8      2.29      0.00
    4    0    8      6.50      0.00
    6    0    8      2.19      0.00
    8    0    8      1.61      0.00
   10    0    8      1.37      0.00
   12    0    8     -1.06      0.00
  -15    1    8     -1.04      0.00
  -13    1    8     -3.29      0.00
  -11    1    8     -0.30      0.00
   -9    1    8      1.81      0.00
   -7    1    8     -2.00      0.00
   -5    1    8      0.38      0.00
   -3    1    8      0.83      0.00
   -1    1    8     -0.68      0.00
    1    1    8      0.11      0.00
    3    1    8     -3.62      0.00
    5    1    8     -3.49      0.00
    7    1    8     -0.46      0.00
    9    1    8     -1.90      0.00
   11    1    8     -0.18      0.00
  -14    2    8      0.71      0.00
  -12    2    8      2.68      0.00
  -10    2    8     -0.18      0.00
   -8    2    8      2.54      0.00
   -6    2    8      2.39      0.00
   -4    2    8     -1.19      0.00
   -2    2    8     -1.39      0.00
    0    2    8     -1.81      0.00
    2    2    8     -1.22      0.00
    4    2    8      1.38      0.00
    6    2    8     -0.83      0.00
    8    2    8      0.47      0.00
   10    2    8      1.50      0.00
   12    2    8     -0.29      0.00
  -15    3    8      1.23      0.00
  -13    3    8     -1.15      0.00
  -11    3    8     -1.78      0.00
   -9    3    8     -2.01      0.00
   -7    3    8     -4.35      0.00
   -5    3    8     -0.88      0.00
   -3    3    8      1.72      0.00
   -1    3    8      2.66      0.00
    1    3    8      2.91      0.00
    3    3    8      1.49      0.00
    5    3    8      1.85      0.00
    7    3    8      1.64      0.00
    9    3    8     -1.15      0.00
   11    3    8     -0.85      0.00
  -14    4    8     -1.44      0.00
  -12    4    8      1.69      0.00
  -10    4    8      1.26      0.00
   -8    4    8      3.25      0.00
   -6    4    8      2.78      0.00
   -4    4    8     -0.04      0.00
   -2    4    8     -1.61      0.00
    0    4    8     -2.17      0.00
    2    4    8     -0.94      0.00
    4    4    8     -1.64      0.00
    6    4    8     -2.30      0.00
    8    4    8     -0.42      0.00
   10    4    8      1.23      0.00
   12    4    8      0.15      0.00
  -15    5    8      1.98      0.00
  -13    5    8      0.07      0.00
  -11    5    8     -1.13      0.00
   -9    5    8     -1.00      0.00
   -7    5    8     -2.52      0.00
   -5    5    8     -1.20      0.00
   -3    5    8     -0.52      0.00
   -1    5    8      0.64      0.00
    1    5    8     -1.05      0.00
    3    5    8     -0.90      0.00
    5    5    8      1.39      0.00
    7    5    8      1.41      0.00
    9    5    8     -0.56      0.00
   11    5    8     -0.48      0.00
  -14    6    8     -1.72      0.00
  -12    6    8      0.77      0.00
  -10    6    8      0.14      0.00
   -8    6    8      1.32      0.00
   -6    6    8      1.49      0.00
   -4    6    8      1.04      0.00
   -2    6    8      1.04      0.00
    0    6    8      1.10      0.00
    2    6    8      3.33      0.00
    4    6    8      0.33      0.00
    6    6    8     -1.49      0.00
    8    6    8     -0.67      0.00
   10    6    8      0.84      0.00
   12    6    8     -0.20      0.00
  -15    7    8      1.49      0.00
  -13    7    8      0.68      0.00
  -11    7    8     -0.16      0.00
   -9    7    8     -0.34      0.00
   -7    7    8     -2.00      0.00
   -5    7    8     -0.43      0.00
   -3    7    8     -1.08      0.00
   -1    7    8     -0.35      0.00
    1    7    8     -2.18      0.00
    3    7    8     -1.67      0.00
    5    7    8      1.38      0.00
    7    7    8      1.92      0.00
    9    7    8     -0.79      0.00
   11    7    8     -0.34      0.00
  -14    8    8     -1.25      0.00
  -12    8    8     -0.40      0.00
  -10    8    8     -0.68      0.00
   -8    8    8      1.72      0.00
   -6    8    8      1.05      0.00
   -4    8    8     -0.66      0.00
   -2    8    8      0.04      0.00
    0    8    8     -0.68      0.00
    2    8    8      0.81      0.00
    4    8    8     -1.23      0.00
    6    8    8     -2.64      0.00
    8    8    8     -0.38      0.00
   10    8    8      1.64      0.00
  -13    9    8      0.51      0.00
  -11    9    8      1.19      0.00
   -9    9    8      0.39      0.00
   -7    9    8     -1.85      0.00
   -5    9    8      1.40      0.00
   -3    9    8      0.87      0.00
   -1    9    8      1.31      0.00
    1    9    8      1.32      0.00
    3    9    8      1.29      0.00
    5    9    8      2.35      0.00
    7    9    8      1.91      0.00
    9    9    8     -2.01      0.00
   11    9    8     -0.84      0.00
  -14   10    8      0.77      0.00
  -12   10    8     -0.28      0.00
  -10   10    8     -1.87      0.00
   -8   10    8      0.52      0.00
   -6   10    8     -0.35      0.00
   -4   10    8     -1.99      0.00
   -2   10    8     -0.33      0.00
    0   10    8     -1.49      0.00
    2   10    8     -1.53      0.00
    4   10    8     -1.45      0.00
    6   10    8     -2.12      0.00
    8   10    8      0.53      0.00
   10   10    8      1.81      0.00
  -13   11    8     -1.23      0.00
  -11   11    8      0.80      0.00
   -9   11    8      1.20      0.00
   -7   11    8     -0.41      0.00
   -5   11    8      1.75      0.00
   -3   11    8      0.03      0.00
   -1   11    8     -0.23      0.00
    1   11    8      0.84      0.00
    3   11    8      0.77      0.00
    5   11    8      0.90      0.00
    7   11    8      0.99      0.00
    9   11    8     -1.36      0.00
  -12   12    8      0.75      0.00
  -10   12    8     -0.94      0.00
   -8   12    8      0.22      0.00
   -6   12    8     -0.43      0.00
   -4   12    8     -0.22      0.00
   -2   12    8      1.18      0.00
    0   12    8      0.34      0.00
    2   12    8     -0.28      0.00
    4   12    8      0.12      0.00
    6   12    8     -0.93      0.00
    8   12    8      0.13      0.00
  -11   13    8      0.09      0.00
   -9   13    8     -0.02      0.00
   -7   13    8     -0.63      0.00
   -5   13    8      0.19      0.00
   -3   13    8     -0.99      0.00
   -1   13    8     -0.19      0.00
    1   13    8      0.05      0.00
    3   13    8     -0.07      0.00
    5   13    8      0.20      0.00
    7   13    8      0.42      0.00
  -10   14    8     -0.18      0.00
   -8   14    8      0.83      0.00
   -6   14    8     -0.10      0.00
   -4   14    8      0.32      0.00
   -2   14    8     -0.69      0.00
    0   14    8     -0.99      0.00
    2   14    8     -0.33      0.00
    4   14    8     -0.22      0.00
    6   14    8     -0.54      0.00
    8   14    8      0.31      0.00
   -9   15    8     -0.31      0.00
   -7   15    8     -0.08      0.00
   -5   15    8      0.88      0.00
   -3   15    8      0.93      0.00
   -1   15    8      2.38      0.00
    1   15    8      0.75      0.00
    3   15    8      0.46      0.00
    5   15    8      0.94      0.00
    7   15    8     -0.08      0.00
   -8   16    8      0.30      0.00
   -6   16    8     -1.45      0.00
   -4   16    8     -1.41      0.00
   -2   16    8     -2.29      0.00
    0   16    8     -1.27      0.00
    2   16    8      0.00      0.00
    4   16    8     -1.02      0.00
    6   16    8     -0.94      0.00
   -7   17    8      0.48      0.00
   -5   17    8      2.00      0.00
   -3   17    8      1.42      0.00
   -1   17    8      1.09      0.00
    1   17    8     -0.62      0.00
    3   17    8      0.22      0.00
    5   17    8      1.44      0.00
   -6   18    8     -1.08      0.00
   -4   18    8     -1.28      0.00
   -2   18    8     -0.25      0.00
    0   18    8      0.87      0.00
    2   18    8      0.57      0.00
   -3   19    8      0.14      0.00
   -1   19    8     -0.99      0.00
  -15    1    9      0.29      0.00
  -13    1    9      0.62      0.00
  -11    1    9      1.20      0.00
   -9    1    9      0.60      0.00
   -7    1    9      0.43      0.00
   -5    1    9      0.13      0.00
   -3    1    9     -1.31      0.00
   -1    1    9     -0.65      0.00
    1    1    9     -0.77      0.00
    3    1    9     -2.20      0.00
    5    1    9     -1.07      0.00
    7    1    9     -0.38      0.00
    9    1    9      0.05      0.00
   11    1    9     -0.28      0.00
  -14    2    9     -0.74      0.00
  -12    2    9     -1.29      0.00
  -10    2    9     -0.76      0.00
   -8    2    9      0.20      0.00
   -6    2    9     -0.53      0.00
   -4    2    9      0.59      0.00
   -2    2    9      1.39      0.00
    0    2    9     -0.73      0.00
    2    2    9      1.80      0.00
    4    2    9      1.76      0.00
    6    2    9      0.47      0.00
    8    2    9     -0.04      0.00
   10    2    9      0.38      0.00
  -15    3    9      1.02      0.00
  -13    3    9      0.88      0.00
  -11    3    9      0.33      0.00
   -9    3    9     -1.32      0.00
   -7    3    9     -0.62      0.00
   -5    3    9      0.56      0.00
   -3    3    9     -0.66      0.00
   -1    3    9      1.39      0.00
    1    3    9      1.94      0.00
    3    3    9     -0.65      0.00
    5    3    9      0.63      0.00
    7    3    9      0.29      0.00
    9    3    9     -0.12      0.00
   11    3    9     -1.27      0.00
  -14    4    9     -0.68      0.00
  -12    4    9     -0.03      0.00
  -10    4    9      1.69      0.00
   -8    4    9      1.75      0.00
   -6    4    9     -0.01      0.00
   -4    4    9     -0.62      0.00
   -2    4    9     -0.85      0.00
    0    4    9     -4.11      0.00
    2    4    9     -2.34      0.00
    4    4    9     -1.98      0.00
    6    4    9     -1.40      0.00
    8    4    9     -0.26      0.00
   10    4    9      1.09      0.00
  -15    5    9      0.38      0.00
  -13    5    9     -0.07      0.00
  -11    5    9     -1.25      0.00
   -9    5    9     -1.43      0.00
   -7    5    9     -0.28      0.00
   -5    5    9      0.42      0.00
   -3    5    9      0.51      0.00
   -1    5    9      2.43      0.00
    1    5    9      3.95      0.00
    3    5    9      2.58      0.00
    5    5    9      2.28      0.00
    7    5    9      0.65      0.00
    9    5    9     -0.31      0.00
   11    5    9     -1.47      0.00
  -14    6    9      0.38      0.00
  -12    6    9      0.49      0.00
  -10    6    9      0.97      0.00
   -8    6    9     -0.78      0.00
   -6    6    9     -0.15      0.00
   -4    6    9      0.05      0.00
   -2    6    9     -0.18      0.00
    0    6    9     -2.04      0.00
    2    6    9     -2.01      0.00
    4    6    9     -1.62      0.00
    6    6    9     -0.73      0.00
    8    6    9     -0.26      0.00
   10    6    9      0.33      0.00
  -13    7    9      0.06      0.00
  -11    7    9     -0.43      0.00
   -9    7    9      0.76      0.00
   -7    7    9      1.11      0.00
   -5    7    9     -0.76      0.00
   -3    7    9     -0.73      0.00
   -1    7    9     -0.37      0.00
    1    7    9      0.32      0.00
    3    7    9      0.25      0.00
    5    7    9      0.04      0.00
    7    7    9      0.19      0.00
    9    7    9      0.67      0.00
  -14    8    9     -0.29      0.00
  -12    8    9     -1.02      0.00
  -10    8    9      0.03      0.00
   -8    8    9     -1.20      0.00
   -6    8    9      0.55      0.00
   -4    8    9      1.40      0.00
   -2    8    9      1.01      0.00
    0    8    9      0.81      0.00
    2    8    9      0.47      0.00
    4    8    9      0.62      0.00
    6    8    9      0.24      0.00
    8    8    9     -0.38      0.00
   10    8    9     -1.18      0.00
  -13    9    9      1.70      0.00
  -11    9    9      1.17      0.00
   -9    9    9      0.08      0.00
   -7    9    9     -0.07      0.00
   -5    9    9     -1.68      0.00
   -3    9    9     -1.66      0.00
   -1    9    9     -0.71      0.00
    1    9    9     -0.19      0.00
    3    9    9     -0.10      0.00
    5    9    9     -0.30      0.00
    7    9    9     -0.39      0.00
    9    9    9      0.48      0.00
  -12   10    9     -2.55      0.00
  -10   10    9     -0.51      0.00
   -8   10    9      0.30      0.00
   -6   10    9      0.88      0.00
   -4   10    9      2.44      0.00
   -2   10    9      1.57      0.00
    0   10    9     -0.34      0.00
    2   10    9     -1.03      0.00
    4   10    9     -0.45      0.00
    6   10    9      0.16      0.00
    8   10    9      1.27      0.00
  -11   11    9      1.87      0.00
   -9   11    9     -0.41      0.00
   -7   11    9     -0.29      0.00
   -5   11    9     -1.39      0.00
   -3   11    9     -3.29      0.00
   -1   11    9     -0.56      0.00
    1   11    9      1.47      0.00
    3   11    9      1.29      0.00
    5   11    9      0.76      0.00
    7   11    9     -1.20      0.00
  -12   12    9     -1.19      0.00
  -10   12    9     -0.05      0.00
   -8   12    9      0.84      0.00
   -6   12    9     -0.16      0.00
   -4   12    9      2.61      0.00
   -2   12    9      2.68      0.00
    0   12    9     -0.78      0.00
    2   12    9     -1.38      0.00
    4   12    9     -1.06      0.00
    6   12    9     -0.48      0.00
    8   12    9      1.32      0.00
  -11   13    9      0.09      0.00
   -9   13    9     -1.53      0.00
   -7   13    9     -0.29      0.00
   -5   13    9     -0.14      0.00
   -3   13    9     -2.95      0.00
   -1   13    9     -0.64      0.00
    1   13    9      1.12      0.00
    3   13    9      0.68      0.00
    5   13    9      1.24      0.00
    7   13    9      0.14      0.00
  -10   14    9      1.41      0.00
   -8   14    9      1.65      0.00
   -6   14    9     -0.44      0.00
   -4   14    9      0.85      0.00
   -2   14    9      1.43      0.00
    0   14    9     -0.76      0.00
    2   14    9     -0.72      0.00
    4   14    9     -0.84      0.00
    6   14    9     -1.05      0.00
   -9   15    9     -1.77      0.00
   -7   15    9     -0.69      0.00
   -5   15    9      0.44      0.00
   -3   15    9     -0.72      0.00
   -1   15    9      0.05      0.00
    1   15    9      1.03      0.00
    3   15    9      0.87      0.00
    5   15    9      0.90      0.00
   -8   16    9      1.03      0.00
   -6   16    9      0.03      0.00
   -4   16    9     -0.11      0.00
   -2   16    9      0.38      0.00
    0   16    9     -0.42      0.00
    2   16    9     -1.24      0.00
    4   16    9     -1.06      0.00
   -5   17    9     -0.03      0.00
   -3   17    9     -0.19      0.00
   -1   17    9     -0.57      0.00
    1   17    9      0.67      0.00
   -2   18    9      0.62      0.00
  -14    0   10      0.87      0.00
  -12    0   10     -3.20      0.00
  -10    0   10     -0.32      0.00
   -8    0   10      0.20      0.00
   -6    0   10     -0.84      0.00
   -4    0   10      0.28      0.00
   -2    0   10     -0.85      0.00
    0    0   10     -3.19      0.00
    2    0   10     -1.79      0.00
    4    0   10     -1.46      0.00
    6    0   10     -0.91      0.00
    8    0   10     -0.43      0.00
   10    0   10     -2.97      0.00
  -13    1   10      2.01      0.00
  -11    1   10      2.70      0.00
   -9    1   10     -0.58      0.00
   -7    1   10      0.77      0.00
   -5    1   10     -0.05      0.00
   -3    1   10     -0.53      0.00
   -1    1   10      1.50      0.00
    1    1   10      2.23      0.00
    3    1   10      0.46      0.00
    5    1   10      1.05      0.00
    7    1   10     -0.44      0.00
    9    1   10      1.68      0.00
  -14    2   10     -0.52      0.00
  -12    2   10     -4.18      0.00
  -10    2   10     -0.88      0.00
   -8    2   10      0.06      0.00
   -6    2   10     -0.53      0.00
   -4    2   10      1.23      0.00
   -2    2   10      0.74      0.00
    0    2   10     -0.85      0.00
    2    2   10      0.28      0.00
    4    2   10      0.73      0.00
    6    2   10      0.92      0.00
    8    2   10      0.57      0.00
   10    2   10     -1.80      0.00
  -13    3   10      3.23      0.00
  -11    3   10      2.96      0.00
   -9    3   10     -0.94      0.00
   -7    3   10      0.34      0.00
   -5    3   10     -0.39      0.00
   -3    3   10     -1.41      0.00
   -1    3   10     -0.41      0.00
    1    3   10     -0.53      0.00
    3    3   10     -1.85      0.00
    5    3   10     -1.92      0.00
    7    3   10     -1.73      0.00
    9    3   10      0.28      0.00
  -14    4   10     -1.48      0.00
  -12    4   10     -3.30      0.00
  -10    4   10      0.66      0.00
   -8    4   10      1.48      0.00
   -6    4   10     -0.48      0.00
   -4    4   10      0.43      0.00
   -2    4   10      0.20      0.00
    0    4   10     -0.10      0.00
    2    4   10      1.07      0.00
    4    4   10      2.10      0.00
    6    4   10      1.99      0.00
    8    4   10      0.60      0.00
  -13    5   10      1.52      0.00
  -11    5   10      0.47      0.00
   -9    5   10     -2.88      0.00
   -7    5   10     -0.50      0.00
   -5    5   10      0.85      0.00
   -3    5   10      0.21      0.00
   -1    5   10      1.22      0.00
    1    5   10      0.51      0.00
    3    5   10     -0.46      0.00
    5    5   10     -1.52      0.00
    7    5   10     -0.43      0.00
    9    5   10      0.51      0.00
  -12    6   10     -0.41      0.00
  -10    6   10      1.99      0.00
   -8    6   10      2.22      0.00
   -6    6   10     -0.95      0.00
   -4    6   10     -0.56      0.00
   -2    6   10     -0.83      0.00
    0    6   10     -1.68      0.00
    2    6   10     -0.99      0.00
    4    6   10     -0.03      0.00
    6    6   10      0.05      0.00
    8    6   10     -0.91      0.00
  -13    7   10     -0.64      0.00
  -11    7   10     -0.62      0.00
   -9    7   10     -2.33      0.00
   -7    7   10     -0.38      0.00
   -5    7   10      1.38      0.00
   -3    7   10     -0.30      0.00
   -1    7   10      1.35      0.00
    1    7   10      1.13      0.00
    3    7   10      0.87      0.00
    5    7   10      0.34      0.00
    7    7   10      1.31      0.00
    9    7   10      1.17      0.00
  -12    8   10      0.41      0.00
  -10    8   10      1.12      0.00
   -8    8   10      1.75      0.00
   -6    8   10     -1.30      0.00
   -4    8   10     -0.60      0.00
   -2    8   10     -0.10      0.00
    0    8   10     -1.22      0.00
    2    8   10     -0.06      0.00
    4    8   10     -0.17      0.00
    6    8   10     -1.06      0.00
    8    8   10     -1.64      0.00
  -11    9   10     -0.25      0.00
   -9    9   10     -1.72      0.00
   -7    9   10     -0.51      0.00
   -5    9   10      2.17      0.00
   -3    9   10      0.26      0.00
   -1    9   10      1.55      0.00
    1    9   10      0.20      0.00
    3    9   10     -0.84      0.00
    5    9   10      0.18      0.00
    7    9   10      1.51      0.00
  -12   10   10     -0.12      0.00
  -10   10   10      0.68      0.00
   -8   10   10      1.82      0.00
   -6   10   10     -1.31      0.00
   -4   10   10     -1.57      0.00
   -2   10   10     -1.32      0.00
    0   10   10     -2.07      0.00
    2   10   10      0.66      0.00
    4   10   10      0.70      0.00
    6   10   10     -0.62      0.00
  -11   11   10      0.04      0.00
   -9   11   10     -1.17      0.00
   -7   11   10     -0.66      0.00
   -5   11   10      1.42      0.00
   -3   11   10      0.51      0.00
   -1   11   10      2.54      0.00
    1   11   10      1.51      0.00
    3   11   10     -0.52      0.00
    5   11   10     -0.03      0.00
    7   11   10      0.49      0.00
  -10   12   10      0.19      0.00
   -8   12   10      1.04      0.00
   -6   12   10     -0.02      0.00
   -4   12   10      0.44      0.00
   -2   12   10     -0.72      0.00
    0   12   10     -2.69      0.00
    2   12   10     -0.83      0.00
    4   12   10     -0.05      0.00
    6   12   10      0.04      0.00
   -9   13   10     -0.47      0.00
   -7   13   10     -0.60      0.00
   -5   13   10     -0.84      0.00
   -3   13   10     -0.89      0.00
   -1   13   10      1.70      0.00
    1   13   10      1.75      0.00
    3   13   10      0.31      0.00
    5   13   10      0.19      0.00
   -8   14   10      0.53      0.00
   -6   14   10      0.38      0.00
   -4   14   10      0.86      0.00
   -2   14   10     -0.89      0.00
    0   14   10     -1.69      0.00
    2   14   10     -0.37      0.00
    4   14   10     -0.12      0.00
   -7   15   10     -0.03      0.00
   -5   15   10      0.07      0.00
   -3   15   10      1.00      0.00
   -1   15   10      1.91      0.00
    1   15   10      0.56      0.00
    3   15   10     -0.34      0.00
   -4   16   10     -0.92      0.00
   -2   16   10     -2.09      0.00
    0   16   10     -1.11      0.00
  -13    1   11      0.05      0.00
  -11    1   11     -0.63      0.00
   -9    1   11     -0.21      0.00
   -7    1   11      1.04      0.00
   -5    1   11      0.84      0.00
   -3    1   11      0.96      0.00
   -1    1   11      1.61      0.00
    1    1   11      0.45      0.00
    3    1   11      0.26      0.00
    5    1   11      0.82      0.00
    7    1   11      1.30      0.00
  -12    2   11      0.28      0.00
  -10    2   11      1.11      0.00
   -8    2   11     -1.03      0.00
   -6    2   11     -1.58      0.00
   -4    2   11     -0.46      0.00
   -2    2   11     -1.40      0.00
    0    2   11     -1.65      0.00
    2    2   11     -0.19      0.00
    4    2   11     -1.07      0.00
    6    2   11     -1.43      0.00
    8    2   11     -1.94      0.00
  -13    3   11      0.66      0.00
  -11    3   11     -1.17      0.00
   -9    3   11     -0.12      0.00
   -7    3   11      1.97      0.00
   -5    3   11      0.38      0.00
   -3    3   11     -0.76      0.00
   -1    3   11      1.18      0.00
    1    3   11      0.69      0.00
    3    3   11      0.65      0.00
    5    3   11      0.99      0.00
    7    3   11      1.37      0.00
  -12    4   11      0.14      0.00
  -10    4   11      1.29      0.00
   -8    4   11     -1.30      0.00
   -6    4   11     -1.19      0.00
   -4    4   11      1.32      0.00
   -2    4   11      1.18      0.00
    0    4   11     -1.00      0.00
    2    4   11     -0.31      0.00
    4    4   11     -0.44      0.00
    6    4   11     -0.01      0.00
    8    4   11     -0.70      0.00
  -11    5   11     -1.40      0.00
   -9    5   11     -0.04      0.00
   -7    5   11      1.46      0.00
   -5    5   11      0.13      0.00
   -3    5   11     -1.86      0.00
   -1    5   11     -0.01      0.00
    1    5   11      1.00      0.00
    3    5   11      0.02      0.00
    5    5   11     -0.72      0.00
    7    5   11     -0.27      0.00
  -12    6   11      0.55      0.00
  -10    6   11      1.02      0.00
   -8    6   11     -1.04      0.00
   -6    6   11     -0.95      0.00
   -4    6   11      0.40      0.00
   -2    6   11      1.09      0.00
    0    6   11     -1.35      0.00
    2    6   11     -0.81      0.00
    4    6   11      0.47      0.00
    6    6   11      0.79      0.00
  -11    7   11     -1.17      0.00
   -9    7   11      0.50      0.00
   -7    7   11      0.90      0.00
   -5    7   11      0.35      0.00
   -3    7   11     -1.05      0.00
   -1    7   11      0.00      0.00
    1    7   11      1.72      0.00
    3    7   11      0.72      0.00
    5    7   11     -0.20      0.00
    7    7   11      0.26      0.00
  -10    8   11      0.28      0.00
   -8    8   11     -0.85      0.00
   -6    8   11     -0.11      0.00
   -4    8   11      0.84      0.00
   -2    8   11      1.44      0.00
    0    8   11     -0.44      0.00
    2    8   11     -1.58      0.00
    4    8   11     -0.92      0.00
    6    8   11     -0.41      0.00
  -11    9   11     -0.65      0.00
   -9    9   11      0.17      0.00
   -7    9   11      0.16      0.00
   -5    9   11     -0.72      0.00
   -3    9   11     -1.47      0.00
   -1    9   11     -1.29      0.00
    1    9   11      0.30      0.00
    3    9   11      1.31      0.00
    5    9   11      0.61      0.00
  -10   10   11      0.73      0.00
   -8   10   11      0.14      0.00
   -6   10   11      0.07      0.00
   -4   10   11      0.77      0.00
   -2   10   11      0.72      0.00
    0   10   11      1.38      0.00
    2   10   11     -0.11      0.00
    4   10   11     -0.44      0.00
   -9   11   11     -0.87      0.00
   -7   11   11      0.32      0.00
   -5   11   11      0.03      0.00
   -3   11   11      0.40      0.00
   -1   11   11     -0.47      0.00
    1   11   11     -1.42      0.00
    3   11   11     -0.06      0.00
    5   11   11     -0.67      0.00
   -8   12   11      0.12      0.00
   -6   12   11     -0.67      0.00
   -4   12   11      0.00      0.00
   -2   12   11     -1.00      0.00
    0   12   11      1.18      0.00
    2   12   11      0.60      0.00
    4   12   11      0.33      0.00
   -7   13   11      0.63      0.00
   -5   13   11     -0.47      0.00
   -3   13   11     -0.02      0.00
   -1   13   11     -0.03      0.00
    1   13   11     -0.88      0.00
   -6   14   11      0.12      0.00
   -4   14   11      1.47      0.00
   -2   14   11      0.29      0.00
    0   14   11      0.76      0.00
  -12    0   12      3.72      0.00
   -4    0   12      0.35      0.00
   -2    0   12      0.13      0.00
    0    0   12      0.88      0.00
    2    0   12      0.20      0.00
    4    0   12      0.96      0.00
    6    0   12      1.14      0.00
  -11    1   12     -3.46      0.00
   -9    1   12     -0.80      0.00
   -5    1   12     -0.43      0.00
   -3    1   12      0.77      0.00
   -1    1   12     -0.36      0.00
    1    1   12     -0.74      0.00
    3    1   12     -0.84      0.00
    5    1   12     -1.47      0.00
  -12    2   12      2.80      0.00
  -10    2   12      1.71      0.00
   -8    2   12      0.07      0.00
   -6    2   12     -0.12      0.00
   -4    2   12     -1.56      0.00
   -2    2   12     -1.52      0.00
    0    2   12      0.72      0.00
    2    2   12      1.33      0.00
    4    2   12      1.80      0.00
    6    2   12      0.81      0.00
  -11    3   12     -2.19      0.00
   -9    3   12      0.00      0.00
   -7    3   12      0.77      0.00
   -5    3   12      1.44      0.00
   -3    3   12      2.41      0.00
   -1    3   12      0.63      0.00
    1    3   12     -1.24      0.00
    3    3   12     -1.81      0.00
    5    3   12     -1.18      0.00
  -10    4   12      0.62      0.00
   -8    4   12     -1.13      0.00
   -6    4   12     -1.39      0.00
   -4    4   12     -1.33      0.00
   -2    4   12     -1.31      0.00
    0    4   12      0.45      0.00
    2    4   12      1.04      0.00
    4    4   12      1.26      0.00
    6    4   12     -0.19      0.00
  -11    5   12     -0.92      0.00
   -9    5   12      0.59      0.00
   -7    5   12      1.61      0.00
   -5    5   12      0.75      0.00
   -3    5   12      0.23      0.00
   -1    5   12      0.28      0.00
    1    5   12     -0.39      0.00
    3    5   12     -0.76      0.00
    5    5   12     -0.46      0.00
  -10    6   12      0.23      0.00
   -8    6   12     -0.95      0.00
   -6    6   12     -1.52      0.00
   -4    6   12      0.44      0.00
   -2    6   12     -0.29      0.00
    0    6   12     -0.07      0.00
    2    6   12      0.38      0.00
    4    6   12      1.14      0.00
   -9    7   12     -0.09      0.00
   -7    7   12      1.40      0.00
   -5    7   12      0.81      0.00
   -3    7   12     -0.33      0.00
   -1    7   12      0.84      0.00
    1    7   12     -0.45      0.00
    3    7   12     -1.06      0.00
    5    7   12     -1.09      0.00
  -10    8   12      0.09      0.00
   -8    8   12     -0.05      0.00
   -6    8   12     -1.89      0.00
   -4    8   12      0.31      0.00
   -2    8   12     -0.65      0.00
    0    8   12      0.07      0.00
    2    8   12      0.80      0.00
    4    8   12      0.99      0.00
   -9    9   12     -0.45      0.00
   -7    9   12      0.96      0.00
   -5    9   12      0.77      0.00
   -3    9   12     -0.77      0.00
   -1    9   12      0.34      0.00
    1    9   12     -0.91      0.00
    3    9   12      0.00      0.00
   -8   10   12      0.49      0.00
   -6   10   12     -1.22      0.00
   -4   10   12      1.15      0.00
   -2   10   12      0.39      0.00
    0   10   12      0.76      0.00
    2   10   12     -0.03      0.00
   -7   11   12      0.28      0.00
   -5   11   12     -0.04      0.00
   -3   11   12     -1.20      0.00
   -1   11   12     -0.26      0.00
    1   11   12     -0.64      0.00
   -4   12   12      0.78      0.00
   -2   12   12      0.03      0.00
    0   12   12      0.48      0.00
   -5    1   13     -0.02      0.00
   -3    1   13      0.21      0.00
   -1    1   13     -0.94      0.00
    1    1   13     -2.14      0.00
    3    1   13     -0.87      0.00
   -6    2   13     -0.10      0.00
   -4    2   13     -0.84      0.00
   -2    2   13     -0.23      0.00
    0    2   13      3.33      0.00
    2    2   13      3.66      0.00
    4    2   13      0.97      0.00
   -9    3   13      1.03      0.00
   -5    3   13      1.06      0.00
   -3    3   13      2.01      0.00
   -1    3   13     -1.34      0.00
    1    3   13     -5.92      0.00
    3    3   13     -3.50      0.00
   -8    4   13     -0.52      0.00
   -6    4   13     -0.71      0.00
   -4    4   13     -2.41      0.00
   -2    4   13     -1.69      0.00
    0    4   13      4.22      0.00
    2    4   13      5.94      0.00
   -9    5   13      0.37      0.00
   -7    5   13      0.37      0.00
   -5    5   13      1.48      0.00
   -3    5   13      2.47      0.00
   -1    5   13     -0.07      0.00
    1    5   13     -5.33      0.00
    3    5   13     -2.80      0.00
   -8    6   13     -0.26      0.00
   -6    6   13     -0.57      0.00
   -4    6   13     -1.33      0.00
   -2    6   13     -2.07      0.00
    0    6   13      1.46      0.00
    2    6   13      3.07      0.00
   -7    7   13      0.18      0.00
   -5    7   13      0.34      0.00
   -3    7   13      1.42      0.00
   -1    7   13      1.91      0.00
    1    7   13     -1.46      0.00
   -6    8   13     -0.17      0.00
   -4    8   13     -0.32      0.00
   -2    8   13     -2.24      0.00
    0    8   13     -1.01      0.00
   -5    9   13      0.08      0.00
   -3    9   13      0.97      0.00
   -1    9   13      1.70      0.00
   -4    0   14     -0.31      0.00
   -2    0   14      1.29      0.00
    0    0   14     -1.37      0.00
   -5    1   14      0.25      0.00
   -3    1   14     -0.56      0.00
   -1    1   14     -0.61      0.00
   -4    2   14     -0.35      0.00
   -2    2   14      1.39      0.00
    0    2   14     -0.73      0.00
   -5    3   14      0.34      0.00
   -3    3   14     -0.17      0.00
   -1    3   14     -0.90      0.00
   -4    4   14     -0.78      0.00
   -2    4   14      0.53      0.00
   17    7    0      0.25      0.00
   16   10    0      0.17      0.00
    0   22    0     -0.61      0.00
    6   22    0     -0.34      0.00
    1   23    0      0.65      0.00
    3   23    0     -0.15      0.00
   17    1    1      0.86      0.00
   17    5    1     -0.39      0.00
  -17    7    1     -0.49      0.00
  -15   13    1     -0.70      0.00
   14   14    1     -0.10      0.00
   -6   22    1      0.38      0.00
   -2   22    1      0.65      0.00
    6   22    1     -0.56      0.00
   -3   23    1      0.34      0.00
   -1   23    1     -1.44      0.00
    3   23    1     -0.95      0.00
   16    0    2      1.28      0.00
   17    1    2     -0.41      0.00
   16    2    2      0.35      0.00
   17    3    2      0.52      0.00
   16    8    2      0.16      0.00
   15   11    2     -0.06      0.00
  -15   13    2      1.40      0.00
   13   15    2     -0.48      0.00
    7   21    2     -0.76      0.00
   -6   22    2      0.54      0.00
   -4   22    2      0.88      0.00
    4   22    2      0.47      0.00
   -3   23    2      0.31      0.00
    1   23    2     -1.62      0.00
   16    6    3     -0.78      0.00
   14   12    3      1.19      0.00
  -15   13    3     -1.36      0.00
   11   17    3     -0.73      0.00
   10   18    3      0.59      0.00
    9   19    3     -0.14      0.00
    8   20    3     -0.01      0.00
    4   22    3      0.16      0.00
   -1   23    3     -0.53      0.00
   16    0    4     -0.09      0.00
   16    2    4      0.47      0.00
  -17    7    4     -0.04      0.00
  -16   10    4     -0.89      0.00
   13   13    4     -0.19      0.00
   -7   21    4      0.42      0.00
    5   21    4      0.38      0.00
   -4   22    4      1.06      0.00
    2   22    4      0.15      0.00
  -17    5    5      0.98      0.00
   15    5    5     -0.03      0.00
  -17    7    5      0.59      0.00
  -16   10    5     -0.32      0.00
  -14   14    5      0.79      0.00
   11   15    5      0.16      0.00
    7   19    5      0.61      0.00
   -8   20    5      0.42      0.00
    6   20    5     -0.42      0.00
   -2   22    5     -0.44      0.00
    0   22    5     -0.09      0.00
  -17    1    6      0.16      0.00
  -17    3    6     -0.73      0.00
  -17    5    6     -0.44      0.00
   14    6    6     -0.48      0.00
  -16    8    6      0.09      0.00
  -15   11    6     -0.40      0.00
   12   12    6      0.66      0.00
  -12   16    6      0.34      0.00
  -11   17    6     -0.57      0.00
  -10   18    6      0.00      0.00
    4   20    6     -0.21      0.00
   -3   21    6      0.42      0.00
    1   21    6     -0.40      0.00
  -17    1    7     -0.41      0.00
  -17    3    7     -0.33      0.00
  -16    6    7     -0.20      0.00
   13    7    7      1.31      0.00
   12   10    7     -1.20      0.00
  -14   12    7      1.28      0.00
    9   15    7      0.68      0.00
    8   16    7     -0.49      0.00
    7   17    7      0.24      0.00
    6   18    7     -0.26      0.00
   -7   19    7      0.41      0.00
    2   20    7     -0.79      0.00
  -16    0    8      1.17      0.00
   13    1    8      0.93      0.00
  -16    2    8      0.24      0.00
  -16    4    8     -0.76      0.00
  -15    9    8     -0.15      0.00
    9   13    8      0.03      0.00
  -12   14    8     -0.23      0.00
  -11   15    8      0.51      0.00
  -10   16    8     -0.20      0.00
   -9   17    8     -0.18      0.00
    4   18    8     -0.91      0.00
   -5   19    8      0.95      0.00
    1   19    8     -0.59      0.00
  -13   11    9      1.04      0.00
    9   11    9     -0.97      0.00
   -7   17    9     -0.39      0.00
    3   17    9      1.36      0.00
   -4   18    9      0.13      0.00
    0   18    9      0.41      0.00
  -15    1   10     -1.61      0.00
  -15    3   10      0.40      0.00
   10    4   10     -0.62      0.00
  -14    6   10      0.17      0.00
  -13    9   10     -0.22      0.00
    8   10   10     -1.34      0.00
   -6   16   10     -0.57      0.00
    2   16   10      0.28      0.00
   -3   17   10      1.06      0.00
   -1   17   10      1.24      0.00
    9    1   11      1.00      0.00
  -14    2   11     -0.25      0.00
  -13    5   11      0.86      0.00
    8    6   11     -0.23      0.00
  -12    8   11      0.60      0.00
    6   10   11      0.30      0.00
    3   13   11      0.28      0.00
    2   14   11     -0.26      0.00
   -5   15   11     -0.97      0.00
   -3   15   11     -1.02      0.00
   -1   15   11     -0.60      0.00
  -10    0   12      2.15      0.00
   -8    0   12      0.67      0.00
   -6    0   12      1.26      0.00
   -7    1   12     -0.77      0.00
    7    1   12     -0.24      0.00
    7    3   12      0.37      0.00
  -12    4   12      1.25      0.00
    6    6   12      0.11      0.00
  -11    7   12     -0.23      0.00
   -6   12   12     -0.60      0.00
   -3   13   12     -0.14      0.00
   -1   13   12      0.14      0.00
   -9    1   13      0.89      0.00
   -7    1   13      0.29      0.00
    5    1   13      0.08      0.00
  -10    2   13     -0.93      0.00
   -8    2   13     -0.99      0.00
   -7    3   13      0.40      0.00
  -10    4   13     -0.32      0.00
    4    4   13      1.89      0.00
    3    7   13     -0.24      0.00
   -8    8   13      0.02      0.00
    2    8   13      0.67      0.00
   -7    9   13      0.26      0.00
    1    9   13     -0.10      0.00
   -4   10   13     -0.10      0.00
   -2   10   13     -0.77      0.00
   -6    0   14      0.15      0.00
   -7    1   14     -0.23      0.00
    1    1   14      1.88      0.00
   -6    2   14      0.06      0.00
   -7    3   14     -0.11      0.00
    1    3   14      0.86      0.00
   -6    4   14      0.11      0.00
    0    4   14      0.11      0.00
   -5    5   14      0.36      0.00
   -3    5   14      0.70      0.00
   -1    5   14     -0.55      0.00
   -4    6   14     -0.64      0.00
   -2    6   14     -0.14      0.00
    0    0    0      0.00      0.00
loop_
  _platon_squeeze_void_nr
  _platon_squeeze_void_average_x
  _platon_squeeze_void_average_y
  _platon_squeeze_void_average_z
  _platon_squeeze_void_volume
  _platon_squeeze_void_count_electrons
  _platon_squeeze_void_content
   1  0.000  0.500 -0.013       319       120 ' '
   2  0.500  1.000  0.013       319       120 ' '
_platon_squeeze_details
(replace by semicolon in column 1 when used as .sqf)
TITL cu        C 2/c        R = 0.11
CELL   13.7352   17.8880   11.0251     90.00    100.46     90.00
SPGR C2/c
C101 0.500 0.156 0.737 !       4.18 eA-3
C102 0.486 0.046 0.819 !       1.56 eA-3
C103 0.877 0.467 0.336 !       1.28 eA-3
C104 1.000 0.469 0.240 !       1.18 eA-3
C105 0.508 0.016 0.524 !       1.11 eA-3
C106 0.469 0.032 0.377 !       1.10 eA-3
C107 0.456 0.017 0.690 !       1.10 eA-3
C108 0.558 0.064 0.962 !       0.91 eA-3
C109 0.440 0.018 0.518 !       0.80 eA-3
C110 0.937 0.503 0.244 !       0.67 eA-3
Q111 0.066 0.279 0.828 !       0.65 eA-3
Q112 0.456 0.155 0.865 !       0.65 eA-3
C113 0.884 0.466 0.970 !       0.65 eA-3
Q114 0.344 0.442 0.076 !       0.64 eA-3
Q115 0.529 0.091 0.446 !       0.62 eA-3
Q116 0.499 0.485 0.953 !       0.61 eA-3
Q117 0.909 0.294 0.593 !       0.58 eA-3
C118 0.952 0.472 0.802 !       0.57 eA-3
Q119 0.512 0.495 0.627 !       0.56 eA-3
Q120 0.783 0.202 0.951 !       0.52 eA-3
Q121 0.815 0.362 0.375 !       0.51 eA-3
Q122 0.983 0.344 0.982 !       0.51 eA-3
Q123 0.487 0.504 0.676 !       0.50 eA-3
(replace by semicolon in column 1 when used as .sqf)
;
_shelx_fab_checksum              38326
#END Tags that were not found in dictionaries
loop_
_space_group_symop_operation_xyz
'x, y, z'
'x, -y, z+1/2'
'x+1/2, y+1/2, z'
'x+1/2, -y+1/2, z+1/2'
'-x, -y, -z'
'-x, y, -z-1/2'
'-x+1/2, -y+1/2, -z'
'-x+1/2, y+1/2, -z-1/2'
loop_
_atom_site_label
_atom_site_type_symbol
_atom_site_fract_x
_atom_site_fract_y
_atom_site_fract_z
_atom_site_U_iso_or_equiv
_atom_site_adp_type
_atom_site_occupancy
_atom_site_site_symmetry_order
_atom_site_calc_flag
_atom_site_refinement_flags_posn
_atom_site_refinement_flags_adp
_atom_site_refinement_flags_occupancy
_atom_site_disorder_assembly
_atom_site_disorder_group
Cu1 Cu 0.49891(18) 0.49882(14) 0.47005(9) 0.0410(5) Uani 0.5 1 d . . P A -1
O1 O 0.61200(19) 0.43428(14) 0.5508(3) 0.0771(10) Uani 1 1 d . . . . .
O2 O 0.6681(3) 0.4248(2) 0.3727(4) 0.1204(15) Uani 1 1 d . . . . .
O1W O 0.5086(15) 0.4919(2) 0.2643(19) 0.046(3) Uani 0.5 1 d . U P A -1
H11 H 0.4518 0.4962 0.2213 0.069 Uiso 0.5 1 d R U P A -1
H12 H 0.5329 0.4505 0.2497 0.069 Uiso 0.5 1 d R U P A -1
C1 C 0.6735(3) 0.4122(2) 0.4842(5) 0.0675(13) Uani 1 1 d . . . . .
C2 C 0.76075(17) 0.36768(14) 0.5542(2) 0.0569(10) Uani 1 1 d G . . . .
C3 C 0.8226(2) 0.32950(18) 0.48877(19) 0.0855(16) Uani 1 1 d G . . . .
H3 H 0.8123 0.3329 0.4032 0.103 Uiso 1 1 calc R U . . .
C4 C 0.8998(2) 0.28622(17) 0.5512(3) 0.0904(17) Uani 1 1 d G . . . .
H4 H 0.9412 0.2607 0.5074 0.108 Uiso 1 1 calc R U . . .
C5 C 0.91517(17) 0.28113(14) 0.6790(3) 0.0669(12) Uani 1 1 d G . . . .
C6 C 0.8533(2) 0.31932(16) 0.7445(2) 0.0764(13) Uani 1 1 d G . . . .
H6 H 0.8636 0.3159 0.8300 0.092 Uiso 1 1 calc R U . . .
C7 C 0.77611(18) 0.36260(15) 0.6821(2) 0.0684(12) Uani 1 1 d G . . . .
H7 H 0.7347 0.3881 0.7259 0.082 Uiso 1 1 calc R U . . .
N1 N 0.4078(2) 0.40958(15) 0.4981(3) 0.0536(8) Uani 1 1 d . . . . .
C8 C 1.0000 0.2319(3) 0.7500 0.088(2) Uani 1 2 d S T P . .
H8A H 1.0259 0.2000 0.6921 0.105 Uiso 0.5 1 calc R U P . .
H8B H 0.9741 0.2000 0.8079 0.105 Uiso 0.5 1 calc R U P . .
C9 C 0.3230(3) 0.4024(2) 0.4173(4) 0.0696(13) Uani 1 1 d . . . . .
H9 H 0.3051 0.4403 0.3599 0.083 Uiso 1 1 calc R U . . .
C10 C 0.2599(3) 0.3411(2) 0.4146(4) 0.0611(12) Uani 1 1 d . . . . .
H10 H 0.2025 0.3387 0.3553 0.073 Uiso 1 1 calc R U . . .
C11 C 0.2822(2) 0.28323(17) 0.5003(3) 0.0425(8) Uani 1 1 d . . . . .
C12 C 0.3705(3) 0.2917(2) 0.5855(3) 0.0512(10) Uani 1 1 d . . . . .
H12A H 0.3895 0.2553 0.6455 0.061 Uiso 1 1 calc R U . . .
C13 C 0.4300(3) 0.3543(2) 0.5807(4) 0.0567(11) Uani 1 1 d . . . . .
H13 H 0.4885 0.3580 0.6381 0.068 Uiso 1 1 calc R U . . .
loop_
_atom_site_aniso_label
_atom_site_aniso_U_11
_atom_site_aniso_U_22
_atom_site_aniso_U_33
_atom_site_aniso_U_23
_atom_site_aniso_U_13
_atom_site_aniso_U_12
Cu1 0.0209(4) 0.0254(4) 0.0741(13) 0.0049(11) 0.0017(11) -0.0054(3)
O1 0.0290(14) 0.0376(15) 0.161(3) 0.0110(16) 0.0072(18) 0.0038(11)
O2 0.104(3) 0.144(4) 0.098(3) 0.019(2) -0.022(2) 0.054(3)
O1W 0.027(7) 0.049(2) 0.050(8) 0.001(3) -0.027(5) -0.014(4)
C1 0.038(2) 0.049(2) 0.106(4) 0.004(2) -0.011(2) 0.0031(19)
C2 0.033(2) 0.051(2) 0.082(3) -0.001(2) -0.0038(19) 0.0030(17)
C3 0.059(3) 0.116(4) 0.074(3) -0.019(3) -0.006(2) 0.030(3)
C4 0.061(3) 0.110(4) 0.089(3) -0.036(3) -0.016(3) 0.040(3)
C5 0.033(2) 0.047(2) 0.113(4) -0.006(2) -0.007(2) -0.0014(17)
C6 0.059(3) 0.088(3) 0.081(3) 0.022(2) 0.010(2) 0.016(2)
C7 0.045(2) 0.076(3) 0.087(3) 0.006(2) 0.022(2) 0.016(2)
N1 0.0295(15) 0.0279(15) 0.101(2) 0.0029(15) 0.0051(16) -0.0066(12)
C8 0.053(4) 0.047(3) 0.146(6) 0.000 -0.030(4) 0.000
C9 0.041(2) 0.042(2) 0.119(3) 0.024(2) -0.006(2) -0.0146(18)
C10 0.042(2) 0.048(2) 0.084(3) 0.015(2) -0.014(2) -0.0177(18)
C11 0.0335(18) 0.0348(18) 0.0580(19) -0.0022(16) 0.0056(16) -0.0127(14)
C12 0.045(2) 0.047(2) 0.057(2) 0.0078(17) -0.0043(17) -0.0173(17)
C13 0.037(2) 0.047(2) 0.080(3) -0.0024(19) -0.0054(19) -0.0158(17)
loop_
_atom_type_symbol
_atom_type_description
_atom_type_scat_dispersion_real
_atom_type_scat_dispersion_imag
_atom_type_scat_source
C C 0.0033 0.0016 'International Tables Vol C Tables 4.2.6.8 and 6.1.1.4'
H H 0.0000 0.0000 'International Tables Vol C Tables 4.2.6.8 and 6.1.1.4'
N N 0.0061 0.0033 'International Tables Vol C Tables 4.2.6.8 and 6.1.1.4'
O O 0.0106 0.0060 'International Tables Vol C Tables 4.2.6.8 and 6.1.1.4'
Cu Cu 0.3201 1.2651 'International Tables Vol C Tables 4.2.6.8 and 6.1.1.4'
loop_
_geom_angle_atom_site_label_1
_geom_angle_atom_site_label_2
_geom_angle_atom_site_label_3
_geom_angle
_geom_angle_site_symmetry_1
_geom_angle_site_symmetry_3
O1 Cu1 O1 160.92(7) 5_666 .
O1 Cu1 N1 88.87(15) 5_666 5_666
O1 Cu1 N1 88.56(14) . 5_666
O1 Cu1 N1 90.60(15) 5_666 .
O1 Cu1 N1 86.03(14) . .
N1 Cu1 N1 161.81(6) 5_666 .
O1 Cu1 O1W 95.9(4) 5_666 .
O1 Cu1 O1W 103.2(4) . .
N1 Cu1 O1W 93.7(3) 5_666 .
N1 Cu1 O1W 104.4(3) . .
C1 O1 Cu1 117.5(3) . .
Cu1 O1W H11 109.7 . .
Cu1 O1W H12 109.4 . .
H11 O1W H12 109.5 . .
O2 C1 O1 125.9(4) . .
O2 C1 C2 119.9(4) . .
O1 C1 C2 114.2(4) . .
C3 C2 C7 120.0 . .
C3 C2 C1 119.4(3) . .
C7 C2 C1 120.5(3) . .
C2 C3 C4 120.0 . .
C2 C3 H3 120.0 . .
C4 C3 H3 120.0 . .
C3 C4 C5 120.0 . .
C3 C4 H4 120.0 . .
C5 C4 H4 120.0 . .
C6 C5 C4 120.0 . .
C6 C5 C8 119.35(19) . .
C4 C5 C8 120.64(19) . .
C5 C6 C7 120.0 . .
C5 C6 H6 120.0 . .
C7 C6 H6 120.0 . .
C6 C7 C2 120.0 . .
C6 C7 H7 120.0 . .
C2 C7 H7 120.0 . .
C9 N1 C13 116.4(3) . .
C9 N1 Cu1 116.6(3) . .
C13 N1 Cu1 126.6(2) . .
C5 C8 C5 110.9(5) . 6_757
C5 C8 H8A 109.5 . .
C5 C8 H8A 109.5 6_757 .
C5 C8 H8B 109.5 . .
C5 C8 H8B 109.5 6_757 .
H8A C8 H8B 108.0 . .
N1 C9 C10 123.5(3) . .
N1 C9 H9 118.3 . .
C10 C9 H9 118.3 . .
C9 C10 C11 120.6(3) . .
C9 C10 H10 119.7 . .
C11 C10 H10 119.7 . .
C10 C11 C12 115.5(3) . .
C10 C11 C11 122.2(3) . 7_556
C12 C11 C11 122.3(4) . 7_556
C13 C12 C11 120.2(3) . .
C13 C12 H12A 119.9 . .
C11 C12 H12A 119.9 . .
N1 C13 C12 123.8(3) . .
N1 C13 H13 118.1 . .
C12 C13 H13 118.1 . .
loop_
_geom_bond_atom_site_label_1
_geom_bond_atom_site_label_2
_geom_bond_distance
_geom_bond_site_symmetry_2
Cu1 O1 1.918(4) 5_666
Cu1 O1 2.009(3) .
Cu1 N1 2.070(4) 5_666
Cu1 N1 2.086(4) .
Cu1 O1W 2.30(2) .
O1 C1 1.278(5) .
O2 C1 1.238(6) .
O1W H11 0.8400 .
O1W H12 0.8400 .
C1 C2 1.527(4) .
C2 C3 1.3900 .
C2 C7 1.3900 .
C3 C4 1.3900 .
C3 H3 0.9300 .
C4 C5 1.3900 .
C4 H4 0.9300 .
C5 C6 1.3900 .
C5 C8 1.554(4) .
C6 C7 1.3900 .
C6 H6 0.9300 .
C7 H7 0.9300 .
N1 C9 1.338(4) .
N1 C13 1.341(4) .
C8 C5 1.554(4) 6_757
C8 H8A 0.9700 .
C8 H8B 0.9700 .
C9 C10 1.394(5) .
C9 H9 0.9300 .
C10 C11 1.398(5) .
C10 H10 0.9300 .
C11 C12 1.401(4) .
C11 C11 1.481(6) 7_556
C12 C13 1.394(5) .
C12 H12A 0.9300 .
C13 H13 0.9300 .
loop_
_geom_hbond_atom_site_label_D
_geom_hbond_atom_site_label_H
_geom_hbond_atom_site_label_A
_geom_hbond_distance_DH
_geom_hbond_distance_HA
_geom_hbond_distance_DA
_geom_hbond_angle_DHA
_geom_hbond_site_symmetry_A
O1w H11 O2 0.84 2.19 2.88(2) 139 6_656
O1w H12 O2 0.84 2.14 2.59(2) 113 .
loop_
_geom_torsion_atom_site_label_1
_geom_torsion_atom_site_label_2
_geom_torsion_atom_site_label_3
_geom_torsion_atom_site_label_4
_geom_torsion
_geom_torsion_site_symmetry_1
_geom_torsion_site_symmetry_4
Cu1 O1 C1 O2 -2.6(6) . .
Cu1 O1 C1 C2 176.3(2) . .
O2 C1 C2 C3 -12.5(5) . .
O1 C1 C2 C3 168.6(3) . .
O2 C1 C2 C7 170.2(4) . .
O1 C1 C2 C7 -8.7(4) . .
C7 C2 C3 C4 0.0 . .
C1 C2 C3 C4 -177.3(3) . .
C2 C3 C4 C5 0.0 . .
C3 C4 C5 C6 0.0 . .
C3 C4 C5 C8 178.9(3) . .
C4 C5 C6 C7 0.0 . .
C8 C5 C6 C7 -178.9(3) . .
C5 C6 C7 C2 0.0 . .
C3 C2 C7 C6 0.0 . .
C1 C2 C7 C6 177.3(3) . .
C6 C5 C8 C5 -72.7(3) . 6_757
C4 C5 C8 C5 108.4(3) . 6_757
C13 N1 C9 C10 -1.1(6) . .
Cu1 N1 C9 C10 172.2(4) . .
N1 C9 C10 C11 1.2(7) . .
C9 C10 C11 C12 -0.4(6) . .
C9 C10 C11 C11 -179.3(4) . 7_556
C10 C11 C12 C13 -0.5(6) . .
C11 C11 C12 C13 178.4(4) 7_556 .
C9 N1 C13 C12 0.2(6) . .
Cu1 N1 C13 C12 -172.3(3) . .
C11 C12 C13 N1 0.6(6) . .
