#------------------------------------------------------------------------------
#$Date: 2016-03-25 23:10:29 +0200 (Fri, 25 Mar 2016) $
#$Revision: 180028 $
#$URL: svn://www.crystallography.net/cod/cif/7/03/22/7032228.cif $
#------------------------------------------------------------------------------
#
# This file is available in the Crystallography Open Database (COD),
# http://www.crystallography.net/
#
# All data on this site have been placed in the public domain by the
# contributors.
#
data_7032228
loop_
_publ_author_name
'Liu, Jian-Qiang'
'Wu, Jian'
'Jia, Zhen-Bin'
'Chen, Hong-Lang'
'Li, Qing-Lin'
'Sakiyama, Hiroshi'
'Soares, Thereza'
'Ren Fei,'
'Daiguebonne, Carole'
'Guillou, Olivier'
'Ng, Seik Weng'
_publ_section_title
;
 Two isoreticular metal-organic frameworks with CdSO4-like topology:
 selective gas sorption and drug delivery.
;
_journal_issue                   46
_journal_name_full
'Dalton transactions (Cambridge, England : 2003)'
_journal_page_first              17265
_journal_page_last               17273
_journal_paper_doi               10.1039/c4dt01890g
_journal_volume                  43
_journal_year                    2014
_chemical_formula_moiety
'[Cu (H2 O) (C10 H8 N2) (C15 H10 O4)], 1.5(C2 H3 N)'
_chemical_formula_sum            'C28 H24.5 Cu N3.5 O5'
_chemical_formula_weight         553.55
_chemical_name_systematic
;
 ?
;
_space_group_crystal_system      monoclinic
_space_group_IT_number           14
_space_group_name_Hall           '-P 2ybc'
_space_group_name_H-M_alt        'P 1 21/c 1'
_symmetry_space_group_name_Hall  '-P 2ybc'
_symmetry_space_group_name_H-M   'P 1 21/c 1'
_atom_sites_solution_hydrogens   mixed
_audit_creation_method           SHELXL-2013
_cell_angle_alpha                90
_cell_angle_beta                 100.4290(10)
_cell_angle_gamma                90
_cell_formula_units_Z            4
_cell_length_a                   13.7894(11)
_cell_length_b                   17.4839(14)
_cell_length_c                   10.8445(9)
_cell_measurement_reflns_used    3356
_cell_measurement_temperature    298(2)
_cell_measurement_theta_max      26.4827
_cell_measurement_theta_min      2.4942
_cell_volume                     2571.3(4)
_computing_cell_refinement       'SAINT (Bruker, 2011)'
_computing_data_collection       'APEX2 (Bruker, 2011)'
_computing_data_reduction        SAINT
_computing_molecular_graphics    'X-Seed (Barbour, 2001)'
_computing_publication_material  'publCIF (Westrip, 2010)'
_computing_structure_refinement  'SHELXL-2013 (Sheldrick, 2008)'
_computing_structure_solution    'SHELXS-97 (Sheldrick, 2008)'
_diffrn_ambient_temperature      298(2)
_diffrn_measured_fraction_theta_full 0.998
_diffrn_measured_fraction_theta_max 0.994
_diffrn_measurement_device_type  'Bruker SMART APEX diffractometer'
_diffrn_measurement_method       '\w scans'
_diffrn_radiation_monochromator  graphite
_diffrn_radiation_source         'fine-focus sealed tube'
_diffrn_radiation_type           MoK\a
_diffrn_radiation_wavelength     0.71073
_diffrn_reflns_av_R_equivalents  0.0329
_diffrn_reflns_av_unetI/netI     0.0417
_diffrn_reflns_Laue_measured_fraction_full 0.998
_diffrn_reflns_Laue_measured_fraction_max 0.994
_diffrn_reflns_limit_h_max       13
_diffrn_reflns_limit_h_min       -17
_diffrn_reflns_limit_k_max       22
_diffrn_reflns_limit_k_min       -22
_diffrn_reflns_limit_l_max       14
_diffrn_reflns_limit_l_min       -12
_diffrn_reflns_number            15587
_diffrn_reflns_point_group_measured_fraction_full 0.998
_diffrn_reflns_point_group_measured_fraction_max 0.994
_diffrn_reflns_theta_full        25.242
_diffrn_reflns_theta_max         27.499
_diffrn_reflns_theta_min         1.502
_diffrn_standards_decay_%        0
_diffrn_standards_interval_count 0
_diffrn_standards_interval_time  0
_diffrn_standards_number         0
_exptl_absorpt_coefficient_mu    0.894
_exptl_absorpt_correction_T_max  1.000000
_exptl_absorpt_correction_T_min  0.712330
_exptl_absorpt_correction_type   multi-scan
_exptl_absorpt_process_details   'SADABS (Sheldrick, 1996)'
_exptl_crystal_colour            colorless
_exptl_crystal_density_diffrn    1.430
_exptl_crystal_description       prism
_exptl_crystal_F_000             1144
_exptl_crystal_size_max          0.230
_exptl_crystal_size_mid          0.180
_exptl_crystal_size_min          0.150
_platon_squeeze_details
;
 Eight water molecules are presumed to reside in each 
of the two 319 \%A^3^ voids.

 The formula unit was arrived at through a combination of CH&N elemental, 
 infrared and thermogravimetric analyses.  The presence of water was shown by a
 broad band in the 3500-3000 cm^-1^ range.  In the thermogram, the weight loss 
of 16.1% corresponded to a loss of one coordinated and four lattice water 
molecules (calc. 16.0%).
;
_refine_diff_density_max         0.803
_refine_diff_density_min         -0.656
_refine_diff_density_rms         0.053
_refine_ls_extinction_method     none
_refine_ls_goodness_of_fit_ref   1.019
_refine_ls_hydrogen_treatment    constr
_refine_ls_matrix_type           full
_refine_ls_number_parameters     298
_refine_ls_number_reflns         5863
_refine_ls_number_restraints     0
_refine_ls_restrained_S_all      1.019
_refine_ls_R_factor_all          0.0654
_refine_ls_R_factor_gt           0.0377
_refine_ls_shift/su_max          0.001
_refine_ls_shift/su_mean         0.001
_refine_ls_structure_factor_coef Fsqd
_refine_ls_weighting_details
;
 w=1/[\s^2^(Fo^2^)+(0.0532P)^2^+0.3998P]
 where P=(Fo^2^+2Fc^2^)/3
;
_refine_ls_weighting_scheme      calc
_refine_ls_wR_factor_gt          0.0964
_refine_ls_wR_factor_ref         0.1104
_reflns_number_gt                3879
_reflns_number_total             5863
_reflns_threshold_expression     'I > 2\s(I)'
_cod_data_source_file            c4dt01890g2.cif
_cod_data_source_block           1
_cod_depositor_comments
'Adding full bibliography for 7032228--7032229.cif.'
_cod_database_code               7032228
#BEGIN Tags that were not found in dictionaries:
_shelx_estimated_absorpt_t_min   0.821
_shelx_estimated_absorpt_t_max   0.878
_shelxl_version_number           2013-2
_shelx_res_file
;
TITL  P21/c
rem   6 Acetonitrile molecules in unit cell not found, included in formula
CELL  0.71073 13.7894 17.4839 10.8445 90.000 100.429 90.000
ZERR  4        0.0011  0.0014  0.0009  0.000   0.001  0.000
LATT  1
SYMM -X,1/2+Y,1/2-Z
SFAC  C H N O Cu
UNIT  112 98 14 20 4
ACTA
OMIT -3 55
SIZE  0.23 0.18 0.15
L.S.  25 0 40
BOND  $H
CONF
FMAP  2
PLAN -1
ABIN
WGHT    0.053200    0.399800
FVAR       0.40213
CU1   5    0.747344    0.247959    0.960230    11.00000    0.02029    0.02205 =
         0.05732    0.00277    0.00445   -0.00356
O1    4    0.634784    0.313880    0.914604    11.00000    0.02471    0.03331 =
         0.07589    0.01061    0.00723    0.00130
O2    4    0.598549    0.325240    1.104117    11.00000    0.07102    0.12564 =
         0.05621    0.00260   -0.01167    0.05103
O3    4   -0.142304    0.318168    0.520300    11.00000    0.02495    0.03080 =
         0.05701   -0.00755    0.00745   -0.00298
O4    4   -0.073049    0.327207    0.351683    11.00000    0.05613    0.11881 =
         0.04447   -0.00927    0.00443   -0.03577
O1W   4    0.755659    0.257883    1.248609    11.00000    0.03538    0.04479 =
         0.04574   -0.00004   -0.00328    0.00121
AFIX   3
H1W1  2    0.711998    0.285113    1.205510    11.00000   -1.50000
H1W2  2    0.804799    0.285473    1.275599    11.00000   -1.50000
AFIX   0
N1    3    0.655590    0.158196    0.974150    11.00000    0.02659    0.02678 =
         0.04615    0.00263    0.00575   -0.00614
N2    3    0.839880    0.340267    0.981260    11.00000    0.02596    0.02559 =
         0.03979   -0.00002    0.00274   -0.00607
C1    1    0.580900    0.336430    0.990880    11.00000    0.03149    0.04293 =
         0.06253    0.00058   -0.00530    0.00526
C2    1    0.490736    0.379053    0.932664    11.00000    0.02862    0.04496 =
         0.05084    0.00174   -0.00047    0.00446
C3    1    0.433022    0.415220    1.005016    11.00000    0.05897    0.10765 =
         0.04895   -0.01301   -0.00548    0.03945
AFIX  43
H3    2    0.448610    0.411011    1.091841    11.00000   -1.20000
AFIX   0
C4    1    0.351993    0.457872    0.951136    11.00000    0.04961    0.10220 =
         0.06172   -0.02714   -0.00433    0.03544
AFIX  43
H4    2    0.313945    0.481743    1.002455    11.00000   -1.20000
AFIX   0
C5    1    0.326629    0.465694    0.824034    11.00000    0.02670    0.03827 =
         0.06587   -0.00364   -0.00497    0.00052
C6    1    0.383860    0.428179    0.751911    11.00000    0.04376    0.07884 =
         0.04915    0.01597    0.00554    0.01668
AFIX  43
H6    2    0.367435    0.431726    0.665065    11.00000   -1.20000
AFIX   0
C7    1    0.464642    0.385572    0.804237    11.00000    0.03837    0.06523 =
         0.05067    0.00665    0.01258    0.01458
AFIX  43
H7    2    0.501916    0.360998    0.752718    11.00000   -1.20000
AFIX   0
C8    1    0.240643    0.514361    0.763473    11.00000    0.02951    0.03924 =
         0.08471   -0.00467   -0.01107    0.00170
AFIX  23
H8A   2    0.263892    0.552587    0.710883    11.00000   -1.20000
H8B   2    0.213823    0.540922    0.828307    11.00000   -1.20000
AFIX   0
C9    1    0.159807    0.467927    0.684862    11.00000    0.02645    0.03660 =
         0.06321   -0.00115   -0.00488    0.00478
C10   1    0.093844    0.427219    0.740120    11.00000    0.03987    0.06439 =
         0.04940   -0.01123    0.00506   -0.00782
AFIX  43
H10   2    0.099968    0.427882    0.826938    11.00000   -1.20000
AFIX   0
C11   1    0.018539    0.385278    0.669445    11.00000    0.03459    0.05283 =
         0.05591   -0.00489    0.01249   -0.00896
AFIX  43
H11   2   -0.025603    0.358867    0.709224    11.00000   -1.20000
AFIX   0
C12   1    0.008286    0.382241    0.540963    11.00000    0.02527    0.04048 =
         0.04804    0.00195    0.00200   -0.00185
C13   1    0.075084    0.422232    0.485000    11.00000    0.03987    0.07058 =
         0.04955    0.01075    0.00141   -0.01332
AFIX  43
H13   2    0.070163    0.420480    0.398377    11.00000   -1.20000
AFIX   0
C14   1    0.149123    0.464804    0.556314    11.00000    0.03501    0.06749 =
         0.06964    0.02124   -0.00301   -0.01820
AFIX  43
H14   2    0.192679    0.491932    0.516594    11.00000   -1.20000
AFIX   0
C15   1   -0.074496    0.339553    0.462495    11.00000    0.03081    0.03888 =
         0.05179    0.00129    0.00093   -0.00148
C16   1    0.573888    0.146364    0.890559    11.00000    0.03826    0.04218 =
         0.05692    0.01597   -0.00696   -0.01583
AFIX  43
H16   2    0.557945    0.180606    0.824366    11.00000   -1.20000
AFIX   0
C17   1    0.511588    0.085269    0.897879    11.00000    0.03640    0.04822 =
         0.05472    0.01396   -0.01180   -0.02100
AFIX  43
H17   2    0.455400    0.079021    0.836824    11.00000   -1.20000
AFIX   0
C18   1    0.532117    0.033520    0.995017    11.00000    0.03342    0.03047 =
         0.03667   -0.00128    0.00743   -0.00927
C19   1    0.617531    0.046875    1.081552    11.00000    0.04319    0.04098 =
         0.04059    0.01112   -0.00224   -0.01833
AFIX  43
H19   2    0.635376    0.013825    1.149040    11.00000   -1.20000
AFIX   0
C20   1    0.675799    0.108828    1.067741    11.00000    0.03802    0.03993 =
         0.04312    0.00351   -0.00258   -0.01618
AFIX  43
H20   2    0.732522    0.116504    1.127375    11.00000   -1.20000
AFIX   0
C21   1    0.818307    0.400307    0.906059    11.00000    0.03118    0.03415 =
         0.04363    0.00472   -0.00523   -0.00922
AFIX  43
H21   2    0.759681    0.399676    0.848086    11.00000   -1.20000
AFIX   0
C22   1    0.878492    0.463286    0.909865    11.00000    0.03640    0.03268 =
         0.04571    0.00848   -0.00475   -0.01046
AFIX  43
H22   2    0.860452    0.503735    0.854795    11.00000   -1.20000
AFIX   0
C23   1    0.966314    0.466514    0.996021    11.00000    0.03003    0.02677 =
         0.03492   -0.00053    0.00587   -0.00790
C24   1    0.987239    0.404130    1.074689    11.00000    0.03414    0.03523 =
         0.04575    0.00653   -0.00867   -0.01070
AFIX  43
H24   2    1.044765    0.403421    1.134596    11.00000   -1.20000
AFIX   0
C25   1    0.923461    0.343233    1.064741    11.00000    0.03724    0.02841 =
         0.04583    0.00650   -0.00065   -0.00838
AFIX  43
H25   2    0.939399    0.302063    1.118922    11.00000   -1.20000
eqiv  $1 1+x,y,1+z
htab  o1w o2
htab  o1w o4_$1
AFIX   0
HKLF  4 1 0 0 1 0 -1 0 1 0 0

REM   P21/c
REM R1 =  0.0377 for    3879 Fo > 4sig(Fo)  and  0.0654 for all    5863 data
REM    298 parameters refined using      0 restraints

END

wGHT      0.0471      0.5649

REM Highest difference peak  0.803,  deepest hole -0.656,  1-sigma level  0.053
Q1    1   0.7504  0.2510  1.0444  11.00000  0.05    0.80
;
_shelx_res_checksum              32084
_shelx_hkl_file
;
  -1   0   0   -8.94    0.44   1
  -2   0   0 9995.72  148.57   1
  -3   0   0    0.50    0.59   1
   3   0   0   -1.30    1.15   2
   3   0   0    0.99    1.16   3
  -4   0   0 2854.52   43.92   1
   4   0   0 2843.60   46.13   2
   4   0   0 2839.67   50.45   3
   5   0   0    3.44    1.86   3
  -5   0   0    0.75    0.95   1
   5   0   0   -0.83    1.51   2
   6   0   0   42.85    4.12   3
   6   0   0   42.32    3.98   2
  -6   0   0   50.60    3.26   1
  -7   0   0   -1.44    1.20   1
   7   0   0    0.38    2.40   2
   7   0   0    1.51    2.66   3
   8   0   0   -4.28    3.13   3
  -8   0   0   -0.15    1.76   1
   8   0   0   -0.63    2.49   2
   9   0   0    1.07    3.06   2
  -9   0   0   -2.47    1.77   1
   9   0   0   -3.64    3.82   3
  10   0   0   17.55    5.97   3
  10   0   0   24.04    4.77   2
  11   0   0    2.07    3.49   2
  12   0   0    9.18    4.54   2
   0  -1   0   -0.64    0.12   1
  -1   1   0   11.59    0.81   1
  -1  -1   0   14.24    0.67   1
  -2  -1   0 2223.84   33.78   1
   2  -1   0 2281.86   35.38   2
  -2   1   0 2176.38   34.11   1
  -3   1   0   12.89    1.26   1
   3  -1   0   13.52    1.85   3
   3  -1   0    9.93    1.74   2
   3   1   0   11.36    1.69   3
   3   1   0   11.34    1.73   2
  -3  -1   0   14.48    1.17   1
   4  -1   0  734.20   15.84   3
   4   1   0  744.67   16.27   3
   4  -1   0  725.88   15.15   2
  -4  -1   0  748.76   13.17   1
  -4   1   0  729.36   13.58   1
   4   1   0  722.03   14.51   2
  -5  -1   0   56.69    2.97   1
   5  -1   0   57.04    4.08   2
  -5   1   0   53.50    3.00   1
   5   1   0   56.05    4.14   3
   5   1   0   59.59    3.89   2
   5  -1   0   58.14    4.32   3
  -6   1   0  522.50   11.66   1
   6   1   0  542.44   14.65   3
   6  -1   0  515.58   13.44   2
  -6  -1   0  543.43   11.43   1
   6  -1   0  537.69   14.59   3
   6   1   0  545.40   13.25   2
   7  -1   0   28.43    3.69   2
   7   1   0   30.07    3.79   2
   7   1   0   24.95    3.75   3
  -7   1   0   25.48    2.66   1
   7  -1   0   20.94    3.90   3
  -7  -1   0   30.34    2.78   1
   8  -1   0  273.93   11.94   3
   8  -1   0  277.86   10.79   2
  -8   1   0  294.75    8.75   1
   8   1   0  289.58   11.73   3
  -8  -1   0  278.53    8.33   1
   8   1   0  296.40   10.51   2
  -9   1   0   12.19    2.62   1
   9  -1   0    7.02    3.51   2
   9   1   0    4.20    4.51   3
   9  -1   0   10.29    4.69   3
   9   1   0    1.56    3.15   2
  10   1   0   84.87    8.49   3
  10   1   0   87.98    7.20   2
  10  -1   0   78.49    7.09   2
  11   1   0   14.71    4.40   2
  11  -1   0    9.65    4.09   2
  12   1   0    8.00    4.46   2
  12  -1   0   13.38    4.70   2
  13  -1   0   -3.01    3.91   2
   0  -2   0  569.51    9.69   1
   1  -2   0   31.25    1.50   1
  -1  -2   0   31.83    1.14   1
   2  -2   0 1118.20   19.61   2
  -2   2   0 1140.64   18.77   1
  -2  -2   0 1139.97   17.74   1
   2   2   0 1116.29   21.47   3
  -3  -2   0    5.78    0.95   1
   3  -2   0    6.22    1.59   2
  -3   2   0    5.08    1.07   1
   3   2   0    8.57    1.62   3
   3   2   0    9.32    1.58   2
  -4   2   0  111.67    4.10   1
   4   2   0  121.19    4.70   2
  -4  -2   0  112.95    3.57   1
   4  -2   0  111.09    5.20   3
   4  -2   0   98.09    4.94   2
   4   2   0  121.10    5.34   3
  -5  -2   0  193.18    5.34   1
   5  -2   0  198.31    7.58   3
   5   2   0  198.82    7.59   3
  -5   2   0  186.82    5.92   1
   5   2   0  191.92    6.63   2
   5  -2   0  190.28    7.19   2
   6  -2   0   -1.69    1.81   2
  -6   2   0    0.45    1.35   1
   6   2   0    1.47    2.18   3
   6  -2   0    0.58    2.75   3
  -6  -2   0   -1.18    1.22   1
   6   2   0    1.26    1.95   2
   7  -2   0   75.47    6.10   3
   7   2   0   65.19    5.43   3
   7   2   0   71.82    4.93   2
  -7  -2   0   63.83    3.70   1
   7  -2   0   62.11    5.24   2
  -7   2   0   68.01    4.03   1
   8   2   0   11.14    3.62   3
   8   2   0    8.13    3.26   2
   8  -2   0    9.81    4.40   3
   8  -2   0    3.84    3.05   2
  -8  -2   0    2.68    1.95   1
  -8   2   0    6.85    2.21   1
   9   2   0    9.50    4.25   3
  -9   2   0   15.91    2.88   1
   9   2   0   15.81    3.89   2
   9  -2   0    6.31    4.79   3
   9  -2   0   19.05    4.22   2
  10   2   0  128.92    8.11   2
  10  -2   0  118.81    8.19   2
 -10   2   0  122.01    6.58   1
  10   2   0  146.57   10.82   3
  11   2   0    2.67    3.61   2
  11  -2   0    1.51    3.90   2
  11   2   0   -1.08    5.50   3
  12  -2   0   78.15    7.91   2
  13  -2   0    5.21    4.38   2
   0  -3   0   -0.10    0.50   1
   1  -3   0   24.26    1.59   1
  -1  -3   0   21.22    1.25   1
  -2   3   0  378.52    8.20   1
  -2  -3   0  388.91    6.91   1
   3   3   0   64.80    3.69   3
  -3  -3   0   63.47    2.24   1
  -3   3   0   57.42    2.95   1
   3  -3   0   56.06    3.57   2
   3   3   0   61.77    2.89   2
  -4   3   0  850.97   16.13   1
   4  -3   0  820.93   17.49   2
   4  -3   0  800.05   17.71   3
   4   3   0  870.19   16.00   2
   4   3   0  846.79   18.95   3
  -4  -3   0  839.10   14.41   1
  -5   3   0  199.60    6.44   1
   5   3   0  203.92    8.02   3
   5  -3   0  200.72    7.71   2
  -5  -3   0  188.78    5.31   1
   5   3   0  196.84    6.72   2
   5  -3   0  205.75    7.92   3
   6   3   0  636.01   14.48   2
  -6   3   0  633.59   13.89   1
  -6  -3   0  623.67   12.49   1
   6   3   0  615.22   16.80   3
   6  -3   0  624.10   15.89   2
   6  -3   0  621.36   16.43   3
   7   3   0   88.23    5.53   2
   7   3   0   94.27    6.26   3
   7  -3   0   88.44    7.22   3
   7  -3   0   94.40    6.17   2
  -7   3   0   92.81    4.79   1
  -7  -3   0   97.08    4.34   1
   8   3   0  206.58   10.05   3
  -8   3   0  196.25    7.46   1
   8  -3   0  188.53    9.33   2
   8   3   0  216.14    8.82   2
   8  -3   0  201.61   10.70   3
   9   3   0   13.56    4.27   3
  -9   3   0    6.22    2.42   1
   9  -3   0    6.31    3.31   2
   9   3   0   17.55    4.05   2
  10   3   0    1.24    3.25   2
 -10   3   0   -2.71    2.22   1
  10  -3   0    2.59    3.18   2
  10   3   0   -0.18    4.15   3
  11   3   0   22.90    6.42   3
  11  -3   0   20.48    4.89   2
  12  -3   0   11.98    4.75   2
  12   3   0   12.74    6.79   3
  13  -3   0    4.37    4.27   2
  14  -3   0   17.84    6.11   2
   0  -4   0   39.72    2.17   1
   1  -4   0 2814.07   44.98   1
  -1  -4   0 2970.14   44.31   1
   2  -4   0   12.70    1.77   2
   2   4   0   11.05    1.92   3
  -2   4   0   10.13    1.39   1
   2   4   0   11.72    1.20   2
  -2  -4   0   12.48    1.12   1
   3   4   0   96.83    4.87   3
   3   4   0   95.95    3.55   2
  -3  -4   0   95.44    2.87   1
  -3   4   0   90.25    3.89   1
   3  -4   0   93.52    4.46   2
   4   4   0  625.13   12.64   2
  -4   4   0  623.93   13.34   1
  -4  -4   0  626.50   11.15   1
   4   4   0  608.66   15.62   3
  -5  -4   0    2.95    1.10   1
   5   4   0    2.87    1.83   2
   5   4   0    3.58    2.10   3
  -5   4   0    3.71    1.57   1
   5  -4   0    2.15    2.07   2
  -6   4   0    9.27    2.03   1
  -6  -4   0    7.93    1.56   1
   6   4   0    5.36    2.42   3
   6   4   0    9.63    2.53   2
   7  -4   0   -4.57    2.02   2
  -7   4   0    1.14    1.70   1
   7   4   0   -0.36    2.26   2
   7   4   0   -0.03    2.32   3
  -7  -4   0    3.85    1.60   1
   7  -4   0   -1.58    3.20   3
  -8   4   0    7.76    2.50   1
   8  -4   0    6.78    3.18   2
   8   4   0    6.37    2.98   2
   8   4   0    6.78    3.43   3
   9   4   0   -0.96    3.41   3
   9  -4   0    2.77    3.34   2
   9   4   0    0.32    2.82   2
  -9   4   0    3.41    2.30   1
  10  -4   0   58.51    6.40   2
 -10   4   0   53.48    5.04   1
  10   4   0   54.87    5.89   2
  10   4   0   55.32    6.92   3
  11  -4   0   30.07    5.58   2
  11   4   0   23.70    6.25   3
  12  -4   0   15.24    4.99   2
  12   4   0   16.33    7.00   3
  13  -4   0    3.85    4.55   2
   0  -5   0   -2.82    0.65   1
  -1  -5   0   -0.99    0.71   1
   1  -5   0   -1.74    0.70   1
   1   5   0   -0.66    0.67   2
   2   5   0  106.12    3.54   2
   2  -5   0  105.44    4.31   1
  -2  -5   0  114.06    3.49   1
  -3   5   0   21.69    2.23   1
  -3  -5   0   25.16    1.74   1
   3  -5   0   21.78    2.53   2
   3   5   0   25.45    2.92   3
   3   5   0   28.05    2.04   2
   4   5   0  699.74   17.55   3
  -4  -5   0  714.00   12.45   1
   4   5   0  706.71   13.90   2
  -4   5   0  681.40   14.85   1
   4  -5   0  678.12   16.13   2
   5   5   0   74.95    5.24   3
  -5  -5   0   66.39    2.94   1
   5  -5   0   71.85    5.01   2
   5   5   0   62.91    4.16   2
  -5   5   0   67.92    4.21   1
  -6  -5   0  260.90    6.46   1
   6  -5   0  237.77    9.70   2
   6   5   0  265.33    8.37   2
  -6   5   0  246.24    8.36   1
   6   5   0  246.44   10.34   3
  -7   5   0    7.81    2.26   1
   7  -5   0    5.37    2.90   2
   7   5   0    1.74    2.43   2
   7   5   0    7.46    2.98   3
   8  -5   0   90.47    6.96   2
  -8   5   0   95.22    5.59   1
   8   5   0  104.91    6.44   2
   8   5   0   96.01    7.59   3
   9   5   0   19.48    4.09   2
  -9   5   0    2.55    2.25   1
   9  -5   0    4.13    3.25   2
   9   5   0    4.77    3.94   3
 -10   5   0    7.70    3.25   1
  10  -5   0    3.14    3.28   2
  10   5   0    3.46    4.61   3
  11  -5   0   -1.26    3.37   2
  11   5   0    0.20    4.55   3
 -11   5   0   -1.00    2.50   1
  12  -5   0    2.85    4.01   2
  12   5   0  -11.68    4.90   3
  13   5   0   -2.73    6.54   3
  13  -5   0    4.55    4.39   2
   0  -6   0  476.16   10.45   1
  -1  -6   0   18.50    1.78   1
   1  -6   0   20.54    2.16   1
   2   6   0   35.83    2.19   2
  -2  -6   0   32.02    2.14   1
   2  -6   0   26.26    2.46   1
  -3  -6   0  127.66    4.04   1
   3   6   0  129.83    4.35   2
   3   6   0  139.42    6.58   3
  -3   6   0  126.87    5.25   1
  -4   6   0  254.65    8.22   1
  -4  -6   0  269.90    6.35   1
   4   6   0  260.74    9.88   3
   4   6   0  276.66    7.29   2
   4  -6   0  261.85    9.15   2
   5  -6   0   30.84    3.78   2
  -5   6   0   29.60    3.11   1
   5   6   0   26.34    3.71   3
  -5  -6   0   29.62    2.08   1
   5   6   0   28.42    2.99   2
  -6  -6   0  236.37    6.15   1
   6  -6   0  237.96    9.93   2
   6   6   0  246.31    8.15   2
  -6   6   0  220.90    8.17   1
   6   6   0  230.21   10.19   3
   7   6   0    6.30    2.73   2
   7   6   0   -0.86    2.54   3
   7  -6   0    3.38    2.64   2
  -7   6   0    4.46    2.29   1
   8  -6   0   26.64    4.58   2
  -8   6   0   22.67    3.63   1
   8   6   0   27.77    4.17   2
   8   6   0   29.50    4.96   3
   9   6   0    5.07    3.63   3
  -9   6   0    1.84    2.58   1
   9  -6   0    0.31    3.01   2
 -10   6   0   61.69    5.63   1
  10   6   0   69.30    7.92   3
  10  -6   0   68.80    7.12   2
 -11   6   0    0.87    2.95   1
  11   6   0   -5.09    4.30   3
  11  -6   0    1.48    3.52   2
  12  -6   0    2.33    4.24   2
  12   6   0    7.75    5.99   3
  13  -6   0    2.92    4.11   2
  13   6   0   -7.94    6.39   3
   0  -7   0   -3.19    0.96   1
   1  -7   0    9.03    1.72   1
  -1  -7   0    5.56    1.39   1
  -2  -7   0   65.16    3.23   1
   2   7   0   64.43    3.13   2
   2  -7   0   71.33    3.99   1
  -3  -7   0   30.34    2.20   1
  -3   7   0   23.67    2.65   1
   3   7   0   24.25    3.35   3
   3   7   0   27.57    2.19   2
   4   7   0  309.51    8.07   2
  -4  -7   0  302.54    7.27   1
   4   7   0  308.28   11.26   3
  -4   7   0  314.59    9.48   1
   5   7   0    7.48    2.01   2
   5  -7   0    7.02    2.71   2
  -5   7   0    9.49    2.27   1
   5   7   0    6.04    2.61   3
  -5  -7   0    8.65    1.50   1
   6   7   0  227.11    7.93   2
   6  -7   0  220.32    9.79   2
  -6   7   0  237.20    8.73   1
   6   7   0  235.70   10.59   3
   7  -7   0   10.83    3.38   2
   7   7   0    7.18    3.42   3
   7   7   0   15.66    3.31   2
  -7   7   0    6.28    2.43   1
   8   7   0   12.75    4.19   3
   8  -7   0    5.74    3.49   2
   8   7   0   17.04    3.81   2
  -8   7   0    3.19    2.52   1
  -9   7   0   -1.41    2.49   1
   9   7   0    1.21    3.61   3
   9  -7   0    5.51    3.81   2
  10  -7   0    9.03    4.25   2
 -10   7   0    8.49    3.54   1
  10   7   0   11.97    5.26   3
  11  -7   0   -0.43    3.35   2
 -11   7   0    2.83    3.38   1
  11   7   0   -2.60    4.78   3
  12   7   0   -6.88    4.98   3
  12  -7   0   -0.10    4.11   2
  13   7   0    3.08    6.83   3
   0  -8   0  476.33   11.37   1
   1  -8   0    4.09    1.54   1
  -1  -8   0    7.70    1.62   1
   2   8   0   42.08    2.80   2
   2  -8   0   43.40    3.48   1
  -2  -8   0   39.67    2.84   1
  -3   8   0    6.22    1.92   1
  -3  -8   0   10.45    1.63   1
   3   8   0    4.93    1.36   2
   3   8   0    6.58    2.46   3
  -4  -8   0  202.41    5.90   1
  -4   8   0  183.57    7.42   1
   4   8   0  195.51    6.22   2
   4   8   0  189.50    8.90   3
  -5   8   0   20.28    3.04   1
   5   8   0   23.63    2.71   2
  -5  -8   0   23.56    2.21   1
   5   8   0   20.04    3.60   3
   6   8   0    9.24    3.38   3
   6   8   0    9.70    2.51   2
  -6   8   0    4.96    2.46   1
   7   8   0   11.60    4.07   3
   7   8   0   17.02    3.39   2
  -7   8   0   13.00    3.26   1
   7  -8   0    9.73    3.60   2
  -8   8   0  121.54    7.09   1
   8   8   0  114.62    9.01   3
   8  -8   0  119.57    8.39   2
   9   8   0    3.09    4.22   3
   9  -8   0   -0.86    2.94   2
  -9   8   0    2.11    2.89   1
  10  -8   0   90.99    8.68   2
 -10   8   0   99.64    7.29   1
  10   8   0   80.55    8.83   3
 -11   8   0    3.14    3.41   1
  11   8   0    7.85    5.52   3
  12   8   0   21.59    7.44   3
 -12   8   0   35.29    5.63   1
  13   8   0   -5.85    6.38   3
   0  -9   0    1.24    1.36   1
  -1  -9   0    6.69    1.72   1
   1  -9   0    8.42    2.06   1
   2  -9   0  135.35    6.14   1
   2   9   0  133.96    5.19   2
  -2  -9   0  129.85    5.16   1
   3   9   0   35.28    4.25   3
  -3  -9   0   37.94    2.85   1
  -3   9   0   29.98    3.28   1
   3   9   0   34.66    2.75   2
   4   9   0  549.24   12.38   2
  -4   9   0  539.54   14.37   1
  -4  -9   0  560.07   12.00   1
   4   9   0  536.29   16.75   3
  -5   9   0    6.58    2.40   1
  -5  -9   0    4.57    1.65   1
   5   9   0    2.35    1.90   2
   5   9   0    5.73    2.79   3
   6   9   0  429.29   15.97   3
  -6   9   0  435.85   13.40   1
   6   9   0  433.73   11.60   2
   7   9   0    2.39    3.34   3
  -7   9   0   -0.63    2.21   1
  -8   9   0  196.12    9.41   1
   8   9   0  185.45   11.37   3
  -9   9   0    6.82    3.21   1
   9   9   0    7.43    4.81   3
  10   9   0   42.12    7.05   3
 -10   9   0   45.03    5.77   1
  11   9   0    3.12    5.13   3
 -11   9   0   -0.41    3.29   1
 -12   9   0   -0.12    3.49   1
  12   9   0    3.50    6.10   3
  13   9   0   -2.28    6.73   3
   0 -10   0 1715.61   31.28   1
   1 -10   0   57.87    4.18   1
  -1 -10   0   51.73    3.77   1
  -2 -10   0 1035.26   20.02   1
   2 -10   0 1007.71   21.64   1
   2  10   0  982.59   19.89   2
  -3  10   0  307.56   10.25   1
   3  10   0  329.17   12.44   3
  -3 -10   0  323.72    8.88   1
   3  10   0  331.37    9.06   2
  -4  10   0  595.37   15.79   1
   4  10   0  614.21   18.61   3
  -4 -10   0  615.37   13.24   1
   4  10   0  585.95   13.47   2
   5  10   0   51.46    3.90   2
  -5  10   0   58.84    5.04   1
   5  10   0   53.60    5.72   3
   6  10   0   46.09    4.22   2
   6  10   0   36.63    5.48   3
  -6  10   0   40.63    4.67   1
   7  10   0   53.68    6.67   3
  -7  10   0   73.36    6.22   1
  -8  10   0    3.12    3.16   1
   8  10   0    2.73    3.73   3
  -9  10   0   32.42    4.80   1
   9  10   0   44.23    6.88   3
  10  10   0   47.66    7.77   3
 -10  10   0   49.22    6.10   1
 -11  10   0    2.27    3.78   1
  11  10   0    5.84    5.34   3
 -12  10   0   12.81    4.88   1
  12  10   0   21.87    7.90   3
   0 -11   0    0.03    1.61   1
   1 -11   0   50.58    4.23   1
  -1 -11   0   52.67    4.00   1
   2 -11   0  276.66    9.80   1
   2  11   0  264.90    8.41   2
  -2 -11   0  269.28    8.54   1
   3  11   0    1.49    1.53   2
  -3  11   0    1.83    2.09   1
  -3 -11   0   -0.71    1.49   1
   3  11   0    1.80    2.21   3
   4  11   0  429.42   11.16   2
  -4 -11   0  426.65   10.86   1
   4  11   0  440.18   15.67   3
  -4  11   0  434.68   13.29   1
   5  11   0   49.15    3.96   2
  -5  11   0   46.35    4.75   1
   5  11   0   48.95    5.84   3
   6  11   0  467.51   17.53   3
  -6  11   0  447.47   14.50   1
  -7  11   0   28.18    4.69   1
   7  11   0   17.17    4.89   3
   8  11   0  318.22   15.64   3
  -8  11   0  368.80   13.65   1
  -9  11   0   -0.56    3.24   1
   9  11   0    2.11    4.64   3
  10  11   0   49.78    7.98   3
 -10  11   0   51.83    6.49   1
  11  11   0   -2.76    5.37   3
 -11  11   0    1.08    3.94   1
 -12  11   0    3.53    4.43   1
  12  11   0    0.81    6.12   3
   0 -12   0 1084.79   22.98   1
   1 -12   0   78.68    5.37   1
  -1 -12   0   87.10    5.21   1
  -2 -12   0  525.56   13.39   1
   2  12   0  555.69   13.63   2
   2 -12   0  522.87   14.89   1
  -3 -12   0  274.03    8.85   1
   3  12   0  280.38   12.16   3
   3  12   0  272.15    8.81   2
  -3  12   0  286.83   10.37   1
   4  12   0  401.14   15.35   3
   4  12   0  404.80   11.01   2
  -4  12   0  398.55   13.16   1
  -5  12   0   27.59    4.29   1
   5  12   0   30.05    5.17   3
  -6  12   0   -2.94    2.46   1
   6  12   0   -0.69    3.31   3
   7  12   0   39.88    6.19   3
  -7  12   0   42.97    5.54   1
  -8  12   0   10.43    4.26   1
   8  12   0   15.96    5.60   3
   9  12   0    2.71    4.89   3
  -9  12   0    6.48    4.10   1
  10  12   0   41.31    7.76   3
 -10  12   0   33.17    5.54   1
 -11  12   0   -1.07    3.58   1
  11  12   0   -2.87    5.80   3
  12  12   0    6.77    7.18   3
 -12  12   0    5.69    4.50   1
   0 -13   0    0.09    1.97   1
   1  13   0    8.29    2.32   2
  -1 -13   0   16.89    3.07   1
   1 -13   0   19.72    3.33   1
   2  13   0  120.29    6.01   2
   2 -13   0  121.75    6.95   1
   2  13   0  124.96    7.92   3
  -2 -13   0  113.92    5.98   1
   3  13   0   10.86    3.64   3
  -3 -13   0   10.54    2.52   1
  -3  13   0    9.49    2.89   1
   3  13   0   12.96    2.52   2
  -4  13   0  215.97    9.67   1
   4  13   0  222.20   11.55   3
   4  13   0  219.07    7.91   2
  -5  13   0   28.33    4.40   1
   5  13   0   26.89    5.09   3
  -6  13   0  164.98    9.28   1
   6  13   0  174.39   11.14   3
   7  13   0   -1.95    3.61   3
  -7  13   0    2.45    3.19   1
  -8  13   0   68.27    6.84   1
   8  13   0   79.36    8.77   3
  -9  13   0    6.26    4.26   1
   9  13   0   -2.98    4.03   3
 -10  13   0    3.01    4.13   1
  10  13   0    4.89    6.13   3
 -11  13   0   -0.66    4.08   1
  11  13   0   -7.43    5.33   3
   0 -14   0 2031.84   38.46   1
   1 -14   0  145.63    7.77   1
   1  14   0  133.33    6.93   2
  -1 -14   0  137.27    7.10   1
   2  14   0  702.66   21.08   3
  -2  14   0  664.25   18.02   1
  -2 -14   0  691.34   17.02   1
   2  14   0  711.07   17.18   2
  -3 -14   0  132.22    6.58   1
   3  14   0  130.49    8.89   3
  -3  14   0  145.68    8.00   1
   3  14   0  123.40    6.31   2
  -4  14   0  100.29    6.94   1
   4  14   0  111.92    8.67   3
  -5  14   0  148.13    8.59   1
   5  14   0  146.37   10.16   3
   6  14   0   -2.53    3.26   3
  -6  14   0    3.46    3.42   1
   7  14   0    6.75    4.30   3
  -7  14   0    4.91    3.72   1
  -8  14   0   45.82    6.45   1
   8  14   0   56.68    7.97   3
   9  14   0    2.42    4.93   3
  -9  14   0   -1.41    3.58   1
 -10  14   0    1.30    4.42   1
  10  14   0    6.35    5.85   3
 -11  14   0   -2.06    3.90   1
  11  14   0   -2.41    5.66   3
   0 -15   0    5.15    2.72   1
   1 -15   0    1.18    2.49   1
  -1 -15   0    1.02    2.36   1
   1  15   0    0.46    1.99   2
  -2  15   0   31.17    4.35   1
   2  15   0   37.52    4.02   2
  -2 -15   0   35.31    4.13   1
   2  15   0   33.90    5.24   3
   3  15   0    1.66    2.15   2
   3  15   0   -2.50    2.65   3
  -3  15   0   -1.47    2.34   1
   4  15   0   64.31    7.20   3
  -4  15   0   58.19    5.80   1
   5  15   0    0.14    3.26   3
  -5  15   0   -0.09    2.71   1
  -6  15   0   69.16    6.83   1
   6  15   0  115.23    9.90   3
  -7  15   0    0.98    3.46   1
   7  15   0    1.11    4.30   3
   8  15   0    7.71    5.16   3
  -8  15   0    8.88    4.49   1
   9  15   0    8.73    5.77   3
  -9  15   0   15.81    5.25   1
  10  15   0    4.69    6.12   3
 -10  15   0   -1.17    4.07   1
   0 -16   0   32.87    4.55   1
  -1 -16   0   12.40    3.40   1
  -1  16   0    7.07    2.96   1
   1 -16   0    6.62    3.25   1
   1  16   0    6.12    3.41   3
   1  16   0    8.53    2.89   2
  -2  16   0   10.07    3.27   1
   2  16   0   14.03    3.14   2
  -2 -16   0    8.38    3.09   1
   2  16   0   13.41    3.93   3
  -3  16   0   52.73    5.84   1
   3  16   0   49.04    6.44   3
   4  16   0   35.83    5.87   3
  -4  16   0   43.52    5.47   1
  -5  16   0    0.90    2.94   1
   5  16   0    1.34    3.74   3
  -6  16   0    5.56    3.95   1
   6  16   0    4.21    4.35   3
  -7  16   0   -0.76    3.66   1
   7  16   0   -2.16    4.18   3
  -8  16   0    1.65    4.22   1
   8  16   0    4.05    5.43   3
  -9  16   0    6.33    5.01   1
   9  16   0    6.75    5.47   3
  10  16   0   21.15    7.40   3
   0 -17   0   -0.88    2.57   1
  -1  17   0   29.88    4.84   1
  -1 -17   0   26.55    4.31   1
   1  17   0   31.55    4.43   2
   1  17   0   30.17    5.03   3
  -2  17   0   57.40    6.02   1
   2  17   0   54.19    6.51   3
   3  17   0   18.51    4.88   3
  -3  17   0   16.51    4.35   1
  -4  17   0  137.14    8.99   1
   4  17   0  136.73   10.27   3
   5  17   0    3.50    3.77   3
  -5  17   0   -4.07    2.70   1
  -6  17   0   45.87    6.41   1
   6  17   0   44.57    7.41   3
   7  17   0   -0.97    4.50   3
  -7  17   0   -2.54    3.16   1
  -8  17   0   12.35    4.88   1
   8  17   0   13.30    5.94   3
   9  17   0    2.08    5.97   3
  -1 -18   0    1.01    2.85   1
   1  18   0    2.36    2.82   2
   1  18   0    2.53    3.24   3
  -1  18   0    1.26    2.82   1
   2  18   0   70.61    7.48   3
  -2  18   0   81.67    7.25   1
  -3  18   0    2.99    3.48   1
   3  18   0   -0.67    3.40   3
  -4  18   0   24.20    4.95   1
   4  18   0   27.50    6.06   3
  -5  18   0   -1.51    3.31   1
   5  18   0    1.43    4.14   3
  -6  18   0    1.16    3.80   1
   6  18   0    0.11    4.36   3
  -7  18   0   -0.27    3.81   1
   7  18   0    2.49    5.15   3
   8  18   0   -5.39    4.19   3
  -8  18   0   -5.80    3.97   1
   0  19   0    0.85    3.34   1
   0  19   0    0.01    2.94   2
  -1  19   0   13.16    4.29   1
   1  19   0   23.93    5.15   3
   2  19   0   79.16    8.12   3
  -2  19   0   68.17    6.85   1
   3  19   0   16.21    5.22   3
  -3  19   0    6.91    4.01   1
   4  19   0   61.26    7.96   3
   5  19   0    2.85    4.52   3
  -5  19   0   10.82    4.51   1
   6  19   0   28.49    6.91   3
   7  19   0   -1.28    4.51   3
  -7  19   0    1.58    3.86   1
   8  19   0   16.01    6.65   3
   0  20   0  122.67    8.78   1
  -1  20   0    2.14    3.63   1
   2  20   0  126.78   10.26   3
  -2  20   0  132.62    9.45   1
  -3  20   0   -2.05    3.77   1
   3  20   0    0.94    3.92   3
  -4  20   0   -3.57    3.26   1
   4  20   0    5.54    4.75   3
   5  20   0    1.82    4.46   3
  -5  20   0   -2.94    4.13   1
   6  20   0    6.07    5.81   3
  -6  20   0    1.10    4.14   1
   7  20   0   -0.82    5.27   3
  -1  21   0    1.76    4.20   1
  -2  21   0   10.17    4.80   1
  -3  21   0    8.64    4.78   1
   3  21   0   11.84    5.31   3
   4  21   0   47.25    7.89   3
  -5  21   0    3.69    4.39   1
   5  21   0   -0.06    4.81   3
  -1  22   0   17.93    5.55   1
  -2  22   0   63.95    7.94   1
  -3  22   0   -2.82    3.69   1
   4  22   0   83.87   10.16   3
  -2  23   0   19.56    6.04   1
  13   0  -1    4.55    4.31   2
  12   0  -1   10.77    4.60   2
  11   0  -1   -2.55    3.29   2
  10   0  -1    0.51    3.07   2
   9   0  -1    5.12    3.46   2
   9   0  -1    0.74    3.40   3
  -8   0   1  200.55    6.72   1
   8   0  -1  209.60    9.07   2
   8   0  -1  207.70    9.21   3
  -7   0   1    1.40    1.35   1
   7   0  -1   -0.53    2.10   3
   7   0  -1   -0.43    2.33   2
   6   0  -1 1057.00   21.88   2
  -6   0   1 1086.41   19.08   1
   6   0  -1 1067.98   22.94   3
   5   0  -1    1.03    1.70   2
  -5   0   1    1.28    1.00   1
   5   0  -1    1.56    1.46   3
   4   0  -1 1903.81   32.67   2
  -4   0   1 1920.27   30.26   1
   4   0  -1 1952.57   35.04   3
   3   0  -1   -0.40    0.84   3
  -3   0   1   -0.44    0.49   1
   3   0  -1    0.24    1.50   2
  -2   0   1  346.03    6.18   1
   2   0  -1  331.05    6.19   1
   2   0  -1  336.84    7.29   2
   1   0  -1   -4.46    0.22   1
   0   0  -1   -1.09    0.10   1
  -1   0  -1    0.02    0.38   1
  -2   0  -1  277.83    5.91   1
  -3   0  -1   -0.02    0.68   1
   3   0   1   -0.69    1.31   3
   3   0   1   -2.06    1.05   2
   4   0   1  556.38   12.09   2
   4   0   1  571.46   13.96   3
  -4   0  -1  565.83   11.26   1
  -5   0  -1   -0.04    1.06   1
   5   0   1    6.15    1.98   2
   5   0   1    6.79    2.50   3
   6   0   1   68.09    5.47   3
  -6   0  -1   69.60    3.95   1
   6   0   1   62.59    4.62   2
   7   0   1    0.27    3.10   3
  -7   0  -1   -1.27    1.41   1
   7   0   1    1.27    2.26   2
  -8   0  -1  331.06    9.79   1
   8   0   1  330.71   11.55   2
   8   0   1  356.67   13.93   3
   9   0   1    2.74    4.73   3
   9   0   1    2.10    3.04   2
  -9   0  -1    0.60    2.08   1
  10   0   1  215.48   10.59   2
  10   0   1  233.68   13.80   3
  11   0   1    0.15    3.27   2
  14  -1  -1   15.66    5.70   2
  13   1  -1   14.43    5.17   2
  13  -1  -1   11.41    4.79   2
  12   1  -1    8.98    4.71   2
  12  -1  -1   14.69    4.77   2
  11   1  -1   29.23    5.39   2
  11  -1  -1   35.88    5.62   2
  10   1  -1   72.21    7.09   3
  10  -1  -1   88.90    7.50   2
  10   1  -1   70.35    6.67   2
   9   1  -1    4.02    3.37   2
   9  -1  -1    4.62    4.02   3
  -9   1   1    2.92    1.95   1
   9   1  -1    5.11    3.48   3
   9  -1  -1    1.39    3.19   2
  -8   1   1    8.96    2.08   1
   8  -1  -1    3.22    2.88   2
   8   1  -1    9.31    3.18   2
   8   1  -1    7.06    3.30   3
  -8  -1   1    8.56    2.12   1
   8  -1  -1   11.02    3.62   3
   7   1  -1   37.82    4.01   2
  -7   1   1   36.06    2.86   1
   7   1  -1   32.92    3.81   3
   7  -1  -1   39.13    4.35   2
   7  -1  -1   37.01    4.06   3
  -7  -1   1   35.81    2.67   1
   6  -1  -1   49.06    4.03   3
  -6  -1   1   55.60    3.12   1
   6  -1  -1   56.27    4.54   2
   6   1  -1   56.60    4.42   2
  -6   1   1   57.43    3.46   1
   6   1  -1   61.51    4.56   3
   5  -1  -1  400.04   10.94   2
  -5   1   1  404.92    9.06   1
   5  -1  -1  425.82   10.65   3
  -5  -1   1  419.26    8.44   1
   5   1  -1  411.46   10.65   2
   5   1  -1  404.42   11.13   3
   4   1  -1 1007.34   20.74   3
   4   1  -1  988.96   19.09   2
  -4   1   1 1020.07   17.72   1
   4  -1  -1 1034.13   19.87   3
  -4  -1   1 1072.63   16.91   1
   3  -1  -1  674.37   13.46   2
   3   1  -1  674.87   13.02   2
  -3  -1   1  681.72   11.15   1
   3   1  -1  666.70   14.21   3
  -3   1   1  679.59   12.11   1
  -2  -1   1 7635.71  121.86   1
   2  -1  -1 8051.33  119.37   2
   2   1  -1 7918.20  120.43   2
   2  -1  -1 8140.55  118.47   1
   1  -1  -1  635.38   10.91   1
   0  -1  -1 5521.89   84.56   1
  -1   1  -1  208.59    4.37   1
  -1  -1  -1  211.04    4.34   1
  -2   1  -1 2977.38   46.01   1
  -2  -1  -1 3003.27   45.95   1
   2  -1   1 3034.47   47.29   2
   2   1   1 3115.13   52.56   3
  -3   1  -1  166.93    4.68   1
   3  -1   1  171.58    5.40   2
   3   1   1  171.11    4.87   2
   3   1   1  171.29    6.09   3
   3  -1   1  172.62    6.43   3
  -3  -1  -1  174.50    4.62   1
   4  -1   1  138.24    5.38   2
   4  -1   1  131.80    6.24   3
   4   1   1  142.87    5.97   3
  -4  -1  -1  143.97    4.53   1
   4   1   1  150.28    5.15   2
  -4   1  -1  136.14    4.59   1
   5   1   1  309.36    8.61   2
   5   1   1  298.08   10.08   3
   5  -1   1  316.46   10.53   3
   5  -1   1  298.28    8.95   2
  -5   1  -1  297.84    7.82   1
  -5  -1  -1  311.34    7.75   1
   6  -1   1  256.28    8.91   2
  -6   1  -1  258.25    7.64   1
   6   1   1  243.43    9.76   3
   6   1   1  272.81    8.65   2
   6  -1   1  253.42   10.25   3
  -6  -1  -1  267.60    7.49   1
  -7  -1  -1   19.63    2.53   1
   7  -1   1   29.21    4.82   3
   7   1   1   19.52    4.23   3
  -7   1  -1   21.64    2.66   1
   7   1   1   25.57    3.41   2
   7  -1   1   26.43    3.56   2
   8  -1   1   -2.23    4.10   3
  -8   1  -1    0.95    1.99   1
  -8  -1  -1    2.83    1.99   1
   8   1   1    5.53    3.94   3
   8   1   1   -0.80    2.70   2
   8  -1   1    6.00    3.03   2
   9   1   1   92.60    6.66   2
   9   1   1   68.39    7.84   3
  -9   1  -1   72.74    5.05   1
   9  -1   1   87.55    8.76   3
  -9  -1  -1   73.99    4.95   1
   9  -1   1   75.22    6.45   2
  10  -1   1   31.14    5.07   2
  10  -1   1   18.77    7.00   3
  10   1   1   29.78    7.02   3
  10   1   1   31.62    4.97   2
  11   1   1   11.26    4.17   2
  11  -1   1    9.48    4.13   2
  11   1   1    1.75    6.16   3
  12  -1   1   15.58    4.93   2
  14  -2  -1    3.37    4.70   2
  13  -2  -1    4.62    4.16   2
  12  -2  -1   12.00    4.83   2
  12   2  -1   -1.52    3.72   2
  11   2  -1   11.05    5.03   3
  11  -2  -1   10.36    4.15   2
  11   2  -1   14.88    4.65   2
  10   2  -1    9.41    4.07   2
  10  -2  -1   10.06    4.06   2
  10   2  -1    4.07    4.11   3
  -9   2   1   -1.23    1.83   1
   9   2  -1    2.39    3.21   3
   9   2  -1    0.45    3.15   2
   9  -2  -1   -2.56    2.79   2
   8   2  -1  244.89    9.85   2
  -8   2   1  252.59    8.08   1
   8   2  -1  269.30   10.89   3
   8  -2  -1  260.46   10.76   3
   8  -2  -1  247.56   10.30   2
   7  -2  -1    4.18    2.70   3
   7   2  -1   -1.59    2.24   2
  -7   2   1    1.91    1.54   1
  -7  -2   1    0.82    1.26   1
   7   2  -1    2.97    2.33   3
   7  -2  -1   -0.39    2.22   2
   6   2  -1  946.06   22.06   3
  -6  -2   1  987.94   17.17   1
   6  -2  -1  991.86   21.08   3
   6  -2  -1  962.19   21.01   2
  -6   2   1  994.73   18.65   1
   6   2  -1  971.21   20.29   2
   5   2  -1   -0.24    1.41   3
   5  -2  -1    3.67    1.92   3
  -5   2   1    0.40    1.05   1
  -5  -2   1    1.30    0.91   1
   5   2  -1    0.27    1.92   2
   5  -2  -1   -0.48    1.90   2
   4  -2  -1  997.34   19.71   2
   4   2  -1 1006.54   18.82   2
  -4   2   1 1013.36   18.12   1
   4  -2  -1  996.78   19.37   3
  -4  -2   1 1027.51   16.41   1
   4   2  -1 1023.40   21.25   3
   3   2  -1   45.57    3.09   3
  -3  -2   1   45.84    1.53   1
  -3   2   1   42.50    2.34   1
   3   2  -1   43.63    2.70   2
   3  -2  -1   43.30    3.09   2
   2  -2  -1  187.08    5.39   2
   2  -2  -1  191.71    4.95   1
   2   2  -1  199.63    4.89   2
   1   2  -1   37.85    1.05   1
   1  -2  -1   40.07    1.83   1
   0  -2  -1  -12.14    0.52   1
   0   2  -1  -11.49    0.47   1
  -1  -2  -1   -0.47    0.51   1
  -1   2  -1   -0.36    0.48   1
   2  -2   1  282.02    6.93   2
  -2   2  -1  287.08    6.37   1
   2   2   1  277.72    7.59   3
  -2  -2  -1  287.30    5.99   1
  -3  -2  -1  104.72    3.52   1
   3  -2   1  105.67    5.51   3
  -3   2  -1  102.32    3.75   1
   3  -2   1  106.88    4.33   2
   3   2   1  115.79    3.76   2
   3   2   1  111.56    4.80   3
  -4  -2  -1  524.38   10.60   1
   4  -2   1  516.01   13.75   3
   4   2   1  541.24   11.12   2
  -4   2  -1  528.86   11.15   1
   4  -2   1  517.17   12.24   2
  -5  -2  -1  161.31    5.32   1
  -5   2  -1  165.69    5.62   1
   5   2   1  155.52    7.02   3
   5  -2   1  162.48    6.67   2
   5   2   1  158.75    5.82   2
   5  -2   1  159.18    7.95   3
   6   2   1  356.19   10.16   2
   6   2   1  355.08   11.89   3
   6  -2   1  350.70   12.34   3
  -6   2  -1  363.88    9.57   1
   6  -2   1  362.52   11.07   2
  -6  -2  -1  371.17    9.15   1
   7  -2   1   43.69    4.35   2
  -7  -2  -1   48.54    3.59   1
  -7   2  -1   47.11    3.63   1
   7  -2   1   53.73    6.20   3
   7   2   1   39.59    4.00   2
   7   2   1   45.75    4.92   3
  -8   2  -1  236.84    8.20   1
   8   2   1  232.54   11.05   3
   8  -2   1  213.17   11.46   3
  -8  -2  -1  241.20    7.93   1
   8  -2   1  213.93    9.64   2
   8   2   1  226.44    8.99   2
  -9   2  -1   50.54    4.42   1
   9   2   1   53.76    6.86   3
   9   2   1   44.97    5.14   2
   9  -2   1   45.03    5.33   2
   9  -2   1   48.97    7.67   3
  10   2   1   60.16    7.99   3
  10   2   1   53.52    5.78   2
 -10   2  -1   51.47    5.01   1
  10  -2   1   73.97    6.88   2
  11   2   1   69.13    9.24   3
  11  -2   1   61.90    6.81   2
  12  -2   1    2.07    3.93   2
  14  -3  -1   19.67    6.06   2
  13  -3  -1    4.84    4.45   2
  12  -3  -1   16.92    5.12   2
  11   3  -1   -3.18    4.36   3
  11  -3  -1    3.06    3.58   2
  11   3  -1   10.00    4.17   2
  10   3  -1  118.70    7.97   2
  10   3  -1  109.04    8.63   3
 -10   3   1  106.89    6.17   1
  10  -3  -1  119.00    8.38   2
   9  -3  -1   18.42    4.36   2
   9   3  -1    7.79    3.76   3
   9   3  -1   13.58    3.92   2
  -9   3   1    7.95    2.50   1
   8   3  -1    3.23    2.94   2
   8   3  -1   -1.18    2.48   3
   8  -3  -1    0.30    2.89   2
  -8   3   1    3.97    2.07   1
  -7  -3   1    2.42    1.33   1
   7   3  -1    3.65    2.47   3
   7  -3  -1    9.99    3.54   3
   7  -3  -1    2.07    2.55   2
  -7   3   1    3.48    1.70   1
   7   3  -1    4.57    2.70   2
   6  -3  -1    8.15    3.01   3
   6  -3  -1    9.33    2.85   2
  -6  -3   1   11.04    1.57   1
  -6   3   1   11.17    2.11   1
   6   3  -1   11.59    2.79   2
   6   3  -1    9.34    2.64   3
   5   3  -1    5.62    2.20   2
   5   3  -1   11.43    2.38   3
  -5  -3   1    9.77    1.29   1
   5  -3  -1    7.25    2.29   2
   5  -3  -1    2.93    2.26   3
  -5   3   1   10.29    1.76   1
  -4  -3   1 2482.10   37.94   1
   4  -3  -1 2479.37   42.47   2
   4   3  -1 2534.61   46.46   3
  -4   3   1 2547.79   40.51   1
   4   3  -1 2488.16   40.89   2
   3  -3  -1  222.80    6.87   2
  -3  -3   1  227.74    4.15   1
   3  -3  -1  228.65    6.27   1
   3   3  -1  217.00    5.96   2
   2  -3  -1  313.91    7.80   2
   2  -3  -1  334.70    7.60   1
   2   3  -1  333.94    7.10   2
  -1  -3   1  115.16    2.76   1
   1  -3  -1  121.10    3.81   1
   1   3  -1  125.78    3.53   2
   0   3  -1 3478.00   53.02   1
   0  -3  -1 3581.23   53.50   1
  -1   3  -1 3368.64   50.97   1
  -1  -3  -1 3349.86   50.56   1
   1   3   1 3338.65   57.39   3
  -2   3  -1  946.07   16.66   1
  -2  -3  -1  946.86   15.76   1
  -3   3  -1   79.23    3.44   1
  -3  -3  -1   81.00    3.04   1
   3   3   1   78.06    4.18   3
   3   3   1   80.39    3.11   2
   3  -3   1   84.20    4.02   2
   4  -3   1 1355.85   28.17   3
   4   3   1 1373.75   28.41   3
  -4   3  -1 1418.17   24.50   1
   4  -3   1 1396.66   26.09   2
  -4  -3  -1 1396.19   23.32   1
   4   3   1 1442.68   24.02   2
   5   3   1  168.01    7.38   3
   5   3   1  171.02    5.88   2
   5  -3   1  155.37    6.72   2
  -5   3  -1  167.39    5.96   1
   5  -3   1  155.73    7.87   3
  -5  -3  -1  168.19    5.37   1
   6  -3   1   72.92    5.12   2
  -6   3  -1   71.05    4.13   1
   6  -3   1   68.02    6.12   3
   6   3   1   76.63    4.83   2
   6   3   1   67.82    5.38   3
  -6  -3  -1   71.76    3.99   1
   7  -3   1  123.31    8.55   3
  -7   3  -1  123.11    5.75   1
   7  -3   1  128.38    7.17   2
   7   3   1  130.32    6.46   2
   7   3   1  115.24    7.53   3
  -7  -3  -1  126.42    5.39   1
   8  -3   1    1.04    2.81   2
  -8   3  -1   -0.50    1.92   1
  -8  -3  -1    1.60    1.89   1
   8  -3   1    2.62    5.03   3
   8   3   1    3.99    3.57   3
   8   3   1    0.15    2.57   2
   9  -3   1   10.94    3.60   2
  -9   3  -1    8.29    2.73   1
   9   3   1   16.36    3.77   2
   9   3   1    6.81    4.35   3
  10  -3   1  166.08    9.82   2
 -10   3  -1  160.73    7.89   1
  10   3   1  181.61   12.29   3
  11   3   1   11.16    6.21   3
  11  -3   1    4.69    3.90   2
  12  -3   1   32.65    6.17   2
  12   3   1    5.40    7.13   3
  13  -3   1    9.17    4.82   2
  14  -4  -1   -3.50    4.12   2
  13  -4  -1    1.92    4.02   2
  12  -4  -1    7.69    4.35   2
  12   4  -1   -5.23    4.69   3
  11   4  -1    0.10    4.18   3
  11   4  -1    2.57    3.77   2
  11  -4  -1    0.34    3.82   2
 -10   4   1   40.20    4.43   1
  10  -4  -1   36.38    5.70   2
  10   4  -1   46.18    5.65   2
  10   4  -1   32.77    5.75   3
   9  -4  -1   -0.06    3.17   2
   9   4  -1   -2.18    2.93   2
  -9   4   1    0.41    2.18   1
   9   4  -1   -0.21    3.10   3
   8   4  -1  160.21    8.01   2
  -8   4   1  169.58    7.06   1
   8   4  -1  160.15    8.90   3
   8  -4  -1  168.60    8.80   2
   7   4  -1    7.32    2.89   2
   7  -4  -1   19.20    4.06   3
  -7   4   1   17.12    2.66   1
   7   4  -1   20.64    3.64   3
   7  -4  -1   16.12    3.69   2
   6  -4  -1  265.92    9.93   2
  -6   4   1  265.22    8.29   1
   6  -4  -1  274.29    9.27   3
  -6  -4   1  259.62    6.08   1
   6   4  -1  255.84    8.51   2
   6   4  -1  274.05   10.35   3
   5  -4  -1  156.57    6.09   3
   5   4  -1  146.93    6.97   3
   5   4  -1  153.08    6.08   2
   5  -4  -1  156.73    6.94   2
  -5  -4   1  160.74    3.97   1
  -5   4   1  154.87    5.90   1
   4   4  -1  504.65   11.37   2
  -4   4   1  511.24   11.69   1
   4  -4  -1  505.38   12.79   2
  -4  -4   1  534.82    8.94   1
   4   4  -1  547.54   14.24   3
   3  -4  -1    6.19    1.80   2
   3   4  -1    5.70    1.26   2
  -3  -4   1    5.84    0.70   1
   3  -4  -1    5.56    1.32   1
   2  -4  -1   55.32    2.98   1
  -2  -4   1   57.47    1.90   1
   2   4  -1   51.08    2.43   2
   2  -4  -1   53.40    3.12   2
   1  -4  -1  127.83    4.29   1
  -1  -4   1  120.90    3.27   1
   1   4  -1  128.22    3.90   2
   0  -4  -1    8.95    1.33   1
   0   4  -1    5.04    0.97   1
   1   4   1   25.35    2.22   3
  -1   4  -1   24.45    1.84   1
  -1  -4  -1   21.51    1.63   1
   2   4   1  296.38    8.56   3
  -2   4  -1  305.10    7.42   1
  -2  -4  -1  309.59    6.60   1
   3   4   1   24.57    2.69   3
  -3  -4  -1   25.92    1.83   1
  -3   4  -1   20.71    2.01   1
   3   4   1   27.94    2.00   2
   4  -4   1  771.03   16.90   2
  -4  -4  -1  765.37   13.92   1
   4   4   1  733.73   17.96   3
  -4   4  -1  738.13   15.38   1
   4   4   1  777.42   14.40   2
   5  -4   1    3.42    1.97   2
  -5  -4  -1    6.29    1.46   1
  -5   4  -1    7.31    1.73   1
   5   4   1   10.11    2.68   3
   5   4   1    5.98    1.99   2
   6   4   1  691.93   14.89   2
  -6   4  -1  661.71   15.14   1
   6   4   1  678.04   18.45   3
   6  -4   1  680.48   17.17   2
  -6  -4  -1  669.17   13.64   1
   7  -4   1    6.87    2.78   2
  -7   4  -1    9.57    2.39   1
   7  -4   1   13.63    4.50   3
   7   4   1    6.67    2.50   2
  -7  -4  -1    6.84    2.00   1
   7   4   1    4.81    2.92   3
   8  -4   1   50.29    5.27   2
  -8   4  -1   54.09    4.50   1
   8  -4   1   61.85    7.30   3
   8   4   1   60.42    5.00   2
   8   4   1   55.08    6.04   3
   9   4   1   -1.08    3.78   3
   9  -4   1   -0.67    2.81   2
   9   4   1    7.76    3.40   2
  -9   4  -1   -1.08    2.03   1
  10   4   1    9.87    5.38   3
 -10   4  -1    7.94    3.16   1
  10  -4   1   14.27    4.19   2
  11  -4   1   17.77    4.94   2
 -11   4  -1    5.18    3.22   1
  11   4   1    6.84    6.12   3
  12   4   1   -5.88    5.82   3
  12  -4   1    1.37    4.00   2
  13  -4   1    5.02    4.77   2
  13  -5  -1   -0.90    3.74   2
  12   5  -1    8.36    5.71   3
  12  -5  -1   17.63    5.42   2
  11   5  -1   -0.50    4.25   3
  11  -5  -1   -1.63    3.62   2
  10   5  -1   30.22    5.14   2
  10  -5  -1   26.12    5.22   2
 -10   5   1   20.41    3.77   1
  10   5  -1   23.37    5.33   3
   9   5  -1   -0.56    3.11   2
   9   5  -1    4.54    3.53   3
  -9   5   1   -0.75    2.09   1
   9  -5  -1    1.86    3.46   2
   8  -5  -1    4.97    3.34   2
  -8   5   1   -0.72    1.99   1
   8   5  -1    3.09    2.73   2
   8   5  -1   -0.44    2.87   3
   7  -5  -1   25.65    4.21   2
   7   5  -1   35.35    4.53   3
  -7   5   1   26.91    3.24   1
   7   5  -1   23.29    3.63   2
   6   5  -1  189.86    7.21   2
   6   5  -1  173.47    8.47   3
  -6  -5   1  185.98    4.65   1
   6  -5  -1  169.86    8.16   2
  -6   5   1  163.99    6.69   1
   5  -5  -1  268.84    9.52   2
  -5  -5   1  268.84    5.62   1
  -5   5   1  266.54    8.28   1
   5   5  -1  275.47   10.24   3
   5   5  -1  263.17    8.05   2
   4  -5  -1    0.93    1.69   2
  -4   5   1    1.66    1.37   1
  -4  -5   1    1.60    0.74   1
   4   5  -1    0.37    1.66   3
   4   5  -1    1.87    1.45   2
   3   5  -1  134.10    4.54   2
   3  -5  -1  131.85    5.20   1
  -3  -5   1  135.17    3.39   1
   3  -5  -1  121.54    5.36   2
  -2  -5   1  111.07    3.19   1
   2   5  -1  109.24    3.84   2
   2  -5  -1  101.88    4.49   2
   2  -5  -1  101.39    4.31   1
   1   5  -1  453.31    9.71   2
  -1  -5   1  456.85    8.92   1
   1  -5  -1  455.07   10.19   1
   0   5  -1   64.06    2.90   1
   0  -5   1   62.99    2.82   1
   0  -5  -1   72.30    3.25   1
   1   5   1  164.14    5.79   3
  -1  -5  -1  174.51    4.95   1
  -1   5  -1  167.38    5.10   1
  -2   5  -1   23.44    2.12   1
   2   5   1   18.65    2.32   3
   2   5   1   23.83    1.52   2
  -2  -5  -1   23.32    1.79   1
   3   5   1  141.69    4.22   2
  -3   5  -1  148.11    5.32   1
   3   5   1  140.27    6.23   3
  -3  -5  -1  149.33    4.38   1
   4   5   1  547.28   15.22   3
   4   5   1  578.39   11.51   2
  -4  -5  -1  576.76   11.14   1
  -4   5  -1  550.15   12.78   1
  -5   5  -1  626.10   14.28   1
   5  -5   1  606.81   15.82   2
   5   5   1  638.63   13.22   2
   5   5   1  616.68   17.02   3
  -5  -5  -1  621.91   12.31   1
   6  -5   1   59.58    4.99   2
   6   5   1   65.30    4.31   2
   6   5   1   53.81    5.10   3
  -6  -5  -1   63.25    3.62   1
  -6   5  -1   60.42    4.22   1
  -7   5  -1   12.89    2.58   1
  -7  -5  -1   12.94    2.11   1
   7   5   1   14.98    2.91   2
   7   5   1   12.60    3.70   3
   7  -5   1   13.79    3.33   2
   8   5   1   52.55    6.20   3
   8  -5   1   47.14    5.38   2
   8   5   1   51.77    4.75   2
  -8   5  -1   43.17    4.17   1
  -9   5  -1    0.55    2.43   1
   9  -5   1    4.31    3.33   2
   9   5   1   -0.33    3.81   3
  10   5   1   79.41    8.56   3
 -10   5  -1   70.10    5.89   1
  10  -5   1   70.16    7.12   2
 -11   5  -1    0.28    2.72   1
  11  -5   1    0.39    3.70   2
  11   5   1    3.17    5.59   3
  12   5   1    1.43    6.47   3
  12  -5   1   14.46    4.88   2
  13   5   1   -8.87    7.02   3
  13  -5   1    3.47    4.01   2
  13  -6  -1    7.15    4.85   2
  13   6  -1   -0.69    5.91   3
  12   6  -1    1.35    5.38   3
  12  -6  -1   -2.41    3.45   2
 -11   6   1   -0.92    2.69   1
  11  -6  -1    1.43    3.66   2
  11   6  -1   -1.88    4.16   3
  10  -6  -1   31.89    5.56   2
  10   6  -1   33.64    6.15   3
  10   6  -1   33.69    5.06   2
 -10   6   1   24.09    4.20   1
   9   6  -1   16.21    4.18   2
  -9   6   1   22.58    3.77   1
   9  -6  -1   18.33    4.42   2
   9   6  -1   21.23    4.61   3
  -8   6   1   87.86    5.80   1
   8  -6  -1   67.83    6.34   2
   8   6  -1   77.32    6.02   2
   8   6  -1   69.20    6.48   3
   7  -6  -1   18.65    3.85   2
   7   6  -1   17.29    3.26   2
  -7   6   1   17.28    3.06   1
   7   6  -1   14.10    3.64   3
   6   6  -1  100.14    5.52   2
  -6   6   1  106.79    5.69   1
   6  -6  -1  116.28    6.81   2
   6   6  -1  111.10    7.08   3
  -5  -6   1  137.54    3.74   1
  -5   6   1  133.65    5.96   1
   5   6  -1  132.01    5.57   2
   5   6  -1  131.46    7.30   3
   5  -6  -1  131.04    6.79   2
   4   6  -1  137.44    7.11   3
   4  -6  -1  149.18    6.77   2
  -4  -6   1  142.11    3.81   1
  -4   6   1  151.64    6.12   1
   4   6  -1  138.62    5.24   2
   3  -6  -1   18.24    2.32   1
   3  -6  -1   14.00    2.28   2
   3   6  -1   16.61    1.88   2
  -3  -6   1   20.70    1.50   1
   2  -6  -1   75.16    4.05   1
  -2  -6   1   85.76    3.10   1
   2   6  -1   74.50    3.44   2
   1  -6  -1   12.62    1.92   1
  -1  -6   1   13.66    1.55   1
   1   6  -1   11.83    1.66   2
   0  -6   1    9.00    1.43   1
   0  -6  -1    8.51    1.53   1
  -1   6  -1    1.72    1.01   1
  -1  -6  -1    2.03    1.05   1
   1   6   1    2.56    1.37   3
  -2   6  -1  118.05    4.74   1
   2   6   1  115.02    3.67   2
   2   6   1  118.83    5.62   3
  -2  -6  -1  121.25    4.23   1
   3   6   1   24.33    3.00   3
  -3   6  -1   26.48    2.57   1
   3   6   1   27.93    2.00   2
  -3  -6  -1   31.45    2.29   1
  -4  -6  -1  368.11    8.35   1
   4   6   1  358.20   11.87   3
  -4   6  -1  351.52    9.88   1
   4   6   1  367.03    8.46   2
   5   6   1    5.23    1.93   2
  -5   6  -1    3.60    1.77   1
   5   6   1    0.27    2.14   3
  -5  -6  -1    0.20    1.15   1
  -6   6  -1  404.50   11.53   1
   6   6   1  403.32   10.50   2
   6   6   1  385.65   13.75   3
  -6  -6  -1  393.26    9.28   1
   6  -6   1  403.88   13.21   2
   7   6   1    0.13    2.41   2
   7  -6   1    3.15    2.67   2
   7   6   1    4.42    3.26   3
  -7   6  -1    7.33    2.53   1
   8   6   1   36.70    5.74   3
  -8   6  -1   28.92    3.97   1
   8  -6   1   36.29    5.08   2
   9  -6   1   -1.22    2.95   2
   9   6   1   -0.91    3.92   3
  -9   6  -1    0.30    2.47   1
  10  -6   1    1.76    3.46   2
  10   6   1    6.38    5.04   3
 -10   6  -1   -1.43    2.57   1
  11   6   1   -2.96    5.00   3
  11  -6   1   -5.79    2.68   2
 -11   6  -1    1.39    3.14   1
  12   6   1   -6.72    6.20   3
  13   6   1   -2.30    7.31   3
  13  -7  -1    2.03    4.23   2
  13   7  -1    4.65    6.56   3
  12  -7  -1   33.68    6.42   2
  12   7  -1   33.05    7.45   3
  11   7  -1   -3.86    3.94   3
 -11   7   1    6.16    3.49   1
  11  -7  -1   -2.57    3.31   2
  10  -7  -1  134.29    9.65   2
  10   7  -1  160.15   10.99   3
 -10   7   1  142.45    8.12   1
   9   7  -1   41.74    5.23   2
  -9   7   1   40.10    4.49   1
   9  -7  -1   42.18    5.97   2
   9   7  -1   44.64    6.06   3
   8   7  -1  181.36   10.48   3
   8   7  -1  171.40    8.37   2
   8  -7  -1  163.55    9.34   2
  -8   7   1  159.64    7.92   1
   7  -7  -1   15.09    3.68   2
   7   7  -1    8.32    3.27   3
   7   7  -1   12.65    3.32   2
  -7   7   1   10.70    2.82   1
   6   7  -1   45.68    3.99   2
  -6   7   1   43.41    4.06   1
   6  -7  -1   38.82    4.70   2
   6   7  -1   47.23    5.15   3
  -5  -7   1   60.22    2.58   1
   5   7  -1   54.28    5.06   3
   5   7  -1   55.02    3.87   2
  -5   7   1   58.17    4.25   1
   5  -7  -1   53.02    4.77   2
  -4  -7   1   60.61    2.65   1
   4   7  -1   48.41    3.27   2
   4  -7  -1   49.71    4.26   2
   4  -7  -1   55.48    4.01   1
   4   7  -1   57.68    5.15   3
   3  -7  -1    6.00    1.90   1
   3   7  -1    8.52    1.55   2
  -3  -7   1    7.11    1.23   1
   2  -7  -1  471.09   11.79   1
   2   7  -1  466.53   10.75   2
  -2  -7   1  500.43   10.04   1
  -1  -7   1    6.34    1.31   1
   1  -7  -1    5.97    1.62   1
   1   7  -1    5.91    1.43   2
   0  -7   1  181.21    5.77   1
   0  -7  -1  176.61    6.06   1
  -1   7  -1    1.92    1.28   1
  -1  -7  -1    0.92    1.14   1
   1   7   1    1.58    1.47   3
  -2  -7  -1   42.40    2.73   1
   2   7   1   36.75    3.56   3
  -2   7  -1   28.98    2.70   1
   2   7   1   36.67    2.23   2
  -3  -7  -1  467.72   10.45   1
  -3   7  -1  485.81   12.07   1
   3   7   1  492.90   14.11   3
   3   7   1  496.35   10.11   2
   4   7   1   81.19    5.66   3
  -4  -7  -1   80.48    3.79   1
   4   7   1   90.14    3.87   2
  -4   7  -1   85.90    4.90   1
   5   7   1    7.62    2.06   2
  -5  -7  -1    6.66    1.54   1
  -5   7  -1    4.69    2.00   1
   5   7   1    2.67    2.34   3
   6   7   1    1.47    2.27   2
   6   7   1    4.44    3.02   3
  -6   7  -1    3.49    2.36   1
  -6  -7  -1    0.42    1.35   1
   7   7   1   11.47    3.80   3
  -7   7  -1   10.37    2.89   1
   8   7   1   96.03    8.24   3
  -8   7  -1   87.46    6.28   1
  -9   7  -1    0.95    2.67   1
   9   7   1    3.39    4.26   3
  10   7   1   56.75    7.96   3
 -10   7  -1   57.46    5.81   1
 -11   7  -1    1.95    3.05   1
  11   7   1    1.77    5.50   3
 -12   7  -1   23.27    5.12   1
  12   7   1   28.18    7.91   3
  13   7   1   -6.71    6.98   3
  13   8  -1   -6.29    5.70   3
  13  -8  -1    2.39    4.40   2
  12  -8  -1    9.19    5.17   2
  12   8  -1    7.91    6.03   3
 -11   8   1    5.74    3.60   1
  11   8  -1    7.65    5.08   3
  11  -8  -1    5.11    4.14   2
  10  -8  -1   26.46    5.48   2
  10   8  -1   31.39    6.42   3
 -10   8   1   33.49    4.92   1
   9  -8  -1   -0.99    2.75   2
   9   8  -1   -1.99    3.22   3
  -9   8   1   -0.56    2.43   1
   8   8  -1  162.63    8.27   2
   8  -8  -1  176.20    9.92   2
   8   8  -1  162.68   10.38   3
  -8   8   1  172.71    8.50   1
   7   8  -1   -2.47    2.46   2
   7  -8  -1    8.43    3.43   2
   7   8  -1    4.18    2.95   3
  -7   8   1    2.48    2.39   1
   6   8  -1  218.49   10.61   3
   6   8  -1  223.13    8.00   2
   6  -8  -1  196.78    9.50   2
  -6   8   1  216.40    8.73   1
   5  -8  -1    0.75    2.29   2
   5   8  -1    5.40    2.74   3
  -5   8   1    2.75    2.13   1
   5   8  -1    0.18    1.62   2
  -4  -8   1  294.08    6.92   1
   4  -8  -1  276.90    9.47   1
   4   8  -1  285.33   11.35   3
   4   8  -1  287.68    8.20   2
   3  -8  -1    8.26    2.06   1
  -3  -8   1   10.43    1.53   1
   3   8  -1   14.50    1.94   2
   2  -8  -1  143.29    6.15   1
   2   8  -1  139.50    5.32   2
  -2  -8   1  149.86    4.97   1
   1   8  -1    4.50    1.49   2
   1  -8  -1    5.85    1.76   1
  -1  -8   1    4.96    1.47   1
   0  -8   1    0.97    1.23   1
   0  -8  -1    2.91    1.49   1
   1   8   1    6.36    1.98   3
  -1   8  -1    7.18    1.69   1
  -1  -8  -1    5.65    1.60   1
  -2   8  -1  121.66    5.39   1
  -2  -8  -1  119.19    4.86   1
   2   8   1  110.25    6.13   3
   2   8   1  116.34    4.25   2
   3   8   1   44.15    4.29   3
   3   8   1   39.71    2.55   2
  -3  -8  -1   41.47    2.96   1
  -3   8  -1   39.63    3.49   1
   4   8   1  663.21   13.39   2
  -4   8  -1  657.87   15.75   1
  -4  -8  -1  660.61   13.65   1
   4   8   1  644.11   18.36   3
   5   8   1   14.45    3.53   3
  -5  -8  -1   13.89    2.08   1
   5   8   1   12.37    2.32   2
  -5   8  -1   12.93    2.66   1
  -6   8  -1  428.75   12.78   1
   6   8   1  402.57   14.95   3
   6   8   1  421.16   10.95   2
   7   8   1   12.06    4.13   3
  -7   8  -1   12.37    3.15   1
  -8   8  -1  171.46    8.54   1
   8   8   1  171.84   10.91   3
   9   8   1    0.44    3.87   3
  -9   8  -1    5.74    3.03   1
 -10   8  -1   10.80    3.59   1
  10   8   1   19.51    5.92   3
  11   8   1    7.46    5.60   3
 -11   8  -1    4.71    3.72   1
  12   8   1   -1.31    6.27   3
 -12   8  -1   -0.12    3.74   1
  13   8   1   -7.84    7.14   3
  13   9  -1   -4.57    5.88   3
 -12   9   1    2.20    3.96   1
  12   9  -1    8.80    6.19   3
  11   9  -1    5.97    5.38   3
  11  -9  -1    4.42    4.16   2
 -11   9   1    4.67    3.82   1
  10   9  -1   50.64    7.63   3
 -10   9   1   34.47    5.18   1
  10  -9  -1   57.09    7.25   2
   9   9  -1   -0.22    3.51   3
   9  -9  -1   -0.27    3.06   2
  -9   9   1   -2.57    2.43   1
   8  -9  -1   41.30    5.98   2
   8   9  -1   35.04    4.71   2
  -8   9   1   38.38    4.94   1
   8   9  -1   44.88    6.41   3
   7   9  -1    0.02    2.65   2
   7  -9  -1   -2.75    2.64   2
   7   9  -1    3.56    3.10   3
  -7   9   1    1.85    2.65   1
  -6   9   1    4.38    2.70   1
   6   9  -1    0.49    2.12   2
   6   9  -1   -1.07    2.70   3
   5   9  -1   39.83    4.84   3
  -5   9   1   34.62    4.07   1
   5   9  -1   42.34    3.56   2
   4  -9  -1  523.56   14.17   1
   4   9  -1  489.92   12.08   2
   4   9  -1  479.51   16.04   3
  -4  -9   1  525.28   10.79   1
  -3  -9   1   22.35    2.19   1
   3  -9  -1   23.54    3.13   1
   3   9  -1   21.12    2.42   2
   2   9  -1  472.83   11.67   2
  -2  -9   1  496.56   11.04   1
   2  -9  -1  481.16   12.89   1
  -1  -9   1   29.20    2.63   1
   1   9  -1   25.80    2.73   2
   1  -9  -1   22.62    2.76   1
   0  -9  -1 1095.03   21.62   1
   0  -9   1 1073.53   20.98   1
  -1   9  -1   30.47    2.98   1
  -1  -9  -1   33.83    3.07   1
   1   9   1   38.71    3.81   3
   2   9   1  261.84   10.01   3
  -2   9  -1  269.24    8.70   1
   2   9   1  278.93    7.52   2
  -2  -9  -1  282.02    8.26   1
   3   9   1   31.48    2.46   2
   3   9   1   22.62    3.48   3
  -3  -9  -1   29.50    2.82   1
  -3   9  -1   23.76    3.15   1
   4   9   1  854.44   22.48   3
   4   9   1  849.37   16.50   2
  -4   9  -1  856.91   19.26   1
  -4  -9  -1  828.70   16.84   1
  -5   9  -1    0.88    1.96   1
   5   9   1   -0.53    2.34   3
  -5  -9  -1    4.67    1.64   1
   5   9   1   -1.81    1.62   2
  -6   9  -1   37.31    4.33   1
   6   9   1   35.47    5.14   3
   7   9   1   11.26    4.20   3
  -7   9  -1    8.48    3.01   1
  -8   9  -1   -1.68    2.74   1
   8   9   1    1.20    4.11   3
  -9   9  -1    4.77    3.48   1
   9   9   1    7.33    4.80   3
 -10   9  -1   57.99    6.06   1
  10   9   1   64.42    8.64   3
 -11   9  -1   -0.14    3.53   1
  11   9   1   -2.25    5.46   3
 -12   9  -1    9.44    4.68   1
  12   9   1   -0.68    6.58   3
 -12  10   1    1.48    3.97   1
  12  10  -1   -6.27    5.03   3
  11  10  -1   -2.68    4.30   3
 -11  10   1   -0.81    3.38   1
  10  10  -1   47.33    7.24   3
 -10  10   1   45.42    5.62   1
  -9  10   1    2.05    3.04   1
   9  10  -1    1.83    4.12   3
  -8  10   1  168.90    8.90   1
   8  10  -1  154.67   10.71   3
  -7  10   1    0.98    2.48   1
   7  10  -1   -2.49    2.85   3
   7  10  -1   -1.79    2.60   2
   6  10  -1  422.52   16.20   3
   6  10  -1  436.66   12.10   2
  -6  10   1  444.39   13.87   1
   5  10  -1   18.43    2.81   2
   5  10  -1   12.55    3.59   3
  -5  10   1   15.72    3.23   1
   4 -10  -1  428.00   13.09   1
   4  10  -1  415.83   11.10   2
   4  10  -1  400.86   14.80   3
  -4 -10   1  444.91    9.99   1
  -3 -10   1   21.33    2.32   1
   3 -10  -1   21.30    3.28   1
   3  10  -1   19.29    2.50   2
   2  10  -1  118.01    5.40   2
  -2 -10   1  118.73    5.14   1
   2 -10  -1  116.32    6.08   1
   1 -10  -1   34.25    3.39   1
   1  10  -1   26.17    2.86   2
  -1 -10   1   30.20    2.90   1
   0 -10  -1    1.85    1.67   1
   0 -10   1    3.97    1.80   1
   1  10   1    4.28    2.22   3
  -1  10  -1    3.76    1.78   1
  -1 -10  -1   11.14    2.20   1
  -2 -10  -1  178.09    6.65   1
   2  10   1  168.87    5.96   2
  -2  10  -1  174.55    7.14   1
   2  10   1  174.04    8.20   3
   3  10   1    4.68    1.54   2
  -3 -10  -1    5.71    1.86   1
   3  10   1    0.58    2.02   3
  -3  10  -1    5.12    2.25   1
  -4  10  -1  348.57   11.24   1
   4  10   1  338.99    8.88   2
   4  10   1  355.03   13.30   3
  -4 -10  -1  328.19    9.35   1
  -5 -10  -1   12.25    2.26   1
   5  10   1   12.98    3.79   3
  -5  10  -1    7.58    2.90   1
  -6  10  -1  492.89   14.75   1
   6  10   1  477.81   17.72   3
  -7  10  -1   36.56    4.61   1
   7  10   1   31.64    5.75   3
   8  10   1  208.55   12.49   3
  -8  10  -1  229.94   10.53   1
   9  10   1    4.96    4.56   3
  -9  10  -1    7.34    3.64   1
 -10  10  -1   37.57    5.69   1
  10  10   1   37.18    7.32   3
 -11  10  -1   -0.84    3.46   1
  11  10   1    0.96    5.38   3
 -12  10  -1   -0.79    3.72   1
  12  10   1    5.88    6.59   3
  12  11  -1   35.18    8.57   3
 -12  11   1   25.74    5.72   1
  11  11  -1   -2.13    4.96   3
 -11  11   1   -2.35    3.48   1
  10  11  -1   25.87    6.60   3
 -10  11   1   18.70    4.84   1
   9  11  -1    6.81    4.48   3
  -9  11   1   12.73    4.20   1
   8  11  -1   79.54    8.40   3
  -8  11   1   92.42    7.16   1
   7  11  -1    5.95    3.81   3
  -7  11   1   -0.49    2.73   1
  -6  11   1    4.11    3.06   1
   6  11  -1    5.18    3.34   3
   6  11  -1    6.11    2.81   2
  -5  11   1   28.61    4.07   1
   5  11  -1   18.98    2.95   2
   5  11  -1   24.69    4.49   3
   4  11  -1  366.49   10.45   2
   4 -11  -1  374.96   12.45   1
   4  11  -1  351.64   14.04   3
   3  11  -1    1.35    1.55   2
   3 -11  -1   -1.46    1.82   1
  -3 -11   1   -0.82    1.42   1
  -2 -11   1  381.36   10.18   1
   2 -11  -1  379.12   11.85   1
   2  11  -1  357.99   10.57   2
  -1 -11   1    4.55    1.98   1
   1 -11  -1    4.00    2.00   1
   1  11  -1    3.51    1.89   2
   0 -11  -1 1358.28   26.87   1
   0 -11   1 1376.29   26.47   1
   1  11   1  305.42   11.17   3
  -1 -11  -1  308.89    9.75   1
  -1  11  -1  308.94    9.77   1
  -2  11  -1 1034.68   22.17   1
   2  11   1 1074.44   25.57   3
   2  11   1 1031.50   20.43   2
  -2 -11  -1 1027.60   21.25   1
   3  11   1  193.51    9.49   3
   3  11   1  164.53    6.17   2
  -3  11  -1  192.55    8.02   1
  -3 -11  -1  184.96    7.05   1
   4  11   1  157.33    9.07   3
   4  11   1  172.75    6.23   2
  -4  11  -1  166.31    7.93   1
  -4 -11  -1  177.06    6.80   1
   5  11   1   96.17    7.77   3
  -5  11  -1   77.83    5.78   1
  -6  11  -1  128.46    7.64   1
   6  11   1  104.42    8.70   3
  -7  11  -1  123.67    7.97   1
   7  11   1  139.79   10.13   3
  -8  11  -1    1.38    3.11   1
   8  11   1    6.77    5.08   3
  -9  11  -1   30.34    5.24   1
   9  11   1   35.98    7.16   3
 -10  11  -1   48.51    6.41   1
  10  11   1   69.45    9.39   3
 -11  11  -1   10.49    4.56   1
  11  11   1    2.62    6.40   3
 -12  11  -1    6.19    4.99   1
  12  11   1   16.91    7.92   3
  12  12  -1    4.30    6.42   3
 -12  12   1    3.38    4.48   1
 -11  12   1    1.91    4.11   1
  11  12  -1    0.98    5.60   3
 -10  12   1    6.30    3.91   1
  10  12  -1    2.95    4.99   3
  -9  12   1   -1.84    2.93   1
   9  12  -1    4.26    4.76   3
  -8  12   1   78.79    7.15   1
   8  12  -1   58.57    7.69   3
   7  12  -1   42.96    6.25   3
  -7  12   1   50.89    5.57   1
   6  12  -1  219.41   11.94   3
   6  12  -1  208.31    8.52   2
  -6  12   1  224.30   10.35   1
   5  12  -1   52.15    6.36   3
  -5  12   1   44.70    5.17   1
   5  12  -1   40.32    3.98   2
   4  12  -1  346.30   14.24   3
   4  12  -1  358.68   10.56   2
  -3 -12   1    6.17    1.99   1
   3 -12  -1    6.44    2.58   1
   3  12  -1    3.45    1.89   2
   2  12  -1  203.24    7.88   2
  -2 -12   1  218.02    7.62   1
   2 -12  -1  201.21    8.71   1
   1  12  -1   47.47    4.15   2
  -1 -12   1   48.54    4.04   1
   1 -12  -1   53.06    4.61   1
   0  12  -1    7.13    2.11   1
   0 -12   1    7.04    2.43   1
   0 -12  -1    3.16    1.95   1
  -1 -12  -1   13.78    2.77   1
   1  12   1   16.19    3.26   3
  -1  12  -1   14.69    2.83   1
   2  12   1  162.15    6.36   2
  -2 -12  -1  155.74    6.87   1
   2  12   1  164.73    8.67   3
  -2  12  -1  162.01    7.53   1
  -3 -12  -1    7.72    2.29   1
  -3  12  -1    6.76    2.53   1
   3  12   1    5.17    2.92   3
   3  12   1    7.33    1.96   2
  -4 -12  -1  262.01    8.83   1
   4  12   1  270.00   12.25   3
  -4  12  -1  275.59   10.49   1
   5  12   1    5.81    3.41   3
  -5  12  -1    6.55    2.94   1
   6  12   1  313.95   14.63   3
   7  12   1    3.51    4.09   3
  -7  12  -1    3.02    3.05   1
   8  12   1  197.06   12.98   3
  -8  12  -1  185.72   10.16   1
   9  12   1    5.74    5.46   3
  -9  12  -1    5.33    3.84   1
  10  12   1   23.48    7.39   3
 -10  12  -1   39.16    5.87   1
 -11  12  -1   -3.68    3.84   1
  11  12   1    1.12    5.99   3
 -11  13   1   -1.80    3.95   1
  11  13  -1   -3.22    4.93   3
  10  13  -1   53.57    8.66   3
 -10  13   1   50.23    6.82   1
  -9  13   1   12.78    4.43   1
   9  13  -1   15.50    5.75   3
  -8  13   1    3.02    3.61   1
   8  13  -1    5.24    4.29   3
   7  13  -1   -2.71    3.31   3
  -7  13   1   -3.18    2.57   1
   6  13  -1    4.17    3.71   3
  -6  13   1    3.03    3.17   1
   5  13  -1  196.88   11.36   3
  -5  13   1  182.75    9.24   1
   5  13  -1  195.22    7.92   2
   4  13  -1  327.41   14.05   3
   4  13  -1  299.03    9.97   2
  -3 -13   1  180.37    7.09   1
   3 -13  -1  201.14    9.20   1
   3  13  -1  182.83    7.66   2
   2 -13  -1  618.99   17.03   1
  -2 -13   1  607.39   14.86   1
   2  13  -1  604.89   15.60   2
   1  13  -1    6.26    2.35   2
  -1 -13   1    5.17    2.23   1
   1 -13  -1    4.72    2.46   1
   0  13   1 1282.45   29.19   3
   0 -13   1 1310.70   26.39   1
   0 -13  -1 1245.71   26.52   1
  -1  13  -1  159.44    7.38   1
   1  13   1  141.51    8.03   3
  -1 -13  -1  147.04    7.10   1
   2  13   1  496.23   12.81   2
  -2 -13  -1  475.04   13.40   1
  -2  13  -1  496.36   14.27   1
   2  13   1  494.41   16.32   3
   3  13   1   -1.23    2.57   3
  -3  13  -1   -1.81    2.03   1
  -3 -13  -1    1.39    1.99   1
   3  13   1    1.41    1.76   2
   4  13   1  164.39    9.78   3
  -4  13  -1  148.68    7.95   1
  -5  13  -1   60.41    5.67   1
   5  13   1   59.35    6.73   3
  -6  13  -1    3.40    3.14   1
   6  13   1    6.97    4.29   3
   7  13   1   86.39    8.75   3
  -7  13  -1   70.89    6.84   1
   8  13   1   -3.32    3.71   3
  -8  13  -1    3.23    3.66   1
  -9  13  -1   12.03    4.44   1
   9  13   1   12.39    6.31   3
  10  13   1    6.76    6.36   3
 -10  13  -1   10.03    4.65   1
  11  13   1    6.52    6.74   3
 -11  13  -1    1.28    4.58   1
  11  14  -1   -1.88    5.84   3
 -11  14   1   -2.73    4.09   1
  10  14  -1    4.62    5.95   3
 -10  14   1   15.29    5.21   1
  -9  14   1   13.31    4.75   1
   9  14  -1   11.60    6.01   3
   8  14  -1   52.74    7.90   3
  -8  14   1   48.62    6.20   1
   7  14  -1    1.90    4.04   3
  -7  14   1   13.28    4.17   1
   6  14  -1  141.13   10.19   3
  -6  14   1  139.22    8.71   1
   5  14  -1   -0.51    3.11   3
  -5  14   1   -0.82    2.33   1
   4  14  -1  146.16    6.99   2
  -4  14   1  150.88    8.52   1
   4  14  -1  123.65    9.19   3
   3 -14  -1    8.99    3.43   1
   3  14  -1    1.89    2.16   2
   2 -14  -1  132.96    7.64   1
   2  14  -1  117.01    6.56   2
  -2 -14   1  125.25    6.53   1
  -1 -14   1   -0.91    1.96   1
   1  14  -1    0.50    1.98   2
   1 -14  -1    7.52    2.78   1
   0  14   1   13.79    3.33   3
   0  14  -1    7.02    2.54   1
   0 -14  -1   14.33    3.30   1
  -1  14  -1    2.32    2.18   1
  -1 -14  -1    0.63    2.09   1
   1  14   1   -0.90    1.77   2
   1  14   1   -0.16    2.29   3
  -2  14  -1   84.33    6.10   1
   2  14   1   70.79    6.55   3
  -2 -14  -1   87.01    5.81   1
   2  14   1   94.90    5.35   2
  -3 -14  -1    0.55    2.07   1
  -3  14  -1    0.51    2.24   1
   3  14   1    2.29    3.09   3
  -4  14  -1  249.34   10.73   1
   4  14   1  246.58   12.48   3
   5  14   1    1.65    3.22   3
  -5  14  -1   -0.49    2.65   1
  -6  14  -1   68.92    6.45   1
   6  14   1  103.38    9.38   3
  -7  14  -1    8.28    3.77   1
   7  14   1   11.65    4.83   3
  -8  14  -1   16.55    4.61   1
   8  14   1   16.50    5.98   3
  -9  14  -1   -1.88    3.33   1
   9  14   1   -2.46    4.37   3
 -10  14  -1    9.40    4.77   1
  10  14   1    0.18    6.16   3
  11  14   1    2.67    7.37   3
  10  15  -1   12.68    6.79   3
 -10  15   1    3.24    5.01   1
   9  15  -1    2.09    5.01   3
  -9  15   1    5.08    4.49   1
   8  15  -1   -2.15    4.12   3
  -8  15   1   -2.13    3.29   1
   7  15  -1   32.90    6.67   3
  -7  15   1   46.78    6.38   1
  -6  15   1   13.89    4.20   1
   6  15  -1   25.43    5.62   3
   5  15  -1    8.07    4.11   3
  -5  15   1    5.70    3.54   1
   4  15  -1   30.68    5.60   3
   4  15  -1   30.04    3.78   2
  -4  15   1   30.48    4.69   1
   3 -15  -1   39.21    5.21   1
   3  15  -1   38.57    4.18   2
  -3  15   1   26.95    4.62   1
   2  15  -1  212.78    9.14   2
   2 -15  -1  246.04   10.73   1
  -2 -15   1  223.61    8.88   1
   1 -15  -1   17.67    3.74   1
   1  15  -1   16.01    3.14   1
   1  15  -1   25.88    3.83   2
  -1 -15   1   13.97    3.29   1
   0 -15  -1  441.11   14.09   1
   0  15   1  437.70   14.87   3
   1  15   1   96.46    7.20   3
   1  15   1   85.97    5.83   2
  -1 -15  -1   92.70    6.28   1
  -1  15  -1   92.66    6.35   1
   2  15   1  271.51   12.36   3
  -2 -15  -1  269.28   10.28   1
  -2  15  -1  262.15   10.72   1
   2  15   1  269.30    9.60   2
  -3  15  -1   48.69    5.15   1
   3  15   1   53.74    6.25   3
   4  15   1   53.30    6.66   3
  -4  15  -1   50.28    5.37   1
   5  15   1   -2.61    3.35   3
  -5  15  -1   -0.31    2.84   1
  -6  15  -1   47.33    5.73   1
   6  15   1   58.00    7.51   3
   7  15   1    3.46    4.40   3
  -7  15  -1   11.12    4.25   1
   8  15   1   63.89    8.90   3
   9  15   1   10.16    5.66   3
  -9  15  -1    9.87    4.76   1
  10  15   1   15.35    7.51   3
 -10  15  -1   19.09    5.86   1
  10  16  -1    0.04    6.09   3
   9  16  -1   -3.23    4.91   3
  -9  16   1    5.48    4.69   1
   8  16  -1   62.96    8.75   3
  -8  16   1   67.49    7.78   1
  -7  16   1   -1.28    3.32   1
   7  16  -1    2.04    4.43   3
   6  16  -1  160.10   11.65   3
  -5  16   1    0.80    3.18   1
   5  16  -1   -0.28    3.21   3
  -4  16   1  124.69    8.50   1
   4  16  -1  125.66    9.50   3
   3  16  -1    1.62    3.23   3
   3  16  -1   -1.99    2.05   2
  -3  16   1    5.06    3.30   1
   2 -16  -1   14.37    3.79   1
   2  16  -1   15.76    3.37   2
   1  16  -1    6.48    2.69   1
   1  16  -1    7.62    3.05   2
   1 -16  -1    6.44    3.20   1
   0  16   1   26.25    4.37   3
   0 -16  -1   19.52    3.94   1
   0  16  -1   17.23    3.59   1
   1  16   1   46.74    5.58   3
  -1  16  -1   52.26    5.32   1
   1  16   1   53.92    4.94   2
  -1 -16  -1   54.79    5.41   1
   2  16   1   46.96    5.87   3
  -2 -16  -1   52.27    5.21   1
  -2  16  -1   48.54    5.14   1
   3  16   1   13.39    4.33   3
  -3  16  -1   18.02    3.95   1
   4  16   1   46.33    6.61   3
  -4  16  -1   29.77    4.71   1
  -5  16  -1    2.20    2.97   1
   5  16   1    1.58    3.97   3
  -6  16  -1    9.21    4.21   1
   6  16   1   18.27    5.96   3
   7  16   1    9.91    5.27   3
  -7  16  -1    6.22    3.95   1
  -8  16  -1    3.96    4.41   1
   8  16   1    1.93    5.04   3
  -9  16  -1   11.06    5.21   1
   9  16   1    8.11    6.00   3
  10  16   1   -3.33    6.24   3
  -9  17   1   12.79    5.68   1
   9  17  -1   13.66    6.21   3
  -8  17   1   15.92    5.02   1
   8  17  -1    5.43    4.85   3
  -7  17   1   -1.30    3.34   1
   7  17  -1    0.86    4.41   3
   6  17  -1    4.77    4.34   3
  -6  17   1    0.79    3.31   1
  -5  17   1   14.44    4.16   1
   5  17  -1   13.48    4.98   3
   4  17  -1   54.71    7.14   3
  -4  17   1   67.80    7.02   1
   3  17  -1    8.46    4.12   3
  -3  17   1   11.98    4.01   1
   3  17  -1    9.04    3.07   2
   2 -17  -1   70.47    6.78   1
   2  17  -1   76.33    6.13   2
  -2  17   1   62.22    6.30   1
   1  17  -1  119.67    7.51   2
   1  17  -1  100.18    6.82   1
   1 -17  -1  109.06    7.74   1
   0  17  -1  122.89    7.52   1
   0 -17  -1  126.98    8.08   1
  -1 -17  -1  114.63    7.57   1
   1  17   1  134.22    8.84   3
  -1  17  -1  138.70    8.07   1
   2  17   1   15.96    4.35   3
  -2  17  -1    9.83    3.60   1
   3  17   1   10.25    4.20   3
  -3  17  -1   19.74    4.41   1
  -4  17  -1   18.12    4.19   1
   4  17   1   31.01    6.12   3
   5  17   1    7.92    4.62   3
  -5  17  -1    3.65    3.42   1
  -6  17  -1    6.89    4.01   1
   6  17   1    4.00    4.77   3
  -7  17  -1    1.77    3.89   1
   7  17   1    0.62    4.37   3
  -8  17  -1    0.55    4.03   1
   8  17   1    4.14    5.51   3
   9  17   1    0.10    6.23   3
   9  18  -1   -7.12    4.24   3
  -8  18   1    6.88    4.97   1
   8  18  -1   -4.25    4.73   3
  -7  18   1    2.08    3.85   1
   7  18  -1    4.06    5.12   3
   6  18  -1   59.93    8.11   3
  -6  18   1   51.34    7.00   1
   5  18  -1   -1.65    3.78   3
  -5  18   1    2.64    3.45   1
   4  18  -1  129.12   10.56   3
  -4  18   1  160.82   10.18   1
   3  18  -1    6.79    4.29   3
  -3  18   1    7.90    3.78   1
  -2  18   1   54.65    6.47   1
   2  18  -1   63.54    7.27   3
   2  18  -1   61.47    5.86   2
   1 -18  -1   10.37    3.94   1
   1  18  -1   17.79    4.02   2
   0  18  -1   -1.54    2.62   2
   0 -18  -1    0.31    3.23   1
   0  18  -1    2.29    2.87   1
  -1 -18  -1   24.45    4.52   1
  -1  18  -1   15.95    4.03   1
   1  18   1   26.69    5.14   3
   2  18   1   74.55    7.43   3
  -2  18  -1   61.36    6.34   1
  -3  18  -1    4.30    3.24   1
   3  18   1    6.94    4.31   3
   4  18   1   85.79    8.82   3
  -4  18  -1   64.74    7.02   1
  -5  18  -1   -2.17    3.03   1
   5  18   1   -3.78    3.77   3
   6  18   1   60.85    8.77   3
   7  18   1   -1.08    4.24   3
  -7  18  -1    0.84    3.87   1
   8  18   1    2.92    5.99   3
   8  19  -1    2.10    5.85   3
   7  19  -1    9.67    5.43   3
  -7  19   1    7.39    5.09   1
   6  19  -1   16.74    6.17   3
  -6  19   1    9.91    4.78   1
  -5  19   1   -1.63    3.70   1
   5  19  -1    0.91    4.22   3
   4  19  -1   16.89    5.57   3
  -4  19   1   23.55    5.45   1
   3  19  -1    1.06    3.84   3
  -3  19   1   -3.28    3.47   1
   2  19  -1  145.14   10.54   3
  -2  19   1  124.70    9.37   1
   1  19  -1   51.33    5.93   2
   1 -19  -1   51.89    6.32   1
   0 -19  -1  147.64    9.24   1
   0  19  -1  167.42    9.27   1
   0  19  -1  134.93    9.14   2
  -1  19  -1   -0.13    3.02   1
  -2  19  -1  117.64    8.47   1
   2  19   1  102.81    9.01   3
  -3  19  -1   -2.47    3.16   1
   3  19   1   -0.56    3.77   3
  -4  19  -1   13.03    4.54   1
   4  19   1   15.92    5.58   3
  -5  19  -1    8.94    4.59   1
   5  19   1   18.39    5.79   3
  -6  19  -1    0.75    3.78   1
   6  19   1    0.12    4.91   3
   7  19   1    9.83    5.75   3
  -7  19  -1    2.99    4.21   1
   7  20  -1    0.61    5.48   3
   6  20  -1   38.32    7.81   3
  -6  20   1   22.53    6.15   1
  -5  20   1   10.15    5.07   1
   5  20  -1   18.61    6.05   3
  -4  20   1   33.37    6.37   1
   4  20  -1   50.18    7.76   3
   3  20  -1    8.87    4.95   3
  -3  20   1   19.23    5.26   1
   2  20  -1   27.41    5.93   3
  -2  20   1   17.54    5.17   1
  -1  20   1   13.12    4.89   1
   1  20  -1   10.71    4.00   2
   0  20  -1    1.94    3.28   2
   0 -20  -1   -0.47    3.36   1
   0  20   1    3.77    4.03   1
  -1  20  -1    5.83    3.80   1
  -2  20  -1   30.87    5.41   1
  -3  20  -1   -4.01    3.34   1
   3  20   1    0.37    4.22   3
  -4  20  -1   76.11    7.96   1
   4  20   1   80.22    9.21   3
  -5  20  -1    3.42    4.29   1
   5  20   1   -3.42    4.50   3
   6  20   1   70.09    9.60   3
   6  21  -1    2.75    5.57   3
  -5  21   1    5.79    5.08   1
   5  21  -1    9.47    5.85   3
   4  21  -1   36.77    7.43   3
   3  21  -1    8.81    5.00   3
  -3  21   1   10.93    4.95   1
   2  21  -1   70.01    8.47   3
  -2  21   1   84.96    8.79   1
  -1  21   1   12.83    5.14   1
   0  21   1  233.14   12.81   1
   0  21  -1  228.00   12.54   2
  -1  21  -1    4.46    4.06   1
  -1  21  -1    5.33    4.51   2
  -2  21  -1   50.39    6.62   1
   3  21   1   -1.86    4.62   3
  -3  21  -1    3.31    4.23   1
  -4  21  -1   19.37    5.30   1
   4  21   1   32.18    7.17   3
   5  21   1   -5.41    4.78   3
  -5  21  -1    1.17    4.21   1
   4  22  -1   29.31    7.30   3
   3  22  -1    4.39    5.07   3
  -3  22   1    4.59    4.70   1
  -2  22   1   17.63    5.63   1
  -1  22   1   -1.35    4.60   1
  -1  22  -1   13.36    5.41   2
  -2  22  -1   15.62    5.31   1
  -3  22  -1   10.52    5.04   1
   4  22   1   41.06    8.03   3
  -2  23   1   81.77    9.18   1
  14   0  -2   26.20    6.36   2
  13   0  -2    0.91    4.33   2
  12   0  -2   25.95    5.67   2
  11   0  -2   -3.50    2.95   2
  10   0  -2   58.97    6.36   2
   9   0  -2   -3.25    2.86   3
   9   0  -2    4.12    3.47   2
   8   0  -2    7.08    3.16   2
   8   0  -2    3.32    2.53   3
  -8   0   2    7.08    1.94   1
   7   0  -2   -1.40    2.32   2
  -7   0   2    0.34    1.21   1
   7   0  -2   -0.11    1.93   3
   6   0  -2  116.07    6.37   2
  -6   0   2  109.87    4.21   1
   6   0  -2  122.11    5.65   3
  -5   0   2   -0.72    0.78   1
   5   0  -2    0.71    1.89   2
   5   0  -2    1.58    1.36   3
  -4   0   2 1357.40   21.61   1
   4   0  -2 1304.56   25.14   3
   4   0  -2 1316.97   24.15   2
   3   0  -2   -0.11    0.53   1
   3   0  -2    0.18    1.36   2
   2   0  -2 3408.69   51.36   1
   1   0  -2   -1.27    0.34   1
   0   0  -2  768.15   12.77   1
  -1   0  -2    0.18    0.53   1
   1   0   2   -2.15    1.45   3
  -2   0  -2  283.98    6.60   1
   2   0   2  292.82    8.82   3
   3   0   2   -1.46    0.81   2
  -3   0  -2   -0.03    0.77   1
   3   0   2   -1.30    2.20   3
   4   0   2  644.66   16.19   3
   4   0   2  616.68   13.03   2
  -4   0  -2  624.49   12.77   1
   5   0   2    1.36    1.54   2
   5   0   2    0.62    2.50   3
  -5   0  -2   -2.01    1.17   1
   6   0   2   94.73    7.32   3
  -6   0  -2   85.00    4.38   1
   6   0   2   87.48    5.07   2
   7   0   2   -4.30    3.61   3
   7   0   2   -1.45    1.98   2
  -7   0  -2    0.74    1.70   1
  -8   0  -2   84.64    5.30   1
   8   0   2   78.43    5.85   2
   8   0   2   88.23    8.26   3
   9   0   2    0.05    2.72   2
  -9   0  -2   -1.01    2.24   1
   9   0   2   -2.89    5.01   3
  10   0   2  300.75   12.33   2
  10   0   2  291.02   15.95   3
  11   0   2   -7.67    6.39   3
  14  -1  -2    0.21    4.44   2
  13  -1  -2   12.56    5.25   2
  13   1  -2   17.43    5.60   2
  12  -1  -2    2.40    4.01   2
  12   1  -2   -1.14    3.57   2
  11   1  -2   32.02    5.35   2
  11  -1  -2   42.14    5.91   2
  10   1  -2    0.54    3.40   3
  10   1  -2   -0.69    3.49   2
  10  -1  -2    1.04    3.34   2
   9  -1  -2    4.08    3.54   2
   9   1  -2   -2.67    2.87   3
   9   1  -2    0.46    3.07   2
   8  -1  -2  208.09    8.65   3
   8   1  -2  193.40    8.74   3
  -8   1   2  204.33    6.70   1
   8   1  -2  196.34    8.88   2
   8  -1  -2  186.02    8.91   2
   7  -1  -2   52.15    4.28   3
   7   1  -2   70.62    4.82   3
   7  -1  -2   46.05    4.55   2
  -7  -1   2   53.25    2.99   1
  -7   1   2   54.88    3.38   1
   7   1  -2   51.16    4.72   2
  -6  -1   2 1282.57   21.89   1
   6   1  -2 1309.21   25.91   2
  -6   1   2 1347.63   23.13   1
   6  -1  -2 1302.00   26.15   2
   6   1  -2 1356.26   27.49   3
   6  -1  -2 1341.99   26.30   3
   5  -1  -2    0.29    1.19   3
  -5  -1   2    1.31    0.80   1
   5  -1  -2    0.39    1.67   2
   5   1  -2   -0.84    1.24   3
   5   1  -2   -2.69    1.76   2
  -5   1   2    0.22    1.01   1
  -4  -1   2 1916.02   29.47   1
  -4   1   2 1915.01   30.64   1
   4   1  -2 1912.99   32.65   2
   4  -1  -2 1874.08   32.85   2
   4   1  -2 1966.17   35.71   3
   4  -1  -2 1886.09   33.95   3
   3   1  -2  131.62    3.07   1
   3   1  -2  131.46    4.65   2
   3  -1  -2  126.38    4.81   2
   3  -1  -2  126.92    3.84   1
   2   1  -2  711.76   13.37   2
   2  -1  -2  723.47   12.75   1
   2   1  -2  740.89   11.82   1
   2  -1  -2  729.05   13.55   2
   1  -1  -2   -1.05    0.47   1
   1   1  -2   -0.18    0.46   1
   0   1  -2   18.39    1.22   1
   0  -1  -2   19.74    1.30   1
   1   1   2    3.40    1.65   3
  -1  -1  -2    1.75    0.76   1
  -1   1  -2    1.56    0.65   1
  -2   1  -2  618.57   11.56   1
  -2  -1  -2  619.45   11.61   1
   2  -1   2  599.18   14.55   3
   2   1   2  618.59   14.15   3
  -3  -1  -2   44.25    2.65   1
   3  -1   2   50.31    4.40   3
   3  -1   2   39.04    2.63   2
   3   1   2   49.84    3.91   3
  -3   1  -2   42.35    2.49   1
   3   1   2   45.82    2.45   2
   4  -1   2  324.17    8.56   2
   4   1   2  315.28   10.43   3
   4   1   2  313.32    7.87   2
   4  -1   2  303.62   10.76   3
  -4   1  -2  314.72    7.99   1
  -4  -1  -2  318.13    8.01   1
   5   1   2    5.83    2.87   3
   5  -1   2    4.72    3.20   3
   5   1   2    0.44    1.61   2
  -5   1  -2   -0.16    1.20   1
   5  -1   2    0.86    1.52   2
  -5  -1  -2   -0.11    1.24   1
   6  -1   2  186.41    9.89   3
  -6  -1  -2  200.28    6.88   1
   6  -1   2  218.59    7.98   2
   6   1   2  196.08    9.68   3
   6   1   2  207.53    7.46   2
  -6   1  -2  208.60    7.16   1
  -7   1  -2    9.91    2.39   1
   7   1   2   16.24    4.39   3
   7  -1   2    8.14    2.73   2
  -7  -1  -2   16.76    2.62   1
   7  -1   2   16.36    4.87   3
  -8  -1  -2  127.48    6.31   1
   8   1   2  127.88    7.05   2
  -8   1  -2  141.80    6.66   1
   8  -1   2  140.68    7.44   2
   8  -1   2  124.42   10.04   3
   8   1   2  152.69   10.36   3
   9  -1   2   16.99    6.50   3
   9   1   2   14.98    5.95   3
  -9  -1  -2   19.62    3.46   1
  -9   1  -2   20.79    3.38   1
   9   1   2   19.52    3.94   2
   9  -1   2   21.75    3.97   2
  10  -1   2   45.66    5.93   2
 -10   1  -2   49.20    5.08   1
  10   1   2   47.32    8.23   3
  10  -1   2   51.03    8.85   3
  11  -1   2   19.89    4.80   2
  11   1   2    5.95    6.94   3
  14  -2  -2    6.73    4.81   2
  13   2  -2    5.02    4.57   2
  13  -2  -2    1.64    4.22   2
  12   2  -2    3.33    3.82   2
  12  -2  -2    3.88    4.38   2
  11  -2  -2   13.44    4.40   2
  11   2  -2   20.75    4.95   2
  10   2  -2   62.77    6.50   3
  10  -2  -2   67.00    6.95   2
  10   2  -2   75.05    6.85   2
   9   2  -2   -0.96    3.00   2
  -9   2   2    0.08    1.84   1
   9   2  -2   -0.93    2.68   3
   9  -2  -2   -1.58    2.82   2
  -8   2   2    3.01    1.74   1
   8  -2  -2   -1.74    2.84   3
   8   2  -2    2.09    2.55   3
   8   2  -2    1.12    2.65   2
   8  -2  -2    0.21    2.85   2
   7   2  -2  162.64    7.52   2
   7   2  -2  159.69    7.65   3
   7  -2  -2  192.06    8.34   2
  -7  -2   2  161.34    4.98   1
  -7   2   2  164.64    6.04   1
   7  -2  -2  175.82    7.13   3
   6  -2  -2  219.58    8.61   2
   6  -2  -2  233.46    7.47   3
  -6  -2   2  228.25    5.50   1
  -6   2   2  234.70    6.96   1
   6   2  -2  232.49    8.68   3
   6   2  -2  214.31    8.12   2
  -5  -2   2    0.21    0.67   1
   5  -2  -2    1.14    1.90   2
   5  -2  -2    0.92    1.32   3
   5   2  -2   -1.33    1.30   3
  -5   2   2    0.97    1.10   1
   5   2  -2    1.64    2.09   2
  -4  -2   2 2849.51   41.83   1
   4   2  -2 2734.08   45.26   2
   4  -2  -2 2764.80   43.98   1
   4  -2  -2 2755.40   45.99   2
   3   2  -2 2687.19   43.45   2
   3  -2  -2 2721.29   42.58   1
   3  -2  -2 2729.63   44.09   2
   2  -2  -2 7371.83  107.97   1
   2  -2  -2 7230.22  109.77   2
   2   2  -2 7169.89  109.41   2
   1   2  -2  440.77    8.55   2
   1   2  -2  417.56    7.30   1
   1  -2  -2  430.09    8.49   1
   0   2  -2 5249.89   78.58   1
   0  -2  -2 5270.09   78.27   1
  -1   2  -2 1902.07   29.94   1
  -1  -2  -2 1909.93   29.93   1
   1   2   2 1919.48   34.37   3
  -2   2  -2  237.29    5.89   1
  -2  -2  -2  227.29    5.71   1
   2   2   2  240.95    7.46   3
  -3   2  -2  752.89   14.34   1
   3  -2   2  741.44   17.83   3
  -3  -2  -2  756.94   14.15   1
   3   2   2  770.54   17.29   3
  -4   2  -2  402.02    9.50   1
   4  -2   2  394.96   10.22   2
   4  -2   2  394.47   12.47   3
  -4  -2  -2  398.30    9.30   1
   4   2   2  395.14   11.76   3
   4   2   2  408.62    8.96   2
   5  -2   2  104.17    5.32   2
  -5   2  -2   97.97    4.59   1
  -5  -2  -2  103.45    4.57   1
   5  -2   2   90.32    7.05   3
   5   2   2  108.54    4.68   2
   5   2   2  102.47    6.39   3
   6   2   2   64.04    5.85   3
  -6  -2  -2   61.76    3.98   1
  -6   2  -2   63.01    4.07   1
   6  -2   2   65.16    6.69   3
   6   2   2   63.68    4.38   2
   6  -2   2   62.31    4.51   2
   7   2   2   -1.08    2.11   2
   7   2   2    1.71    3.27   3
  -7  -2  -2    1.24    1.79   1
   7  -2   2    3.33    4.55   3
   7  -2   2    3.50    2.23   2
  -7   2  -2    1.69    1.85   1
  -8  -2  -2   13.01    2.78   1
   8   2   2   10.58    3.08   2
   8   2   2   13.93    4.79   3
   8  -2   2    7.82    5.46   3
   8  -2   2   14.38    3.56   2
  -8   2  -2   14.95    3.07   1
  -9   2  -2    2.78    2.54   1
   9  -2   2    9.06    3.34   2
   9  -2   2   -1.86    5.99   3
   9   2   2    7.33    3.16   2
  -9  -2  -2    4.04    2.70   1
   9   2   2    7.88    5.22   3
 -10   2  -2   -1.44    2.77   1
  10  -2   2  -12.96    5.49   3
  10  -2   2    3.10    3.30   2
  10   2   2    0.99    5.56   3
  11  -2   2    3.69    3.73   2
  11   2   2   -3.21    6.21   3
  12   2   2   -5.79    6.98   3
  14  -3  -2    5.05    4.87   2
  13  -3  -2    8.57    4.78   2
  12  -3  -2    3.20    4.19   2
  12   3  -2    1.14    3.95   2
  11   3  -2   40.93    5.94   2
  11  -3  -2   30.84    5.46   2
  11   3  -2   24.99    5.92   3
  10   3  -2   16.55    4.29   2
  10   3  -2   16.24    4.52   3
  10  -3  -2   18.09    4.60   2
   9   3  -2    5.90    3.33   3
  -9   3   2    7.27    2.36   1
   9  -3  -2    8.24    3.76   2
   9   3  -2    4.22    3.45   2
   8  -3  -2  118.25    7.75   2
   8   3  -2  127.43    7.51   3
   8   3  -2  117.01    6.93   2
  -8   3   2  107.57    5.43   1
   7  -3  -2   33.04    4.15   2
  -7   3   2   30.52    2.98   1
   7   3  -2   17.93    3.32   2
   7  -3  -2   27.40    3.63   3
   7   3  -2   35.46    4.04   3
  -6  -3   2  515.72    9.69   1
   6   3  -2  523.36   13.47   2
   6   3  -2  522.50   14.83   3
  -6   3   2  530.75   12.24   1
   6  -3  -2  555.35   12.74   3
   6  -3  -2  511.92   14.18   2
  -5   3   2   24.61    2.45   1
   5  -3  -2   27.76    2.49   3
   5  -3  -2   23.41    3.27   2
  -5  -3   2   23.45    1.46   1
   5   3  -2   16.10    2.81   3
   5   3  -2   23.17    2.84   2
   4  -3  -2 1016.13   20.28   2
   4   3  -2 1019.69   19.27   2
   4  -3  -2 1012.69   19.02   1
   3  -3  -2    0.79    1.50   2
   3  -3  -2    1.28    1.01   1
   3   3  -2    1.86    1.08   2
   2  -3  -2  665.25   12.84   1
   2   3  -2  646.07   10.68   1
   2   3  -2  648.26   10.69   1
   2  -3  -2  659.26   13.03   2
   1  -3  -2   56.36    2.75   1
   1   3  -2   61.43    2.69   2
   1   3  -2   62.46    1.93   1
   0  -3  -2   15.92    1.80   1
   0   3  -2   17.61    1.52   1
  -1   3  -2   59.41    2.63   1
   1   3   2   68.53    3.54   3
  -1  -3  -2   62.36    2.72   1
  -2  -3  -2  357.62    7.72   1
  -2   3  -2  349.57    8.02   1
   2   3   2  369.40    9.78   3
   3   3   2   49.54    3.73   3
  -3   3  -2   47.73    2.80   1
  -3  -3  -2   47.53    2.72   1
   4   3   2  629.94   16.24   3
  -4   3  -2  636.37   13.43   1
   4   3   2  652.78   12.43   2
  -4  -3  -2  649.29   13.00   1
  -5   3  -2    1.74    1.42   1
   5  -3   2    5.75    3.62   3
   5  -3   2    0.56    1.52   2
  -5  -3  -2    2.19    1.52   1
   5   3   2    2.29    2.45   3
   5   3   2    5.41    1.81   2
   6  -3   2  285.67   12.09   3
   6   3   2  304.66   11.69   3
   6   3   2  303.44    8.76   2
  -6  -3  -2  289.19    8.47   1
   6  -3   2  303.54   10.31   2
  -6   3  -2  289.15    8.86   1
   7  -3   2   36.44    4.22   2
   7   3   2   36.28    3.63   2
  -7  -3  -2   35.08    3.35   1
  -7   3  -2   29.67    3.26   1
   7   3   2   40.55    5.28   3
   7  -3   2   39.41    6.55   3
   8  -3   2   94.57    6.63   2
   8   3   2  102.11    6.29   2
   8  -3   2  114.38    9.25   3
   8   3   2   97.04    8.31   3
  -8  -3  -2   89.89    5.33   1
  -8   3  -2   95.21    5.66   1
   9  -3   2    0.68    3.03   2
   9  -3   2   -5.44    5.09   3
  -9   3  -2   -1.00    2.21   1
   9   3   2   -4.12    4.48   3
  10  -3   2   42.24    5.72   2
  10   3   2   46.59    7.84   3
 -10   3  -2   39.01    4.73   1
 -11   3  -2   22.63    4.31   1
  11  -3   2   28.37    5.47   2
  11   3   2   19.92    7.33   3
  12   3   2    2.29    7.12   3
  12  -3   2    4.45    4.20   2
  14  -4  -2   20.37    6.13   2
  13  -4  -2    3.84    4.10   2
  12  -4  -2   35.25    5.99   2
  12   4  -2   34.51    6.11   2
  11   4  -2   11.95    4.77   3
  11  -4  -2   22.17    5.13   2
  11   4  -2   13.63    4.35   2
  10  -4  -2  119.20    8.94   2
  10   4  -2  108.59    7.96   2
 -10   4   2  106.64    6.29   1
  10   4  -2  103.73    8.27   3
  -9   4   2   -1.21    2.00   1
   9   4  -2   -0.66    3.36   2
   9  -4  -2   -1.57    2.98   2
   9   4  -2    2.28    3.11   3
   8   4  -2  128.24    7.24   2
   8  -4  -2  119.00    7.70   2
  -8   4   2  126.65    6.14   1
   8   4  -2  131.92    8.08   3
   7  -4  -2    1.55    2.50   2
  -7   4   2    3.12    1.92   1
   7   4  -2    3.05    2.34   3
   7   4  -2    3.15    2.38   2
  -6  -4   2   78.11    2.55   1
   6  -4  -2   81.18    5.67   2
   6   4  -2   69.53    5.40   3
   6  -4  -2   69.46    4.70   3
   6   4  -2   72.22    5.05   2
  -6   4   2   73.40    4.27   1
   5   4  -2   -2.30    1.38   3
   5   4  -2    0.44    1.76   2
   5  -4  -2   -1.58    1.78   2
  -5   4   2   -1.17    1.16   1
   4  -4  -2  202.03    6.61   1
   4   4  -2  187.24    6.37   2
   4  -4  -2  188.59    7.13   2
   3  -4  -2  148.00    5.32   1
   3   4  -2  146.86    4.92   2
   3  -4  -2  145.96    5.78   2
   2   4  -2  221.84    6.07   2
   2  -4  -2  223.96    6.56   2
   2   4  -2  236.52    4.34   1
   2  -4  -2  230.70    6.59   1
   1   4  -2 4452.52   69.46   2
   1  -4  -2 4455.88   69.13   2
   1   4  -2 4483.38   67.01   1
   1  -4  -2 4616.80   68.94   1
   0  -4  -2 9775.68  143.42   1
   0   4  -2 9435.67  144.73   1
   0   4   2 9878.07  160.33   3
  -1   4  -2 3919.37   59.35   1
  -1  -4  -2 3877.65   59.33   1
   1   4   2 3880.12   66.97   3
   2   4   2  817.89   17.75   3
  -2  -4  -2  823.76   14.78   1
  -2   4  -2  799.10   15.25   1
  -3  -4  -2    5.06    1.27   1
  -3   4  -2    5.60    1.44   1
   3   4   2    4.10    1.87   3
   4   4   2  434.41   12.95   3
  -4   4  -2  459.74   10.89   1
  -4  -4  -2  428.10    9.76   1
   4   4   2  454.78    9.37   2
  -5   4  -2   19.23    2.58   1
   5   4   2   21.04    3.54   3
   5   4   2   19.77    2.34   2
  -5  -4  -2   18.08    2.19   1
   6   4   2    4.43    2.84   3
  -6  -4  -2    7.44    1.96   1
   6   4   2    8.90    2.35   2
  -6   4  -2    6.82    2.06   1
   6  -4   2    6.37    2.42   2
  -7  -4  -2    8.79    2.23   1
   7  -4   2   11.32    3.22   2
   7   4   2   14.87    2.97   2
  -7   4  -2    7.22    2.43   1
   7   4   2   13.22    4.00   3
  -8   4  -2  101.29    5.89   1
   8  -4   2  103.98    7.08   2
  -8  -4  -2  114.40    5.67   1
   8   4   2  106.86    8.61   3
   9  -4   2   30.68    5.03   2
   9   4   2   41.73    7.00   3
  -9   4  -2   34.28    4.24   1
 -10   4  -2  125.81    7.51   1
  10   4   2  118.19   10.73   3
  10  -4   2  138.97    9.32   2
 -11   4  -2    3.38    3.22   1
  11   4   2    4.31    6.35   3
  11  -4   2    6.94    4.22   2
  12   4   2   14.47    7.89   3
  13   4   2   -7.48    7.69   3
  14  -5  -2   11.92    5.63   2
  13  -5  -2    2.67    4.27   2
  12   5  -2    3.77    5.14   3
  12  -5  -2    0.93    4.13   2
  11   5  -2    4.88    4.29   2
  11  -5  -2   -0.48    3.24   2
  11   5  -2    2.56    4.27   3
 -10   5   2   33.37    4.32   1
  10  -5  -2   30.76    5.43   2
  10   5  -2   31.54    5.25   2
  10   5  -2   31.92    5.66   3
   9   5  -2   10.22    3.84   3
   9  -5  -2    5.44    3.51   2
  -9   5   2    8.06    2.67   1
   9   5  -2   11.30    3.83   2
   8   5  -2  226.07   10.73   3
  -8   5   2  205.36    8.22   1
   8   5  -2  205.85    9.31   2
   8  -5  -2  226.35   10.42   2
   7  -5  -2   56.34    5.29   2
   7   5  -2   63.61    5.04   2
  -7   5   2   52.73    4.14   1
   7   5  -2   52.31    5.09   3
   6   5  -2  137.21    7.54   3
   6  -5  -2  116.19    7.00   2
  -6   5   2  131.19    6.01   1
   6   5  -2  135.77    6.22   2
  -5   5   2    1.16    1.58   1
   5   5  -2    0.65    1.60   2
   5   5  -2    2.96    2.14   3
   5  -5  -2    2.37    2.12   2
   4  -5  -2  285.82    9.17   2
   4  -5  -2  260.84    8.12   1
   4   5  -2  259.76    7.64   2
   3   5  -2    2.45    1.13   2
   3  -5  -2    1.33    1.55   2
   3  -5  -2    2.62    1.30   1
   3   5  -2    2.27    0.50   1
   2   5  -2  242.60    6.62   2
   2   5  -2  227.92    4.85   1
   2  -5  -2  232.82    7.00   2
   2  -5  -2  241.54    7.15   1
   1  -5  -2   -0.81    0.80   1
   1   5  -2    0.60    0.90   2
   1   5  -2    1.90    0.72   1
   1  -5  -2    0.34    0.98   2
   0   5   2   11.56    1.60   3
   0  -5  -2   11.29    1.56   1
   0   5  -2   11.40    1.37   1
  -1  -5  -2  117.09    4.26   1
  -1   5  -2  122.92    4.29   1
   1   5   2  116.48    4.80   3
   2   5   2  426.05   11.44   3
  -2   5  -2  429.60    9.83   1
  -2  -5  -2  428.75    9.33   1
   3   5   2   15.65    2.53   3
  -3  -5  -2   18.80    1.94   1
  -3   5  -2   15.47    2.00   1
   4   5   2  906.25   15.76   2
  -4   5  -2  877.29   17.74   1
   4   5   2  847.91   20.76   3
  -4  -5  -2  844.64   16.27   1
  -5   5  -2   24.76    2.84   1
  -5  -5  -2   23.79    2.39   1
   5   5   2   27.99    2.69   2
   5   5   2   26.36    3.69   3
   6   5   2  499.54   15.92   3
  -6  -5  -2  502.55   11.55   1
   6   5   2  503.19   11.83   2
  -6   5  -2  486.47   12.83   1
  -7  -5  -2    2.37    1.81   1
  -7   5  -2    0.13    1.99   1
   7   5   2    1.61    2.98   3
   8   5   2   43.76    6.01   3
  -8   5  -2   52.75    4.77   1
   8  -5   2   39.73    5.09   2
   9   5   2   -3.87    3.49   3
   9  -5   2   -2.96    2.34   2
  -9   5  -2    1.05    2.47   1
  10   5   2   -2.99    5.28   3
 -10   5  -2   -3.31    2.49   1
 -11   5  -2    0.27    2.97   1
  11   5   2   -6.07    5.67   3
  12   5   2   -5.27    6.61   3
  13   5   2   -8.72    7.67   3
  13  -6  -2    3.48    4.64   2
  12  -6  -2   30.25    6.13   2
  12   6  -2   11.32    5.75   3
  11   6  -2    1.88    3.85   2
  11   6  -2    3.58    4.39   3
  11  -6  -2    0.45    3.61   2
 -10   6   2   64.90    5.62   1
  10  -6  -2   75.27    7.43   2
  10   6  -2   91.35    7.30   2
  10   6  -2   88.81    8.24   3
  -9   6   2    0.63    2.35   1
   9   6  -2    3.09    3.47   3
   9   6  -2    4.15    3.82   2
   9  -6  -2    2.88    3.40   2
  -8   6   2    1.86    2.39   1
   8   6  -2   -0.68    2.47   3
   8   6  -2    3.12    3.26   2
   8  -6  -2    0.43    3.28   2
   7   6  -2   47.52    5.27   3
   7  -6  -2   47.88    5.28   2
  -7   6   2   52.68    4.41   1
   7   6  -2   50.40    4.67   2
   6   6  -2   49.37    5.00   3
  -6   6   2   53.34    4.31   1
   6   6  -2   52.48    4.34   2
   6  -6  -2   59.58    5.32   2
   5  -6  -2    2.19    2.11   2
   5   6  -2   10.14    2.32   2
   5  -6  -2    6.37    2.12   1
  -5   6   2    5.05    1.97   1
   4  -6  -2   25.56    3.21   2
   4  -6  -2   32.66    3.22   1
   4   6  -2   31.47    2.74   2
   3  -6  -2   15.78    2.27   1
   3  -6  -2    9.47    2.10   2
   3   6  -2   12.64    1.80   2
   2   6  -2  637.01   11.43   1
   2  -6  -2  635.30   13.95   2
   2  -6  -2  659.49   14.30   1
   2   6  -2  644.65   13.45   2
   1   6  -2   85.29    3.17   1
   1   6  -2   85.18    3.91   2
   1  -6  -2   93.02    4.28   1
  -1   6   2   87.96    3.48   3
   0   6  -2 1187.98   20.86   1
   0  -6  -2 1213.85   22.02   1
   0   6   2 1238.92   23.56   3
   1   6   2   37.76    3.09   3
  -1   6  -2   39.60    2.60   1
  -1  -6  -2   41.26    2.81   1
   2   6   2  452.23   12.34   3
  -2   6  -2  454.21   10.61   1
  -2  -6  -2  441.80   10.07   1
   3   6   2    2.76    1.08   2
  -3  -6  -2    4.33    1.43   1
   3   6   2    1.56    1.83   3
  -3   6  -2    2.04    1.32   1
   4   6   2  506.54   10.21   2
   4   6   2  463.89   14.36   3
  -4  -6  -2  508.71   11.05   1
  -4   6  -2  507.08   12.36   1
   5   6   2   85.11    6.21   3
   5   6   2   86.90    4.25   2
  -5   6  -2   86.43    4.88   1
  -5  -6  -2   75.74    3.98   1
   6   6   2    3.92    2.22   2
  -6  -6  -2    1.13    1.51   1
   6   6   2    0.08    2.78   3
  -6   6  -2    1.27    1.94   1
  -7   6  -2   87.92    5.48   1
  -7  -6  -2   79.37    4.45   1
   7   6   2   77.17    6.82   3
  -8   6  -2   54.07    5.16   1
   8   6   2   44.17    6.16   3
   9   6   2    6.68    4.83   3
  -9   6  -2    3.27    2.89   1
 -10   6  -2  103.33    7.24   1
  10   6   2   92.99    9.64   3
  11   6   2    8.30    6.11   3
 -11   6  -2    1.02    3.18   1
  12   6   2   22.27    8.53   3
  13   6   2    1.63    8.12   3
  13  -7  -2    2.26    4.77   2
  13   7  -2   -3.32    5.58   3
  12   7  -2    4.89    5.45   3
  12  -7  -2    4.13    4.51   2
  11  -7  -2    9.74    4.43   2
  11   7  -2    4.79    4.70   3
 -11   7   2   10.00    3.68   1
  10  -7  -2  127.32    9.63   2
  10   7  -2  117.26    9.55   3
 -10   7   2  107.36    7.15   1
  10   7  -2  120.84    8.49   2
   9   7  -2    6.71    3.72   2
   9  -7  -2   -0.98    2.92   2
  -9   7   2    1.36    2.38   1
   9   7  -2    0.63    3.34   3
   8   7  -2  259.37   12.39   3
  -8   7   2  266.32   10.09   1
   8  -7  -2  240.22   11.36   2
   8   7  -2  250.50   10.19   2
   7  -7  -2    9.26    3.45   2
   7   7  -2   11.31    3.19   2
   7   7  -2   10.95    3.47   3
  -7   7   2    8.54    2.74   1
   6   7  -2  141.60    6.53   2
   6  -7  -2  118.31    7.20   2
  -6   7   2  135.91    6.58   1
   6   7  -2  120.09    7.76   3
   5  -7  -2   10.83    2.75   2
  -5   7   2    6.49    2.25   1
   5  -7  -2    7.17    2.30   1
   5   7  -2    9.73    2.15   2
   4  -7  -2  195.46    7.61   1
   4  -7  -2  202.11    8.16   2
  -4  -7   2  199.53    4.33   1
   4   7  -2  197.55    6.73   2
  -3  -7   2    0.33    0.68   1
   3  -7  -2    0.31    1.40   1
   3  -7  -2    0.53    1.61   2
   3   7  -2    0.55    1.11   2
   2   7  -2  206.08    6.56   2
   2   7  -2  199.87    5.19   1
   2  -7  -2  195.91    7.14   1
   1   7  -2   -0.29    0.82   1
  -1   7   2    0.25    0.97   3
   1   7  -2   -0.02    0.97   2
   1  -7  -2    0.51    1.20   1
   0  -7  -2    0.76    1.18   1
   0   7  -2   -0.44    1.02   1
   0   7   2    1.23    1.17   3
  -1  -7  -2   13.68    1.97   1
   1   7   2    9.53    2.04   3
  -1   7  -2   12.04    1.78   1
   2   7   2  558.44   10.58   2
   2   7   2  547.22   14.57   3
  -2  -7  -2  557.64   12.19   1
  -2   7  -2  552.35   12.63   1
   3   7   2   13.35    2.71   3
  -3  -7  -2   17.33    2.13   1
   3   7   2   17.80    1.62   2
  -3   7  -2   17.16    2.50   1
  -4   7  -2  774.37   16.97   1
   4   7   2  760.28   14.02   2
  -4  -7  -2  743.31   15.10   1
   4   7   2  714.08   19.41   3
  -5  -7  -2    4.16    1.65   1
   5   7   2    5.56    1.97   2
  -5   7  -2    6.86    2.15   1
   5   7   2    7.96    2.92   3
  -6  -7  -2  685.75   14.58   1
  -6   7  -2  680.12   16.65   1
   6   7   2  673.16   20.06   3
  -7   7  -2    5.06    2.57   1
   7   7   2    0.63    3.46   3
  -8   7  -2  220.82    9.46   1
   8   7   2  232.42   12.64   3
  -9   7  -2    1.52    2.84   1
   9   7   2    2.68    4.41   3
 -10   7  -2    0.62    3.12   1
  10   7   2   -1.61    5.11   3
 -11   7  -2   -3.76    2.77   1
  11   7   2   -3.02    5.67   3
 -12   7  -2   -2.08    3.51   1
  12   7   2   -3.48    7.00   3
  13   7   2   -1.44    8.00   3
  13   8  -2    6.81    6.44   3
  13  -8  -2   -1.43    4.30   2
  12   8  -2    9.06    5.73   3
  12  -8  -2   11.27    4.85   2
  11  -8  -2    0.53    3.75   2
 -11   8   2   -0.55    2.73   1
  11   8  -2    5.35    4.99   3
  10   8  -2   29.28    6.02   3
 -10   8   2   29.80    4.83   1
  10  -8  -2   41.08    6.28   2
   9   8  -2    1.73    3.65   3
  -9   8   2    1.49    2.92   1
   9  -8  -2   -1.02    3.11   2
   9   8  -2    4.13    3.73   2
   8  -8  -2   11.04    3.89   2
   8   8  -2   -0.81    2.95   3
  -8   8   2    3.62    2.87   1
   8   8  -2    6.64    3.52   2
   7   8  -2    8.83    3.17   2
   7   8  -2    7.02    3.36   3
   7  -8  -2   14.65    3.76   2
  -7   8   2   10.49    3.07   1
   6   8  -2   45.76    5.37   3
   6   8  -2   53.41    4.38   2
  -6   8   2   48.19    4.64   1
   6  -8  -2   49.83    5.30   2
   5   8  -2   16.99    2.70   2
   5  -8  -2   16.91    3.47   2
   5  -8  -2   20.25    3.14   1
   4   8  -2  252.14    8.02   2
   4  -8  -2  268.40    9.73   2
  -4  -8   2  258.74    5.74   1
   4  -8  -2  266.95    9.30   1
   3  -8  -2    7.29    2.04   1
  -3  -8   2   10.95    1.38   1
   3   8  -2   10.41    1.93   2
   2  -8  -2  269.54    8.73   1
   2   8  -2  247.09    7.74   2
  -2   8   2  254.08    6.89   3
   1  -8  -2  434.44   11.32   1
   1   8  -2  411.09    9.52   1
   1   8  -2  415.79   10.83   2
  -1   8   2  420.31   10.46   3
   0   8  -2 1807.10   30.91   1
   0   8   2 1826.66   34.69   3
   0  -8  -2 1841.50   32.28   1
   1   8   2   26.07    2.99   3
  -1   8  -2   31.57    2.85   1
  -1  -8  -2   30.02    2.93   1
  -2  -8  -2  350.86    9.36   1
  -2   8  -2  352.16    9.77   1
   2   8   2  346.43   11.26   3
   2   8   2  357.34    7.97   2
   3   8   2   35.51    2.28   2
   3   8   2   33.26    3.88   3
  -3  -8  -2   30.98    2.82   1
  -3   8  -2   31.37    3.15   1
   4   8   2  456.36    9.76   2
  -4   8  -2  451.11   12.33   1
  -4  -8  -2  442.13   10.96   1
   4   8   2  448.10   14.54   3
  -5  -8  -2    1.78    1.61   1
  -5   8  -2    0.72    1.70   1
   5   8   2    5.20    2.93   3
  -6   8  -2    1.04    2.18   1
   6   8   2    3.58    3.11   3
  -6  -8  -2    0.13    1.70   1
   7   8   2   92.95    8.07   3
  -7   8  -2   86.12    6.02   1
   8   8   2   18.26    5.10   3
  -8   8  -2   17.82    3.96   1
  -9   8  -2   12.76    3.89   1
   9   8   2   24.97    6.16   3
  10   8   2   44.07    8.18   3
 -10   8  -2   42.59    5.52   1
 -11   8  -2    1.27    3.58   1
  11   8   2    0.29    5.84   3
 -12   8  -2   -0.09    3.87   1
  12   8   2    4.46    7.76   3
  13  -9  -2    7.68    5.06   2
  13   9  -2   -5.42    5.54   3
  12  -9  -2    3.64    4.66   2
  12   9  -2   -0.03    5.16   3
 -11   9   2   15.45    4.35   1
  11   9  -2    5.43    5.12   3
  11  -9  -2    2.81    4.12   2
 -10   9   2   29.73    4.93   1
  10  -9  -2   19.70    5.14   2
  10   9  -2   22.15    5.83   3
   9   9  -2   21.97    5.14   3
   9  -9  -2   33.00    5.56   2
  -9   9   2   36.17    5.03   1
   9   9  -2   28.34    4.94   2
   8   9  -2  155.80    8.36   2
   8   9  -2  164.94   10.54   3
   8  -9  -2  163.04    9.86   2
  -8   9   2  166.24    8.69   1
   7   9  -2   28.03    4.75   3
  -7   9   2   20.13    3.83   1
   7   9  -2   20.58    3.78   2
   7  -9  -2   22.20    4.40   2
   6   9  -2  140.10    8.81   3
   6   9  -2  150.76    6.91   2
   6  -9  -2  153.62    8.66   2
  -6   9   2  154.01    7.67   1
   5  -9  -2   35.60    4.40   2
   5  -9  -2   32.22    3.87   1
   5   9  -2   34.69    3.43   2
   4   9  -2  185.01    6.86   2
   4  -9  -2  176.54    7.79   1
  -4  -9   2  178.25    4.90   1
   3  -9  -2   -0.67    1.43   1
   3   9  -2    0.48    1.22   2
  -3  -9   2   -0.29    0.96   1
   2   9  -2   80.45    4.43   2
  -2   9   2   81.62    3.85   3
   2  -9  -2   81.35    4.93   1
   1   9  -2   50.01    3.77   2
   1  -9  -2   60.78    4.18   1
  -1   9   2   55.36    3.63   3
   1   9  -2   54.33    3.30   1
   0  -9  -2    1.05    1.41   1
   0   9  -2    0.59    1.31   1
   0   9   2   -0.15    1.42   3
  -1   9  -2   31.29    3.04   1
   1   9   2   25.60    3.17   3
  -1  -9  -2   23.59    2.83   1
  -2  -9  -2  145.17    6.05   1
   2   9   2  151.07    7.42   3
   2   9   2  163.26    5.10   2
  -2   9  -2  161.40    6.57   1
  -3   9  -2    1.55    1.68   1
   3   9   2   -0.50    2.02   3
  -3  -9  -2    2.91    1.66   1
   3   9   2    2.17    1.10   2
   4   9   2  397.97   14.02   3
   4   9   2  415.94    9.33   2
  -4  -9  -2  401.10   10.56   1
  -4   9  -2  401.64   11.97   1
   5   9   2    5.32    3.16   3
  -5  -9  -2    1.30    1.67   1
  -5   9  -2    1.35    2.13   1
  -6   9  -2  410.83   12.89   1
   6   9   2  384.59   15.33   3
   7   9   2    0.57    3.32   3
  -7   9  -2    4.42    3.01   1
  -8   9  -2  207.14    9.86   1
   8   9   2  211.73   12.68   3
  -9   9  -2    2.67    3.20   1
   9   9   2    1.71    4.31   3
 -10   9  -2   21.03    4.82   1
  10   9   2   13.19    6.38   3
 -11   9  -2    2.38    3.90   1
  11   9   2   -3.38    5.66   3
  12   9   2  -11.64    6.92   3
 -12   9  -2    1.43    4.13   1
  12  10  -2   24.68    7.32   3
 -12  10   2   23.60    5.32   1
  12 -10  -2   16.53    5.82   2
  11  10  -2    4.26    4.69   3
 -11  10   2    0.92    3.72   1
  11 -10  -2    6.93    4.30   2
 -10  10   2   95.82    7.70   1
  10  10  -2   63.23    8.33   3
  10 -10  -2   85.01    8.58   2
   9  10  -2   11.63    4.83   3
  -9  10   2    4.58    3.31   1
   9 -10  -2   17.25    5.05   2
   8 -10  -2   46.08    6.22   2
   8  10  -2   47.81    6.48   3
   8  10  -2   55.04    5.54   2
  -8  10   2   62.31    6.09   1
   7  10  -2    9.79    4.05   3
   7  10  -2   18.59    3.89   2
  -7  10   2   21.52    3.96   1
   7 -10  -2   19.77    4.59   2
  -6  10   2   -1.38    2.25   1
   6  10  -2    0.51    2.74   3
   6 -10  -2   -0.14    2.42   2
   6  10  -2   -2.06    2.16   2
   5 -10  -2  108.96    6.71   1
   5  10  -2   99.05    5.34   2
   4 -10  -2  102.47    6.20   1
   4  10  -2  100.42    5.31   2
  -3 -10   2  164.73    5.34   1
   3  10  -2  146.84    6.31   2
   3 -10  -2  163.30    7.52   1
   2  10  -2  223.13    7.98   2
   2 -10  -2  235.74    8.78   1
  -2  10   2  236.30    7.37   3
  -1  10   2   25.92    2.81   3
   1  10  -2   21.05    2.74   2
   1 -10  -2   22.47    3.05   1
   1  10  -2   20.98    2.40   1
   0 -10  -2 1040.88   21.61   1
   0  10  -2 1027.91   20.28   1
   0  10   2 1014.97   22.68   3
  -1 -10  -2 1065.11   21.84   1
   1  10   2 1069.48   24.26   3
  -1  10  -2 1072.82   21.51   1
  -2 -10  -2  496.45   12.85   1
   2  10   2  514.06   11.42   2
   2  10   2  551.08   15.69   3
  -2  10  -2  519.93   13.30   1
   3  10   2    3.73    2.48   3
  -3  10  -2    9.66    2.49   1
   3  10   2    8.20    1.59   2
  -3 -10  -2    8.68    2.26   1
   4  10   2  152.66    8.75   3
  -4 -10  -2  175.49    6.72   1
  -4  10  -2  164.25    7.61   1
   5  10   2   34.35    5.13   3
  -5 -10  -2   33.94    3.36   1
  -5  10  -2   31.06    3.95   1
   6  10   2   21.32    4.82   3
  -6  10  -2   24.20    3.94   1
   7  10   2   -0.64    3.45   3
  -7  10  -2    3.01    2.81   1
  -8  10  -2   21.41    4.39   1
   8  10   2   27.39    6.57   3
   9  10   2   -3.22    4.10   3
  -9  10  -2    0.45    3.09   1
 -10  10  -2   44.48    5.94   1
  10  10   2   55.09    8.84   3
 -11  10  -2   -0.25    3.57   1
  11  10   2    6.15    6.64   3
  12  10   2   -5.63    7.29   3
 -12  10  -2    8.96    5.03   1
  12  11  -2   -2.35    5.51   3
 -12  11   2   -2.15    3.44   1
  11  11  -2    4.12    4.97   3
 -11  11   2    0.87    3.42   1
 -10  11   2   -4.36    2.86   1
  10  11  -2    0.52    4.66   3
   9  11  -2    4.22    3.95   3
  -9  11   2   -0.89    2.91   1
   8  11  -2   27.32    5.82   3
   8  11  -2   19.46    4.35   2
  -8  11   2   19.72    4.17   1
   7  11  -2    8.46    3.23   2
  -7  11   2   11.69    3.74   1
   7  11  -2   13.41    4.66   3
   6  11  -2  363.05   11.53   2
   6  11  -2  367.26   15.44   3
  -6  11   2  354.48   12.78   1
   5 -11  -2   17.81    3.54   1
   5  11  -2   16.01    2.91   2
  -5  11   2   16.77    3.50   1
   4 -11  -2  320.31   11.60   1
   4  11  -2  327.10   10.07   2
   3 -11  -2   -0.27    1.83   1
   3  11  -2    0.26    1.53   2
   3  11  -2   -0.13    1.21   1
  -3 -11   2   -0.23    1.23   1
   2 -11  -2   94.40    5.77   1
  -2  11   2   83.27    4.54   3
   2  11  -2   95.62    5.34   2
   1  11  -2   17.38    2.40   1
   1  11  -2   21.60    3.06   2
  -1  11   2   18.70    2.73   3
   1 -11  -2   32.63    3.71   1
   0 -11  -2    0.56    1.68   1
   0  11  -2   -1.28    1.40   1
   0  11   2   -0.60    1.65   3
  -1 -11  -2   -0.41    1.59   1
  -1  11  -2   -0.48    1.63   1
   1  11   2   -0.76    1.80   3
  -2  11  -2   85.12    5.16   1
  -2 -11  -2   79.04    4.95   1
   2  11   2   81.98    4.07   2
   2  11   2   75.48    5.86   3
  -3  11  -2    2.20    2.15   1
  -3 -11  -2    1.28    1.81   1
   3  11   2    3.19    2.46   3
   3  11   2    2.86    1.41   2
   4  11   2  282.77   12.34   3
  -4  11  -2  297.04   10.60   1
  -4 -11  -2  291.70    9.37   1
   5  11   2    1.55    2.82   3
  -5  11  -2    1.60    2.14   1
  -5 -11  -2    0.34    1.85   1
  -6  11  -2  333.14   12.37   1
   6  11   2  332.80   14.88   3
  -7  11  -2    2.37    2.88   1
   7  11   2   -5.01    3.29   3
   8  11   2   97.21    9.36   3
  -8  11  -2  115.26    7.85   1
  -9  11  -2   -5.68    2.82   1
   9  11   2   -1.49    4.82   3
  10  11   2   36.26    8.43   3
 -10  11  -2   27.51    5.26   1
  11  11   2   -6.28    6.06   3
 -11  11  -2   -2.83    3.53   1
  12  11   2   -2.02    7.30   3
 -12  11  -2   -1.04    4.08   1
  12  12  -2    5.03    6.09   3
 -12  12   2   11.39    5.02   1
  11  12  -2    0.59    4.90   3
 -11  12   2   -1.26    3.48   1
 -10  12   2   40.11    5.78   1
  10  12  -2   36.84    7.30   3
  -9  12   2    5.69    3.91   1
   9  12  -2    4.42    4.61   3
  -8  12   2    7.55    3.89   1
   8  12  -2   -0.75    3.89   3
   7  12  -2    5.52    3.90   3
   7  12  -2    1.88    2.90   2
  -7  12   2    3.09    3.29   1
   6  12  -2   93.92    6.02   2
  -6  12   2   90.22    7.00   1
   6  12  -2   81.88    7.77   3
   5 -12  -2   20.05    3.84   1
   5  12  -2   30.57    3.59   2
   5  12  -2   25.84    4.87   3
   4 -12  -2  588.17   17.06   1
   4  12  -2  592.14   15.06   2
   3  12  -2    0.29    1.71   2
   3 -12  -2    3.45    2.50   1
   3  12  -2    1.25    1.53   1
   2  12  -2  786.37   18.60   2
   2 -12  -2  802.35   19.62   1
  -2  12   2  800.45   18.25   3
  -1  12   2    5.91    2.15   3
   1  12  -2    5.10    2.14   2
   1  12  -2    6.73    2.06   1
   1 -12  -2    5.10    2.25   1
   0  12  -2  750.81   16.84   1
   0  12   2  726.81   18.68   3
   0 -12  -2  719.70   17.83   1
  -1  12  -2   73.39    4.99   1
   1  12   2   66.35    5.41   3
  -1 -12  -2   67.64    4.78   1
  -2 -12  -2  103.50    5.84   1
  -2  12  -2   99.52    5.95   1
   2  12   2  115.93    5.09   2
   2  12   2  108.20    7.15   3
  -3  12  -2  109.75    6.35   1
  -3 -12  -2  106.60    5.94   1
   3  12   2  111.79    7.65   3
  -4  12  -2  142.22    7.56   1
  -4 -12  -2  153.48    6.86   1
   4  12   2  135.55    8.99   3
   5  12   2    3.44    3.65   3
  -5  12  -2    0.89    2.47   1
  -6  12  -2   22.27    4.18   1
   6  12   2    9.90    4.59   3
   7  12   2   -2.71    3.72   3
  -7  12  -2    3.87    3.10   1
  -8  12  -2    4.78    3.71   1
   8  12   2    5.47    4.95   3
   9  12   2    2.46    4.96   3
  -9  12  -2    5.58    4.21   1
 -10  12  -2    5.65    4.19   1
  10  12   2    7.50    6.80   3
  11  12   2   11.08    7.32   3
 -11  12  -2    9.93    4.65   1
 -12  13   2   -1.91    4.52   1
 -11  13   2    7.28    4.50   1
  11  13  -2    1.62    5.78   3
  10  13  -2    4.75    5.58   3
 -10  13   2   16.44    5.22   1
  -9  13   2   10.64    4.36   1
   9  13  -2    5.35    4.95   3
  -8  13   2   81.94    7.58   1
   8  13  -2   79.64    8.85   3
  -7  13   2    1.49    3.19   1
   7  13  -2   -2.29    2.78   3
  -6  13   2  167.52    9.28   1
   6  13  -2  171.16    7.99   2
   6  13  -2  163.38   10.92   3
   5  13  -2    1.28    3.19   3
  -5  13   2    7.13    3.14   1
   5  13  -2   11.07    2.92   2
   4 -13  -2  287.23   11.78   1
   4  13  -2  289.85   10.12   2
   3 -13  -2   29.73    4.19   1
   3  13  -2   27.11    3.46   2
   2 -13  -2  153.03    7.98   1
   2  13  -2  163.37    6.43   1
   2  13  -2  156.66    7.45   2
   1  13  -2    4.30    2.08   2
   1 -13  -2    5.78    2.56   1
   1  13  -2    7.82    2.39   1
  -1  13   2    4.96    2.26   3
   0  13  -2    9.30    2.55   1
   0 -13  -2    5.80    2.58   1
   0  13   2    7.38    2.66   3
  -1 -13  -2   -0.13    1.86   1
   1  13   2    1.03    2.27   3
  -1  13  -2    1.16    1.90   1
  -2 -13  -2   74.10    5.28   1
  -2  13  -2   85.41    5.77   1
   2  13   2   79.63    6.55   3
  -3  13  -2   -2.22    1.97   1
  -3 -13  -2    0.64    1.89   1
   3  13   2    1.50    2.84   3
  -4  13  -2  269.75   10.84   1
  -4 -13  -2  251.55    9.43   1
   4  13   2  267.45   12.62   3
  -5  13  -2    0.85    2.57   1
   5  13   2   -2.36    2.68   3
   6  13   2  117.37    9.70   3
  -6  13  -2  127.25    7.92   1
  -7  13  -2    2.52    3.24   1
   7  13   2   10.79    4.89   3
   8  13   2   30.19    6.70   3
  -8  13  -2   23.19    5.08   1
   9  13   2    7.78    5.84   3
  -9  13  -2    8.10    4.11   1
  10  13   2    1.88    6.62   3
 -10  13  -2    0.27    3.94   1
 -11  13  -2   -3.13    4.37   1
  11  13   2   -7.78    6.32   3
 -11  14   2   -2.36    4.28   1
  11  14  -2   -1.77    5.57   3
 -10  14   2   10.13    4.63   1
  10  14  -2    9.51    6.08   3
   9  14  -2    3.59    5.13   3
  -9  14   2    9.40    4.30   1
  -8  14   2    0.73    3.66   1
   8  14  -2    3.38    4.24   3
   7  14  -2    3.04    3.59   3
  -7  14   2   -0.60    2.91   1
   6  14  -2   14.27    4.64   3
  -6  14   2   11.16    3.86   1
   6  14  -2   16.50    3.56   2
   5  14  -2    2.89    2.45   2
  -5  14   2   -0.51    2.74   1
   5  14  -2   -0.20    3.12   3
   4  14  -2   30.95    3.92   2
   4 -14  -2   41.86    5.31   1
   3  14  -2  141.76    7.24   2
   3 -14  -2  118.45    7.58   1
   2  14  -2    9.15    2.67   2
   2  14  -2   10.72    2.56   1
   2 -14  -2    7.39    2.98   1
  -1  14   2   57.00    4.81   3
   1  14  -2   52.25    4.40   1
   1  14  -2   60.89    5.18   2
   1 -14  -2   65.82    5.68   1
   0  14  -2  416.26   12.32   1
   0 -14  -2  417.22   13.40   1
   0  14   2  422.56   13.87   3
  -1 -14  -2   16.38    3.27   1
  -1  14  -2    8.99    2.90   1
   1  14   2   19.02    3.68   3
  -2 -14  -2  380.60   12.46   1
  -2  14  -2  413.88   12.92   1
   2  14   2  405.71   14.83   3
  -3 -14  -2   16.36    3.40   1
  -3  14  -2   13.77    3.47   1
   3  14   2   10.72    4.00   3
  -4  14  -2   63.40    5.90   1
   4  14   2   68.95    7.09   3
   5  14   2    3.04    3.73   3
  -5  14  -2   -0.45    2.80   1
   6  14   2   14.01    5.15   3
  -6  14  -2   20.15    4.37   1
   7  14   2   -1.72    4.23   3
  -7  14  -2   -4.30    2.65   1
   8  14   2   33.63    7.17   3
  -8  14  -2   32.38    5.87   1
   9  14   2   27.61    7.58   3
  -9  14  -2   12.24    4.77   1
 -10  14  -2   54.49    7.42   1
  10  14   2   61.92   10.34   3
 -10  15   2   23.07    5.66   1
  10  15  -2   30.46    7.89   3
   9  15  -2    2.73    4.86   3
  -9  15   2    5.66    4.30   1
   8  15  -2  121.68   10.79   3
  -8  15   2   95.44    8.32   1
   7  15  -2   13.92    5.09   3
  -7  15   2   11.94    4.46   1
  -6  15   2  198.16   10.76   1
   6  15  -2  197.05   12.28   3
  -5  15   2    3.47    2.93   1
   5  15  -2   -1.58    2.24   2
   5  15  -2   -2.19    2.88   3
   4  15  -2  154.76    7.78   2
   4 -15  -2  161.96    9.44   1
   3 -15  -2   26.48    4.65   1
   3  15  -2   23.82    3.85   2
   2 -15  -2   71.91    6.18   1
   2  15  -2   63.90    4.85   1
   2  15  -2   52.26    5.03   2
   1 -15  -2   20.42    3.96   1
   1  15  -2   26.31    3.66   1
   1  15  -2   20.72    3.61   2
   0 -15  -2    1.84    2.46   1
   0  15  -2    0.99    2.19   1
   0  15   2    1.46    2.53   3
   1  15   2   19.59    4.11   3
  -1  15  -2   18.49    3.49   1
  -1 -15  -2   13.88    3.35   1
  -2 -15  -2   89.28    6.31   1
   2  15   2   96.60    7.62   3
  -2  15  -2  113.92    6.97   1
  -3  15  -2    3.84    2.73   1
   3  15   2    9.65    3.73   3
  -3 -15  -2    4.55    2.70   1
  -4  15  -2   61.47    6.01   1
   4  15   2   72.36    7.56   3
  -5  15  -2    5.70    3.43   1
   5  15   2   -0.36    3.70   3
   6  15   2   27.48    6.25   3
  -6  15  -2   32.30    5.32   1
  -7  15  -2   -3.07    2.96   1
   7  15   2   -2.34    4.35   3
  -8  15  -2    8.33    4.20   1
   8  15   2   17.07    6.00   3
  -9  15  -2   -3.54    4.19   1
   9  15   2    9.21    6.01   3
  10  15   2    9.15    7.31   3
  10  16  -2    7.57    6.46   3
   9  16  -2   10.84    5.69   3
  -9  16   2   -1.38    4.32   1
  -8  16   2    6.20    4.42   1
   8  16  -2    5.48    4.90   3
   7  16  -2   18.92    5.50   3
  -7  16   2   13.75    4.72   1
  -6  16   2    3.75    3.63   1
   6  16  -2    2.45    3.90   3
  -5  16   2    6.07    3.57   1
   5  16  -2    9.58    4.34   3
   4  16  -2  156.95    8.11   2
   4 -16  -2  156.23    9.60   1
  -4  16   2  163.12    9.60   1
   3 -16  -2    7.59    3.45   1
   3  16  -2   11.72    3.23   2
   2 -16  -2  480.58   16.02   1
   2  16  -2  497.03   15.37   2
   1  16  -2    5.05    2.54   1
   1  16  -2    9.89    3.19   2
   1 -16  -2    3.20    2.98   1
   0  16   2  344.00   13.01   3
   0  16  -2  352.18   11.84   1
   0 -16  -2  333.50   12.49   1
   1  16   2    7.55    3.44   3
  -1 -16  -2    8.20    3.23   1
  -1  16  -2    5.25    2.97   1
  -2  16  -2  147.93    8.18   1
  -2 -16  -2  148.47    8.14   1
   2  16   2  146.53    9.50   3
  -3  16  -2   -0.94    2.69   1
   3  16   2    0.73    3.14   3
   4  16   2   74.12    7.76   3
  -5  16  -2   -0.28    3.20   1
   5  16   2   -0.91    3.65   3
  -6  16  -2    3.03    3.55   1
   6  16   2   -0.65    4.23   3
   7  16   2   -2.67    4.60   3
  -7  16  -2   -1.28    3.40   1
  -8  16  -2   -0.12    3.98   1
   8  16   2    5.09    5.24   3
   9  16   2   -2.02    5.24   3
  -9  16  -2   -0.68    4.11   1
  -9  17   2    6.15    4.77   1
   9  17  -2    2.41    5.49   3
  -8  17   2   26.57    6.13   1
   8  17  -2   35.68    7.40   3
  -7  17   2    0.49    3.69   1
   7  17  -2   -0.39    3.77   3
   6  17  -2  117.63   10.26   3
  -6  17   2   84.64    7.98   1
   5  17  -2    5.88    4.20   3
  -5  17   2    4.80    3.88   1
   4  17  -2  125.23    7.54   2
  -4  17   2  151.84    9.76   1
   4  17  -2  132.71   10.37   3
   3 -17  -2    0.90    3.30   1
   3  17  -2    1.87    2.51   2
   2  17  -2   10.61    3.24   2
   2 -17  -2    9.78    3.72   1
   1  17  -2    3.69    2.85   1
   1  17  -2    5.21    2.97   2
   1 -17  -2    1.86    3.02   1
   0 -17  -2   10.84    3.60   1
   0  17  -2   10.40    3.52   2
   0  17  -2   14.13    3.50   1
  -1 -17  -2   19.19    4.06   1
  -1  17  -2   16.18    3.64   1
   1  17   2   23.21    4.66   3
  -2  17  -2   26.25    4.35   1
  -2 -17  -2   24.74    4.29   1
   2  17   2   15.04    4.47   3
   3  17   2   13.67    4.35   3
  -3  17  -2   20.42    4.41   1
   4  17   2   40.15    6.60   3
  -4  17  -2   41.17    5.49   1
   5  17   2    3.20    3.69   3
  -5  17  -2   -0.97    2.89   1
   6  17   2   52.10    8.00   3
  -7  17  -2    4.51    4.06   1
   7  17   2    3.72    5.72   3
   8  17   2   54.26    9.10   3
   9  17   2   -4.28    5.38   3
   9  18  -2   -0.39    5.46   3
   8  18  -2   41.30    8.08   3
  -7  18   2    5.54    4.66   1
   7  18  -2    0.28    4.27   3
  -6  18   2   -0.69    3.74   1
   6  18  -2    1.21    4.35   3
  -5  18   2   27.84    5.71   1
   5  18  -2   22.50    5.94   3
  -4  18   2   80.37    7.90   1
   4  18  -2   83.92    8.87   3
   3  18  -2   48.90    5.45   2
   3 -18  -2   59.11    6.65   1
  -3  18   2   53.79    6.61   1
   2  18  -2   99.60    7.41   2
   2 -18  -2  103.41    8.17   1
   1 -18  -2  279.02   12.55   1
   1  18  -2  289.33   12.39   2
   0  18  -2  213.75   11.02   2
   0  18  -2  192.00    9.45   1
   0 -18  -2  225.21   10.90   1
  -1 -18  -2    8.01    3.59   1
  -1  18  -2    7.78    3.53   1
   2  18   2   43.78    6.29   3
  -2  18  -2   25.93    4.52   1
   3  18   2   -2.90    3.31   3
  -3  18  -2    2.87    3.33   1
   4  18   2   10.66    4.86   3
  -4  18  -2    8.39    4.02   1
   5  18   2   63.57    8.03   3
  -6  18  -2   -2.69    3.78   1
   6  18   2    4.18    5.03   3
   7  18   2    8.04    6.02   3
  -7  18  -2   -0.45    3.57   1
   8  18   2   16.46    7.28   3
   8  19  -2   18.58    6.67   3
   7  19  -2   -3.65    4.34   3
  -7  19   2    3.23    4.16   1
   6  19  -2   68.67    9.07   3
  -6  19   2   51.15    7.08   1
   5  19  -2    5.17    4.57   3
  -5  19   2    4.69    4.51   1
  -4  19   2   67.88    7.66   1
   4  19  -2   71.20    8.68   3
   3 -19  -2    4.02    3.67   1
   3  19  -2    7.40    4.36   3
  -3  19   2   13.23    4.82   1
   2 -19  -2   36.54    5.69   1
   2  19  -2   30.95    4.88   2
   1 -19  -2   -0.31    3.28   1
   1  19  -2    2.98    3.06   2
   0  19  -2   -0.82    2.94   1
   0  19  -2   -2.33    2.55   2
   0 -19  -2    1.74    3.49   1
  -1 -19  -2    8.38    3.89   1
  -1  19  -2    4.59    3.53   1
   2  19   2   38.81    6.24   3
  -2  19  -2   41.93    5.66   1
   3  19   2    1.77    4.02   3
  -3  19  -2    0.73    3.08   1
  -4  19  -2   80.26    7.63   1
   4  19   2   77.83    8.79   3
   5  19   2    2.47    4.19   3
  -5  19  -2   -0.53    3.37   1
   6  19   2   69.38    9.14   3
   7  19   2   -2.76    5.24   3
   7  20  -2   -3.99    4.70   3
  -6  20   2    3.00    4.45   1
   6  20  -2    8.22    5.54   3
  -5  20   2    3.86    4.57   1
   5  20  -2    4.25    5.19   3
   4  20  -2   40.42    7.30   3
  -4  20   2   33.86    6.55   1
  -3  20   2    9.09    5.05   1
   3  20  -2    8.95    5.01   3
  -2  20   2  123.68   10.23   1
   2 -20  -2  124.54    9.48   1
   2  20  -2  132.80    8.85   2
   1 -20  -2    2.33    3.81   1
   1  20  -2    1.86    2.90   2
   0 -20  -2  191.16   10.97   1
   0  20  -2  194.35   11.32   2
  -1  20  -2    8.80    4.42   2
  -1  20  -2    9.85    4.15   1
  -2  20  -2   96.89    8.01   1
  -3  20  -2   -0.74    3.70   1
   3  20   2   -0.02    4.15   3
   4  20   2   67.71    8.63   3
   5  20   2    7.36    5.63   3
  -5  20  -2    1.79    4.10   1
   6  20   2    1.34    5.58   3
   6  21  -2   45.25    8.65   3
   5  21  -2    3.40    4.86   3
  -5  21   2   -1.98    4.09   1
   4  21  -2   61.43    8.60   3
  -4  21   2   66.10    8.28   1
  -3  21   2    4.39    4.96   1
   3  21  -2    2.53    4.73   3
  -2  21   2   30.81    6.49   1
   2  21  -2   23.89    6.10   3
   1  21  -2    6.81    4.13   2
   1 -21  -2    9.55    4.36   1
   0 -21  -2    1.46    3.94   1
   0  21  -2   -3.10    3.36   2
  -1  21  -2    4.92    4.15   2
  -3  21  -2    7.46    4.20   1
   4  21   2   69.45    9.05   3
  -4  21  -2   55.96    7.58   1
   5  21   2    3.51    5.64   3
   4  22  -2   25.86    7.16   3
  -3  22   2   -4.68    4.74   1
   3  22  -2    2.73    5.00   3
  -2  22   2   51.43    7.87   1
  -1  22   2    8.08    5.59   1
   0  22  -2   65.39    7.95   2
  -1  22  -2    2.84    4.16   2
  -3  22  -2   -2.27    3.68   1
  -1  23   2    3.85    5.93   1
  14   0  -3    9.13    5.28   2
  13   0  -3    1.69    4.45   2
  12   0  -3    8.46    4.66   2
  11   0  -3   -1.32    3.67   2
  10   0  -3   70.36    7.07   2
   9   0  -3    0.54    3.06   2
   9   0  -3   -3.06    2.60   3
   8   0  -3  256.15    9.50   3
   8   0  -3  236.34   10.24   2
  -8   0   3  247.13    7.06   1
  -7   0   3    0.98    1.14   1
   7   0  -3   -1.80    1.56   3
   7   0  -3   -0.31    2.25   2
  -6   0   3  736.16   13.88   1
   6   0  -3  744.32   17.47   2
   6   0  -3  745.76   17.00   3
   5   0  -3   -1.69    1.10   3
  -5   0   3   -0.38    0.80   1
   5   0  -3    0.01    2.02   2
   4   0  -3 1810.91   31.57   2
   4   0  -3 1792.82   28.79   1
   3   0  -3   -0.32    1.48   2
   3   0  -3    0.00    0.62   1
   2   0  -3   56.99    3.09   2
   2   0  -3   58.20    2.28   1
   1   0  -3    1.49    0.84   2
   1   0  -3   -1.36    0.63   1
   0   0  -3    7.30    1.30   1
  -1   0  -3    0.90    0.87   1
  -2   0  -3   48.01    2.75   1
   2   0   3   51.43    4.57   3
  -3   0  -3    0.72    1.06   1
   3   0   3    1.16    2.82   3
  -4   0  -3  777.34   15.80   1
   4   0   3  791.12   20.33   3
   4   0   3  783.57   15.56   2
  -5   0  -3    0.55    1.47   1
   5   0   3   -0.77    1.26   2
   5   0   3    0.31    3.48   3
   6   0   3  352.29   10.32   2
   6   0   3  370.62   14.11   3
  -6   0  -3  347.08    9.93   1
   7   0   3   -2.94    4.28   3
   7   0   3    2.35    2.23   2
  -7   0  -3    1.11    2.04   1
   8   0   3    4.63    5.53   3
   8   0   3   14.41    3.21   2
  -8   0  -3    0.99    2.44   1
   9   0   3    3.08    3.08   2
   9   0   3    3.52    5.93   3
  -9   0  -3   -1.35    2.63   1
  10   0   3   19.29    7.79   3
 -10   0  -3   27.18    4.52   1
  11   0   3  -15.15    6.48   3
  14  -1  -3    8.72    5.29   2
  14   1  -3   10.79    5.85   2
  13   1  -3    0.12    4.14   2
  13  -1  -3    1.91    4.69   2
  12   1  -3    6.56    4.30   2
  12  -1  -3   17.53    5.03   2
  11   1  -3   14.84    4.91   2
  11  -1  -3    7.44    4.24   2
  10  -1  -3   42.19    5.76   2
  10   1  -3   45.17    5.66   2
   9   1  -3   -0.15    3.35   2
   9  -1  -3    2.01    3.46   2
   9   1  -3    0.61    2.61   3
   8   1  -3   -2.23    2.14   3
   8  -1  -3   -1.18    2.30   3
   8  -1  -3    1.02    3.02   2
  -8   1   3    1.73    1.59   1
   8   1  -3    0.35    2.68   2
  -7   1   3   16.96    2.19   1
   7   1  -3   25.40    3.77   2
   7  -1  -3   25.12    2.97   3
   7   1  -3   25.71    3.24   3
   7  -1  -3   32.03    4.21   2
  -7  -1   3   26.15    2.08   1
  -6  -1   3    4.48    1.16   1
   6   1  -3    1.96    2.43   2
   6   1  -3    2.61    1.80   3
   6  -1  -3    1.82    2.35   2
   6  -1  -3    2.37    1.55   3
  -6   1   3    2.49    1.43   1
   5   1  -3   32.23    3.61   2
   5  -1  -3   25.73    2.16   1
  -5   1   3   23.92    2.09   1
   5  -1  -3   28.71    3.28   2
  -5  -1   3   29.80    1.83   1
   5  -1  -3   29.77    2.46   3
   4  -1  -3 1378.58   25.67   2
   4  -1  -3 1401.13   23.67   1
   4   1  -3 1434.78   22.50   1
   4   1  -3 1411.43   25.59   2
   3  -1  -3   41.15    2.30   1
   3  -1  -3   34.67    2.84   2
   3   1  -3   37.81    1.71   1
   3   1  -3   41.73    2.96   2
   2  -1  -3  257.44    6.74   2
   2   1  -3  266.62    6.64   2
   2   1  -3  257.93    5.16   1
   2  -1  -3  266.58    6.07   1
   1   1  -3  505.21    9.70   2
   1  -1  -3  486.20    9.28   1
   1   1  -3  491.96    8.89   1
   0   1  -3   39.16    2.03   2
   0   1  -3   41.78    2.41   1
   0  -1  -3   40.04    2.30   1
  -1   1  -3  816.07   14.67   1
  -1  -1  -3  812.89   14.66   1
   1   1   3  806.94   18.12   3
   2   1   3  416.45   12.04   3
  -2  -1  -3  419.72    9.23   1
  -2   1  -3  411.29    9.10   1
  -3  -1  -3    2.60    1.25   1
   3  -1   3    1.57    2.68   3
  -3   1  -3    0.31    1.01   1
   3   1   3    1.00    2.27   3
   4   1   3 1309.70   29.21   3
   4  -1   3 1327.26   29.84   3
   4   1   3 1314.25   23.33   2
  -4  -1  -3 1373.34   24.18   1
  -4   1  -3 1379.91   24.26   1
  -5  -1  -3   50.11    3.68   1
   5   1   3   41.29    3.09   2
   5  -1   3   33.51    5.37   3
   5  -1   3   42.06    3.43   2
   5   1   3   36.87    5.03   3
  -5   1  -3   40.80    3.36   1
   6   1   3    2.93    1.90   2
  -6  -1  -3    2.03    1.87   1
  -6   1  -3    3.60    1.84   1
   6   1   3   11.80    4.22   3
   6  -1   3   -1.63    4.07   3
   6  -1   3    2.99    1.97   2
   7   1   3    1.98    2.18   2
  -7  -1  -3   -0.95    1.87   1
  -7   1  -3   -0.23    1.93   1
   7  -1   3   -1.85    4.68   3
   7  -1   3    0.80    2.10   2
   7   1   3   -0.90    3.78   3
  -8   1  -3  105.83    6.14   1
  -8  -1  -3   96.47    5.81   1
   8   1   3   77.70    8.62   3
   8  -1   3  125.53   10.50   3
   8   1   3   94.36    6.04   2
   8  -1   3  107.19    6.69   2
   9  -1   3    5.61    6.38   3
  -9  -1  -3    9.31    3.16   1
  -9   1  -3   10.61    3.11   1
   9  -1   3   13.13    3.68   2
   9   1   3   13.30    6.27   3
  10  -1   3  167.37   13.62   3
  10   1   3  144.04   12.36   3
 -10   1  -3  154.79    8.26   1
  10  -1   3  172.91    9.56   2
  11   1   3   -7.95    6.40   3
  14   2  -3    5.83    4.90   2
  14  -2  -3    6.41    4.96   2
  13  -2  -3   -0.53    4.25   2
  13   2  -3    2.57    4.51   2
  12   2  -3    1.78    4.44   2
  12  -2  -3    3.44    4.26   2
  11  -2  -3   13.65    4.73   2
  11   2  -3   23.22    5.30   2
  10   2  -3   10.68    4.20   3
  10  -2  -3   11.66    4.77   2
  10   2  -3   16.24    4.71   2
   9   2  -3    3.89    3.68   2
   9   2  -3    1.37    2.77   3
   9  -2  -3   -0.67    3.04   2
  -8   2   3  139.90    5.74   1
   8   2  -3  153.48    7.82   3
   8   2  -3  144.69    7.82   2
   8  -2  -3  124.95    7.76   2
  -7   2   3    1.49    1.47   1
   7   2  -3   -2.46    1.50   3
   7  -2  -3    0.34    2.37   2
   7   2  -3    2.37    2.65   2
   7  -2  -3   -1.62    1.68   3
   6  -2  -3  785.51   18.61   2
   6  -2  -3  832.23   17.17   3
  -6   2   3  823.15   16.29   1
  -6  -2   3  819.40   13.86   1
   6   2  -3  829.53   19.70   3
   6   2  -3  814.88   18.47   2
   5  -2  -3    3.26    1.35   1
   5   2  -3    1.48    2.17   2
  -5  -2   3    3.60    0.75   1
   5  -2  -3    5.85    1.34   3
   5  -2  -3    0.25    2.15   2
   4  -2  -3 1320.62   24.61   2
   4  -2  -3 1305.02   23.03   1
  -4  -2   3 1357.67   20.56   1
   4   2  -3 1295.45   24.18   2
   3  -2  -3  352.75    9.03   2
   3   2  -3  368.39    8.92   2
   3   2  -3  382.48    6.55   1
   3  -2  -3  356.99    8.40   1
   2   2  -3   94.15    2.39   1
   2  -2  -3   92.79    4.07   2
   2  -2  -3   87.44    3.39   1
   1  -2  -3    3.39    1.13   1
   1   2  -3    4.44    1.14   2
   1   2  -3    4.56    1.06   1
   0   2  -3    3.29    0.98   2
   0  -2  -3    2.56    1.10   1
   0   2  -3    2.57    1.00   1
   0   2   3    9.55    2.60   3
  -1  -2  -3    0.58    0.93   1
   1   2   3    1.38    2.22   3
  -1   2  -3    1.18    0.85   1
  -2  -2  -3  168.04    5.22   1
  -2   2  -3  170.51    5.18   1
   2   2   3  170.16    6.96   3
   3   2   3   19.76    3.36   3
  -3   2  -3   23.28    2.26   1
  -3  -2  -3   25.70    2.28   1
  -4   2  -3  193.95    6.40   1
   4  -2   3  194.87    9.46   3
   4   2   3  196.38    5.52   2
  -4  -2  -3  198.41    6.52   1
   4   2   3  198.60    8.97   3
   5  -2   3  169.84    9.17   3
   5   2   3  150.96    8.28   3
   5   2   3  156.29    5.49   2
  -5  -2  -3  154.14    6.10   1
  -5   2  -3  161.35    6.24   1
  -6   2  -3  272.12    8.83   1
   6  -2   3  268.32    9.44   2
   6   2   3  279.28    8.40   2
  -6  -2  -3  268.70    8.61   1
   6   2   3  288.42   12.33   3
   6  -2   3  273.54   12.83   3
  -7   2  -3   54.75    4.38   1
   7  -2   3   52.35    4.80   2
   7   2   3   54.45    6.72   3
   7  -2   3   55.25    7.48   3
   7   2   3   63.81    4.64   2
  -7  -2  -3   59.75    4.42   1
   8   2   3   67.91    8.05   3
  -8  -2  -3   63.62    4.87   1
   8  -2   3   64.30    5.62   2
   8  -2   3   67.50    8.74   3
  -8   2  -3   60.32    4.87   1
  -9  -2  -3   -3.16    2.57   1
   9   2   3    5.33    5.75   3
   9  -2   3    0.69    3.07   2
   9  -2   3    1.93    5.79   3
  -9   2  -3    0.67    2.37   1
  10  -2   3   42.72    5.69   2
  10  -2   3   40.77    8.55   3
 -10   2  -3   38.81    4.92   1
  10   2   3   45.28    8.46   3
  11   2   3   -8.82    6.28   3
  12   2   3   -9.51    7.14   3
  14  -3  -3   10.14    5.07   2
  13   3  -3   11.57    5.26   2
  13  -3  -3   -0.46    3.85   2
  12   3  -3   35.81    6.04   2
  12  -3  -3   29.24    6.16   2
  11   3  -3    1.04    3.60   2
  11  -3  -3    4.19    3.88   2
  10   3  -3  113.57    7.93   2
  10   3  -3  125.21    8.48   3
  10  -3  -3  109.54    8.69   2
   9   3  -3   16.03    4.41   2
   9  -3  -3    6.29    3.65   2
  -9   3   3   12.15    2.64   1
   9   3  -3   17.24    4.14   3
   8   3  -3  123.24    7.47   3
   8   3  -3  144.29    8.05   2
   8  -3  -3  116.73    7.62   2
  -8   3   3  138.73    6.14   1
   7  -3  -3    3.30    2.68   2
  -7   3   3   -0.46    1.46   1
   7   3  -3    2.78    2.54   2
   7   3  -3    1.86    2.10   3
  -6  -3   3   36.68    1.78   1
   6   3  -3   33.22    3.85   3
   6   3  -3   37.45    3.98   2
   6  -3  -3   37.74    2.97   3
  -6   3   3   25.06    2.79   1
   6  -3  -3   27.93    3.78   2
   5  -3  -3  314.16   10.05   2
   5  -3  -3  320.40    8.72   1
   5   3  -3  306.18    9.24   2
   4  -3  -3 1216.72   22.05   1
   4   3  -3 1184.28   22.58   2
   4  -3  -3 1226.33   23.29   2
   3  -3  -3  804.39   16.12   2
   3  -3  -3  795.82   15.58   1
   3   3  -3  790.32   15.69   2
   2  -3  -3 3593.20   55.26   1
   2   3  -3 3532.72   55.80   2
   2   3  -3 3495.52   53.11   1
   2  -3  -3 3566.40   55.82   2
   1   3  -3 4752.78   73.56   2
   1  -3  -3 4717.52   72.46   1
   1   3  -3 4795.52   71.10   1
   1  -3  -3 4846.85   72.90   2
   0   3  -3  349.95    8.06   2
   0   3  -3  336.60    7.09   1
   0   3   3  337.52    8.98   3
   0  -3  -3  333.01    7.67   1
  -1   3  -3   69.76    2.99   1
  -1  -3  -3   67.92    3.14   1
   1   3   3   81.82    4.42   3
  -2  -3  -3   11.55    1.59   1
   2   3   3   16.17    2.59   3
  -2   3  -3   17.55    1.81   1
  -3  -3  -3    9.75    1.72   1
  -3   3  -3    9.23    1.58   1
   3   3   3   11.60    2.74   3
  -4   3  -3   19.14    2.32   1
   4   3   3   24.69    1.94   2
   4   3   3   24.62    3.87   3
  -4  -3  -3   20.03    2.42   1
   5   3   3  586.90   16.95   3
   5   3   3  596.74   12.34   2
  -5   3  -3  590.76   13.64   1
  -5  -3  -3  561.23   13.08   1
   6   3   3   39.84    5.46   3
  -6   3  -3   45.91    3.77   1
  -6  -3  -3   50.25    3.83   1
   6   3   3   42.87    3.45   2
   7   3   3   67.25    4.66   2
  -7   3  -3   65.71    4.84   1
   7  -3   3   56.66    7.38   3
  -7  -3  -3   73.83    4.91   1
   7   3   3   53.69    6.73   3
  -8  -3  -3    1.70    2.44   1
   8  -3   3   -3.58    5.23   3
  -8   3  -3    5.48    2.62   1
   8   3   3   -1.71    4.09   3
   9  -3   3    3.32    6.17   3
   9   3   3    0.81    5.14   3
  -9   3  -3    1.81    2.73   1
  10   3   3   20.98    7.16   3
 -10   3  -3   13.16    3.75   1
  11   3   3   -7.07    6.24   3
 -11   3  -3    1.68    3.30   1
  12   3   3    9.61    8.13   3
  13   3   3    2.62    8.91   3
  14  -4  -3    4.39    5.20   2
  13   4  -3    1.24    4.71   2
  13  -4  -3   -0.34    4.04   2
  12   4  -3   -5.18    3.65   2
  12  -4  -3    0.53    3.83   2
  11   4  -3   10.02    4.62   3
  11  -4  -3   27.80    5.48   2
  11   4  -3   29.03    5.58   2
  10  -4  -3    9.34    4.21   2
  10   4  -3   17.94    4.68   2
  10   4  -3   15.56    4.37   3
   9   4  -3   98.14    7.38   2
  -9   4   3   89.07    5.47   1
   9   4  -3  100.32    7.53   3
   9  -4  -3   95.78    7.78   2
   8  -4  -3  200.13    9.74   2
   8   4  -3  208.07    9.88   3
   8   4  -3  202.44    9.42   2
  -8   4   3  203.86    7.76   1
   7  -4  -3   10.33    3.20   2
   7   4  -3    9.66    2.87   3
  -7   4   3    3.59    1.90   1
   7   4  -3   11.91    3.25   2
  -6   4   3  345.73    9.74   1
   6   4  -3  351.13   12.22   3
   6   4  -3  352.63   10.61   2
   6  -4  -3  344.55   11.38   2
   5  -4  -3   11.77    2.14   1
   5   4  -3   12.53    2.50   2
   4  -4  -3  673.19   15.35   2
   4   4  -3  678.18   14.62   2
   4  -4  -3  651.27   14.35   1
   3  -4  -3  105.37    5.06   2
   3  -4  -3  110.76    4.69   1
   3   4  -3  104.27    4.38   2
   2  -4  -3  295.31    7.78   2
   2   4  -3  294.30    5.55   1
   2  -4  -3  292.48    7.88   1
   2   4  -3  290.58    7.62   2
   1  -4  -3   41.78    2.63   2
   1  -4  -3   44.58    2.78   1
   1   4  -3   41.57    1.92   1
   1   4  -3   43.53    2.75   2
   0   4   3  112.26    4.73   3
   0   4  -3  109.66    3.55   1
   0  -4  -3  109.71    4.15   1
  -1  -4  -3   -0.88    0.86   1
  -1   4  -3   -0.67    0.65   1
   1   4   3    0.08    1.45   3
  -2  -4  -3  266.60    6.99   1
  -2   4  -3  270.87    7.14   1
   2   4   3  271.22    8.89   3
  -3   4  -3    4.05    1.35   1
   3   4   3    4.90    2.20   3
  -3  -4  -3    3.17    1.35   1
  -4   4  -3  427.24   10.76   1
  -4  -4  -3  432.08   10.24   1
   4   4   3  434.52    8.71   2
   5   4   3  163.59    8.60   3
   5   4   3  173.26    5.50   2
  -5   4  -3  162.01    6.45   1
  -5  -4  -3  161.95    6.07   1
   6   4   3  334.05   13.06   3
  -6   4  -3  305.28    9.78   1
  -6  -4  -3  336.17    9.50   1
   6   4   3  331.70    8.87   2
   7   4   3  153.04    9.73   3
  -7   4  -3  131.06    6.47   1
  -7  -4  -3  134.46    6.28   1
  -8  -4  -3  326.26   10.34   1
  -8   4  -3  348.53   11.39   1
   8   4   3  319.97   15.14   3
   9   4   3   30.59    7.03   3
  -9   4  -3   36.38    4.72   1
  10   4   3   97.47   10.40   3
 -10   4  -3   80.07    6.62   1
 -11   4  -3   -0.38    2.89   1
  11   4   3    1.46    6.80   3
  12   4   3   -8.59    7.09   3
  13   4   3   -1.11    8.54   3
  14  -5  -3   40.33    7.63   2
  13  -5  -3    2.08    4.42   2
  12   5  -3   26.30    5.82   2
  12   5  -3   27.07    6.22   3
  12  -5  -3   30.62    6.11   2
  11  -5  -3    1.94    3.49   2
  11   5  -3   -3.33    3.57   3
  11   5  -3   -3.03    3.61   2
  10  -5  -3  178.97   10.76   2
 -10   5   3  198.66    8.58   1
  10   5  -3  195.08   10.86   3
  10   5  -3  174.54    9.94   2
  -9   5   3    7.66    2.68   1
   9   5  -3   12.74    3.99   2
   9  -5  -3    2.40    3.65   2
   9   5  -3    1.37    3.12   3
   8   5  -3   20.41    4.09   3
   8   5  -3   23.18    4.37   2
   8  -5  -3   17.61    4.14   2
  -8   5   3   15.78    3.02   1
   7  -5  -3   57.89    5.60   2
   7   5  -3   50.12    4.77   2
  -7   5   3   43.48    4.03   1
   7   5  -3   50.13    5.16   3
   6  -5  -3   40.58    4.53   2
   6  -5  -3   36.74    3.59   1
  -6   5   3   35.69    3.53   1
   6   5  -3   44.06    4.22   2
   5  -5  -3  461.74   12.02   1
   5  -5  -3  449.20   12.94   2
   5   5  -3  471.56   12.05   2
   4  -5  -3  711.89   16.23   2
   4  -5  -3  674.64   15.23   1
   4   5  -3  679.30   14.91   2
   3   5  -3  125.97    5.02   2
   3  -5  -3  120.52    5.57   2
   3  -5  -3  111.57    5.03   1
   3   5  -3  125.15    2.59   1
   2  -5  -3 1200.08   21.96   2
   2   5  -3 1197.46   21.91   2
   2  -5  -3 1202.36   22.25   1
   2   5  -3 1174.38   18.91   1
   1  -5  -3 2545.70   41.25   2
   1   5  -3 2570.49   39.60   1
   1  -5  -3 2553.34   41.89   1
   1   5  -3 2552.57   42.31   2
  -1   5   3 2641.43   44.78   3
   0   5   3 8009.23  130.43   3
   0  -5  -3 7795.05  117.02   1
   0   5  -3 7600.74  115.59   1
  -1  -5  -3  133.11    4.86   1
  -1   5  -3  143.08    4.79   1
   1   5   3  143.11    5.79   3
  -2  -5  -3  187.90    5.81   1
  -2   5  -3  187.21    5.97   1
   2   5   3  189.21    7.27   3
  -3  -5  -3  234.36    6.76   1
  -3   5  -3  223.52    7.05   1
   3   5   3  225.32    8.82   3
  -4  -5  -3 1056.00   19.85   1
  -4   5  -3 1100.92   20.97   1
   4   5   3 1021.31   24.50   3
   5   5   3   32.02    2.56   2
  -5   5  -3   33.37    3.39   1
   5   5   3   31.46    4.27   3
  -5  -5  -3   31.01    2.91   1
  -6   5  -3  108.20    5.77   1
  -6  -5  -3  115.18    5.38   1
   6   5   3  102.76    7.52   3
  -7   5  -3   -1.55    2.03   1
  -7  -5  -3    0.64    1.81   1
   7   5   3    0.09    3.45   3
  -8   5  -3    8.33    3.07   1
  -8  -5  -3   10.59    2.88   1
   8   5   3    3.22    4.54   3
  -9   5  -3    4.53    3.00   1
   9   5   3    4.97    5.74   3
 -10   5  -3  107.38    7.68   1
  10   5   3  103.77   10.44   3
 -11   5  -3   11.41    4.08   1
  11   5   3    2.24    6.63   3
  12   5   3    8.07    8.39   3
  13   5   3    4.58    8.87   3
  13  -6  -3    6.69    4.79   2
  12   6  -3   -0.38    4.44   2
  12  -6  -3    7.48    4.63   2
  12   6  -3    1.98    4.78   3
  11   6  -3   -1.84    3.75   2
  11  -6  -3   -1.14    3.34   2
  11   6  -3    0.11    4.12   3
 -10   6   3   71.82    5.84   1
  10  -6  -3   70.30    7.31   2
  10   6  -3   68.58    6.88   2
  10   6  -3   68.16    7.16   3
   9   6  -3    9.15    4.02   3
   9   6  -3   17.82    4.57   2
   9  -6  -3    9.25    3.88   2
  -9   6   3   14.05    3.41   1
  -8   6   3  284.84   10.16   1
   8  -6  -3  267.89   11.97   2
   8   6  -3  306.44   11.35   2
   8   6  -3  292.25   12.53   3
   7   6  -3    3.51    2.66   2
  -7   6   3    1.92    2.19   1
   7  -6  -3    3.46    2.91   2
   7   6  -3   -0.95    2.27   3
   6  -6  -3  308.07   11.36   2
   6   6  -3  295.30    9.70   2
   6  -6  -3  298.16    9.86   1
   5   6  -3   32.75    3.34   2
   5  -6  -3   31.45    3.39   1
   5  -6  -3   22.59    3.51   2
   4  -6  -3   72.23    4.89   2
   4   6  -3   75.31    4.18   2
   4  -6  -3   80.26    4.73   1
   3  -6  -3   22.46    2.67   1
   3   6  -3   30.87    1.41   1
   3   6  -3   31.66    2.76   2
   3  -6  -3   30.56    3.20   2
   2  -6  -3  402.61   10.21   2
   2   6  -3  409.38    7.86   1
   2  -6  -3  416.44   10.71   1
   2   6  -3  405.78   10.18   2
   1  -6  -3    3.59    1.28   2
   1   6  -3    1.06    0.85   1
   1   6  -3   -0.49    0.90   2
  -1   6   3    1.77    1.23   3
   1  -6  -3    0.89    1.17   1
   0   6  -3    2.59    1.11   1
   0  -6  -3    2.09    1.35   1
   0   6   3    3.99    1.66   3
   1   6   3  137.27    5.88   3
  -1   6  -3  141.12    4.93   1
  -1  -6  -3  139.26    5.27   1
   2   6   3  806.45   18.96   3
  -2   6  -3  821.81   16.34   1
  -2  -6  -3  816.89   16.17   1
  -3   6  -3    1.56    1.25   1
   3   6   3    1.24    2.11   3
  -3  -6  -3    0.72    1.33   1
  -4  -6  -3  970.25   18.53   1
  -4   6  -3  927.88   19.49   1
   4   6   3  955.26   23.24   3
   5   6   3   -0.50    2.36   3
  -5   6  -3   -1.88    1.43   1
  -5  -6  -3    0.84    1.49   1
  -6  -6  -3  564.52   13.27   1
   6   6   3  566.86   18.04   3
  -6   6  -3  570.51   14.71   1
  -7   6  -3   22.77    3.57   1
   7   6   3   18.03    4.66   3
  -7  -6  -3   12.53    2.67   1
  -8   6  -3  190.10    8.75   1
   8   6   3  194.33   11.66   3
   9   6   3    1.02    5.23   3
  -9   6  -3    2.25    2.83   1
  10   6   3   12.03    6.82   3
 -10   6  -3   13.76    3.88   1
  11   6   3    1.05    6.53   3
 -11   6  -3   -3.79    3.16   1
  12   6   3   -3.16    7.36   3
 -12   6  -3   -1.58    3.80   1
  13   6   3   -1.05    8.87   3
  13   7  -3   -5.55    5.08   3
  13  -7  -3    2.42    4.73   2
  12   7  -3   -3.45    4.62   3
  12  -7  -3    0.54    3.76   2
  11  -7  -3    0.94    3.57   2
  11   7  -3   -2.04    3.95   2
  11   7  -3    3.09    4.27   3
 -10   7   3    0.95    2.82   1
  10  -7  -3    0.01    3.29   2
  10   7  -3    2.45    3.87   3
  10   7  -3    6.29    4.26   2
   9  -7  -3   -2.27    2.95   2
   9   7  -3   -1.87    3.11   3
   9   7  -3    4.25    3.78   2
  -9   7   3    0.91    2.54   1
   8   7  -3    3.53    3.33   3
   8   7  -3   13.20    3.71   2
   8  -7  -3   19.85    4.25   2
  -8   7   3   11.01    3.17   1
  -7   7   3   20.47    3.49   1
   7   7  -3   18.49    3.47   2
   7   7  -3   27.75    4.38   3
   7  -7  -3   22.00    4.29   2
   6   7  -3   48.07    4.37   2
   6  -7  -3   57.48    4.67   1
   6  -7  -3   65.24    5.72   2
   5  -7  -3   33.01    3.57   1
   5   7  -3   31.78    3.40   2
   5  -7  -3   28.48    3.81   2
   4  -7  -3   61.51    4.32   1
   4  -7  -3   50.07    4.29   2
   4   7  -3   61.00    3.98   2
   3  -7  -3  524.84   13.35   1
   3   7  -3  536.12    9.46   1
   3   7  -3  528.46   12.58   2
   3  -7  -3  517.04   13.28   2
   2  -7  -3  211.13    7.53   1
   2  -7  -3  203.50    7.02   2
   2   7  -3  212.36    7.04   2
   2   7  -3  211.61    5.26   1
   1   7  -3  382.51    8.51   1
   1   7  -3  381.25   10.20   2
   1  -7  -3  366.65   10.24   1
  -1   7   3  402.87    9.54   3
   0  -7  -3 7005.37  107.22   1
   0   7   3 6995.09  118.61   3
   0   7  -3 7106.26  105.61   1
  -1  -7  -3  164.11    6.11   1
  -1   7  -3  153.86    5.58   1
   1   7   3  167.16    6.69   3
  -2   7  -3 6049.27   92.62   1
  -2  -7  -3 6110.78   92.61   1
   2   7   3 5956.97  104.65   3
  -3  -7  -3  149.89    5.84   1
  -3   7  -3  167.75    6.49   1
   3   7   3  159.47    7.66   3
  -4   7  -3  519.95   13.16   1
   4   7   3  508.46   15.63   3
  -4  -7  -3  519.36   12.14   1
   5   7   3    0.19    2.42   3
  -5  -7  -3   -1.45    1.37   1
  -5   7  -3    1.98    2.04   1
   6   7   3  159.73    9.52   3
  -6   7  -3  170.09    7.79   1
  -6  -7  -3  192.99    6.91   1
  -7   7  -3   26.49    3.87   1
   7   7   3   26.94    5.26   3
  -7  -7  -3   42.66    3.80   1
   8   7   3    1.06    4.59   3
  -8   7  -3    5.73    3.19   1
   9   7   3   -2.93    4.71   3
  -9   7  -3    2.21    3.10   1
  10   7   3   37.12    7.94   3
 -10   7  -3   43.01    5.30   1
 -11   7  -3    5.20    3.90   1
  11   7   3    5.56    6.62   3
  12   7   3   -3.33    7.44   3
 -12   7  -3    2.11    4.13   1
  13  -8  -3    2.44    4.80   2
  13   8  -3   -3.70    5.40   3
  12  -8  -3    1.24    3.75   2
  12   8  -3   -4.38    4.68   3
  11  -8  -3   10.50    4.69   2
 -11   8   3   25.52    4.80   1
  11   8  -3   24.14    6.01   3
  11   8  -3   32.07    5.95   2
 -10   8   3   16.14    4.13   1
  10   8  -3   25.46    5.66   3
  10   8  -3   22.95    4.86   2
  10  -8  -3   15.60    4.77   2
   9   8  -3   44.82    5.72   2
   9  -8  -3   55.23    6.69   2
  -9   8   3   41.29    5.04   1
   9   8  -3   43.67    6.15   3
  -8   8   3  110.09    7.07   1
   8  -8  -3  111.90    8.23   2
   8   8  -3  115.37    7.54   2
   8   8  -3  106.48    8.21   3
  -7   8   3   13.82    3.34   1
   7   8  -3   16.52    3.63   2
   7   8  -3    9.33    3.65   3
   7  -8  -3    9.26    3.72   2
   6   8  -3  119.12    6.36   2
   6  -8  -3  125.85    7.78   2
   6  -8  -3  123.02    6.86   1
   5  -8  -3   16.02    2.91   1
   5  -8  -3   13.87    3.31   2
   5   8  -3   18.22    2.88   2
   4  -8  -3  120.93    6.32   1
   4   8  -3  121.69    3.16   1
   4   8  -3  113.53    5.52   2
   4  -8  -3  122.73    6.62   2
   3   8  -3   28.97    1.89   1
   3   8  -3   25.39    2.81   2
   3  -8  -3   30.09    3.43   2
   3  -8  -3   24.03    3.06   1
   2  -8  -3   22.42    2.86   1
   2   8  -3   22.99    1.90   1
   2   8  -3   21.13    2.63   2
  -2   8   3   24.65    2.09   3
   1   8  -3    1.62    1.27   2
  -1   8   3    2.38    1.37   3
   1  -8  -3    0.89    1.40   1
   1   8  -3    0.73    1.02   1
   0   8  -3    0.60    1.20   1
   0   8   3   -0.20    1.40   3
   0  -8  -3   -1.20    1.25   1
  -1  -8  -3   12.16    2.26   1
   1   8   3   14.92    2.60   3
  -1   8  -3   11.91    1.99   1
  -2  -8  -3  397.05   10.59   1
   2   8   3  384.98   12.18   3
   2   8   3  411.90    8.19   2
  -2   8  -3  403.66   10.67   1
   3   8   3   10.13    1.33   2
   3   8   3    9.01    2.73   3
  -3   8  -3    7.28    2.08   1
  -3  -8  -3    9.64    2.06   1
  -4   8  -3  450.65   12.35   1
   4   8   3  450.01   14.81   3
  -4  -8  -3  441.56   11.37   1
  -5  -8  -3   37.45    3.41   1
  -5   8  -3   37.22    4.04   1
   5   8   3   33.57    4.91   3
  -6   8  -3  586.10   15.68   1
   6   8   3  557.63   18.79   3
  -6  -8  -3  564.12   13.66   1
   7   8   3   14.33    4.80   3
  -7   8  -3   10.94    3.33   1
  -8   8  -3  111.08    7.16   1
   8   8   3  116.06    9.93   3
   9   8   3   -2.78    4.76   3
  -9   8  -3    1.47    2.89   1
 -10   8  -3    8.38    3.89   1
  10   8   3    3.65    6.62   3
 -11   8  -3    2.49    3.93   1
  11   8   3    1.23    6.85   3
 -12   8  -3   -2.46    3.96   1
  12   8   3    3.64    8.07   3
  13  -9  -3    3.68    4.75   2
  13   9  -3   -3.44    5.39   3
  12  -9  -3   51.24    7.96   2
  12   9  -3   25.71    7.05   3
  11   9  -3    6.10    4.85   3
  11  -9  -3    6.70    4.43   2
 -11   9   3    3.61    3.73   1
 -10   9   3  112.73    8.02   1
  10  -9  -3  112.16    9.49   2
  10   9  -3  108.24    9.56   3
  10   9  -3  130.87    8.99   2
   9  -9  -3   56.72    7.03   2
   9   9  -3   54.04    6.08   2
   9   9  -3   67.74    7.31   3
  -9   9   3   60.87    6.07   1
  -8   9   3   58.85    5.69   1
   8   9  -3   61.24    6.80   3
   8   9  -3   70.67    6.13   2
   8  -9  -3   57.94    6.46   2
  -7   9   3   19.45    3.79   1
   7   9  -3   18.56    4.32   3
   7  -9  -3   17.51    4.35   2
   7   9  -3   22.51    3.95   2
   6   9  -3    9.20    2.86   2
   6  -9  -3    8.53    3.19   2
   6  -9  -3    6.28    2.77   1
   5  -9  -3   38.27    4.14   1
   5  -9  -3   30.39    4.25   2
   5   9  -3   33.08    3.57   2
   4  -9  -3   23.77    3.60   2
   4   9  -3   19.29    2.68   2
   4  -9  -3   19.02    3.09   1
   3   9  -3   18.09    2.60   2
   3  -9  -3   18.37    2.95   1
   3   9  -3   14.10    1.58   1
   2  -9  -3  280.83    9.58   1
  -2   9   3  298.88    7.76   3
   2   9  -3  279.29    9.05   2
   2   9  -3  275.59    7.16   1
   1  -9  -3   11.75    2.38   1
   1   9  -3   11.26    2.27   2
  -1   9   3   15.30    2.29   3
   1   9  -3   11.28    1.82   1
   0  -9  -3  475.10   12.56   1
   0   9   3  493.95   12.79   3
   0   9  -3  457.72   11.10   1
  -1  -9  -3  336.42   10.01   1
  -1   9  -3  339.55    9.53   1
   1   9   3  342.58   10.82   3
  -2   9  -3   49.70    3.86   1
   2   9   3   41.00    4.18   3
  -2  -9  -3   45.92    3.75   1
   2   9   3   39.78    2.42   2
  -3  -9  -3   38.23    3.42   1
  -3   9  -3   34.08    3.49   1
   3   9   3   31.17    4.12   3
  -4  -9  -3  155.64    6.41   1
   4   9   3  134.45    8.20   3
  -4   9  -3  146.75    6.85   1
   5   9   3   24.35    4.62   3
  -5   9  -3   15.09    3.25   1
  -5  -9  -3   18.98    2.85   1
  -6   9  -3   27.35    4.25   1
   6   9   3   29.06    5.21   3
  -6  -9  -3   27.37    3.36   1
  -7   9  -3   12.49    3.61   1
   7   9   3    9.62    4.70   3
   8   9   3   54.44    7.53   3
  -8   9  -3   42.21    5.20   1
  -9   9  -3    3.04    3.16   1
   9   9   3   -3.14    4.55   3
 -10   9  -3   42.12    5.94   1
  10   9   3   46.91    8.83   3
 -11   9  -3    0.95    3.82   1
  11   9   3   11.34    8.06   3
  12   9   3   15.65    8.83   3
 -12   9  -3   15.06    5.30   1
  13 -10  -3    5.82    5.38   2
  12  10  -3   -3.88    4.82   3
  12 -10  -3    3.25    4.59   2
  11  10  -3    4.84    5.03   3
  11 -10  -3    4.27    4.04   2
 -11  10   3    1.93    3.65   1
  10 -10  -3    0.76    3.54   2
 -10  10   3    1.20    3.16   1
  10  10  -3   -1.19    4.18   3
   9  10  -3   76.05    7.94   3
   9 -10  -3   72.12    7.68   2
   9  10  -3   74.81    6.93   2
  -9  10   3   68.36    6.39   1
   8 -10  -3   49.10    6.27   2
   8  10  -3   47.19    6.57   3
  -8  10   3   54.76    5.68   1
   8  10  -3   52.30    5.63   2
   7 -10  -3   22.12    4.65   2
   7  10  -3   21.12    4.74   3
   7  10  -3   31.82    4.36   2
  -7  10   3   27.63    4.44   1
   6 -10  -3  216.96    9.72   1
   6  10  -3  254.09    9.41   2
   6 -10  -3  227.97   10.72   2
   5  10  -3   -3.33    1.66   2
   5 -10  -3    1.36    2.27   2
   5 -10  -3    1.28    2.10   1
   4  10  -3  271.37    9.08   2
   4 -10  -3  248.91    9.85   1
   3  10  -3    1.02    1.56   2
   3 -10  -3    1.48    1.86   1
   3  10  -3    0.91    1.08   1
  -2  10   3   90.83    4.24   3
   2 -10  -3   83.21    5.34   1
   2  10  -3   81.78    4.95   2
   2  10  -3   85.61    3.95   1
   1  10  -3    5.20    1.96   2
  -1  10   3    1.40    1.57   3
   1 -10  -3    1.44    1.71   1
   1  10  -3    4.75    1.61   1
   0  10  -3   -0.80    1.32   1
   0  10   3    0.19    1.69   3
   0 -10  -3    0.28    1.48   1
  -1  10  -3    0.58    1.46   1
   1  10   3    0.18    1.97   3
  -1 -10  -3    1.85    1.77   1
  -2  10  -3  111.57    5.63   1
   2  10   3  102.55    6.30   3
   2  10   3  110.88    4.18   2
  -2 -10  -3  118.49    5.84   1
  -3  10  -3    7.25    2.42   1
  -3 -10  -3    3.76    1.94   1
   3  10   3    3.07    2.69   3
  -4 -10  -3  331.47   10.14   1
   4  10   3  325.20   13.10   3
   5  10   3   12.11    4.10   3
  -5  10  -3   10.64    2.96   1
  -5 -10  -3   17.85    3.00   1
   6  10   3  258.67   12.88   3
  -6  10  -3  280.88   10.83   1
   7  10   3   62.14    7.52   3
  -7  10  -3   65.61    5.82   1
   8  10   3   49.39    7.45   3
  -8  10  -3   50.67    5.86   1
  -9  10  -3   -0.24    3.30   1
   9  10   3    0.19    5.25   3
 -10  10  -3   10.58    4.34   1
  10  10   3    2.25    6.41   3
  11  10   3   -6.57    6.91   3
 -11  10  -3    2.16    4.17   1
  12  10   3    4.67    8.59   3
 -12  10  -3    4.25    4.86   1
 -12  11   3    7.31    4.53   1
  12  11  -3    2.64    5.54   3
  12 -11  -3    7.24    5.16   2
 -11  11   3   11.96    4.61   1
  11 -11  -3    8.83    4.81   2
  11  11  -3    7.13    5.43   3
  10 -11  -3   41.54    6.84   2
 -10  11   3   42.15    5.80   1
  10  11  -3   40.27    7.23   3
   9  11  -3   -5.30    3.67   2
  -9  11   3    1.21    3.41   1
   9 -11  -3   -1.66    3.26   2
   9  11  -3    2.51    4.26   3
   8  11  -3    1.58    3.90   3
  -8  11   3   14.87    4.18   1
   8 -11  -3    5.18    3.62   2
   8  11  -3    4.56    3.51   2
   7  11  -3    1.93    3.26   3
  -7  11   3    3.60    3.15   1
   7  11  -3   -4.82    2.46   2
   7 -11  -3   -0.01    3.23   2
   6 -11  -3   28.46    4.21   1
  -6  11   3   20.21    4.13   1
   6  11  -3   26.39    3.87   2
   5 -11  -3   86.76    6.49   1
   5  11  -3   83.40    5.46   2
   4 -11  -3  556.66   16.09   1
   4  11  -3  560.40   14.56   2
   3  11  -3    1.40    1.91   2
   3  11  -3    2.68    1.43   1
   3 -11  -3    2.17    2.30   1
   2 -11  -3  254.43    9.84   1
  -2  11   3  277.17    8.31   3
   2  11  -3  277.65    7.78   1
   2  11  -3  281.75    9.72   2
   1 -11  -3    1.81    1.90   1
  -1  11   3   -0.11    1.59   3
   1  11  -3    0.49    1.46   1
   1  11  -3   -0.62    1.49   2
   0  11  -3  378.01   10.39   1
   0  11   3  374.87   11.57   3
   0 -11  -3  364.64   11.42   1
  -1 -11  -3   98.86    5.77   1
  -1  11  -3   95.72    5.29   1
   1  11   3   89.99    5.94   3
   2  11   3   74.03    5.80   3
  -2 -11  -3   64.43    4.74   1
  -2  11  -3   73.06    4.99   1
  -3 -11  -3    6.40    2.23   1
   3  11   3    9.29    3.31   3
  -3  11  -3    6.47    2.49   1
  -4  11  -3  113.93    6.57   1
  -4 -11  -3   97.64    5.77   1
   4  11   3   95.39    7.57   3
   5  11   3   18.85    4.58   3
  -5 -11  -3   25.14    3.37   1
  -5  11  -3   16.58    3.37   1
   6  11   3   21.70    5.16   3
  -6  11  -3   23.49    4.11   1
   7  11   3   38.77    6.68   3
  -7  11  -3   41.23    5.17   1
  -8  11  -3   -0.80    2.89   1
   8  11   3    0.23    4.66   3
  -9  11  -3   -3.31    3.36   1
   9  11   3   -3.32    4.43   3
 -10  11  -3   22.40    5.09   1
  10  11   3   20.66    7.37   3
  11  11   3    2.04    6.79   3
 -11  11  -3    2.59    4.36   1
 -12  12   3   -1.75    4.08   1
  12  12  -3   -5.17    5.20   3
  11  12  -3    6.69    5.82   3
 -11  12   3    3.87    4.19   1
  10  12  -3    7.98    5.55   3
 -10  12   3   10.77    4.61   1
   9  12  -3    1.41    4.38   3
  -9  12   3    1.62    3.48   1
   8  12  -3  106.05    7.55   2
   8  12  -3   95.53    9.21   3
  -8  12   3  130.43    8.64   1
  -7  12   3    5.62    3.25   1
   7  12  -3   -1.04    3.46   3
   7  12  -3    1.11    2.86   2
   6 -12  -3  207.72   10.21   1
   6  12  -3  227.02    9.29   2
   5  12  -3   44.60    4.29   2
   5 -12  -3   50.04    5.26   1
   4  12  -3  263.51    9.61   2
   4 -12  -3  287.46   11.25   1
   3 -12  -3   21.81    3.80   1
   3  12  -3   18.73    3.04   2
   2  12  -3  143.59    7.03   2
   2  12  -3  150.10    5.81   1
   2 -12  -3  140.57    7.60   1
   1  12  -3   -1.39    1.47   1
   1  12  -3   -0.99    1.45   2
  -1  12   3    0.93    1.77   3
   1 -12  -3   -1.45    1.92   1
   0  12   3    4.20    2.32   3
   0 -12  -3    3.99    2.31   1
   0  12  -3    4.95    2.02   1
   1  12   3    4.68    2.64   3
  -1 -12  -3    1.50    1.98   1
  -1  12  -3    6.90    2.34   1
  -2  12  -3   82.75    5.34   1
  -2 -12  -3   98.00    5.90   1
   2  12   3   96.35    6.75   3
  -3 -12  -3    5.35    2.38   1
   3  12   3    5.17    3.08   3
  -3  12  -3    6.85    2.63   1
   4  12   3  258.68   12.17   3
  -4 -12  -3  235.58    9.15   1
  -4  12  -3  242.37    9.87   1
  -5  12  -3   37.44    4.69   1
   5  12   3   31.90    5.69   3
   6  12   3   54.69    6.95   3
  -6  12  -3   47.93    5.46   1
  -7  12  -3   -0.77    3.09   1
   7  12   3    1.52    4.41   3
  -8  12  -3   30.19    5.41   1
   8  12   3   24.70    6.30   3
  -9  12  -3    1.77    3.93   1
   9  12   3    6.20    6.18   3
  10  12   3  -12.27    5.76   3
 -10  12  -3   -0.43    3.77   1
 -11  12  -3    2.76    4.60   1
  11  12   3   -7.08    6.78   3
  11  13  -3   -3.82    4.99   3
 -11  13   3    0.90    4.17   1
 -10  13   3   24.72    5.40   1
  10  13  -3   16.82    6.01   3
   9  13  -3    0.51    4.19   3
  -9  13   3   -1.99    3.20   1
  -8  13   3    2.88    3.29   1
   8  13  -3    0.49    3.64   3
   7  13  -3   -2.18    3.34   3
   7  13  -3    3.32    3.12   2
  -7  13   3    4.76    3.36   1
   6 -13  -3   -0.45    2.37   1
  -6  13   3    1.64    3.16   1
   6  13  -3    2.71    2.69   2
   6  13  -3    5.45    3.73   3
   5  13  -3  109.33    6.61   2
   5 -13  -3  123.51    8.00   1
   4 -13  -3   23.60    4.27   1
   4  13  -3   27.86    3.78   2
   3  13  -3  202.78    8.60   2
   3 -13  -3  193.65    9.22   1
   2 -13  -3  104.94    6.72   1
   2  13  -3  110.05    5.27   1
   2  13  -3  120.19    6.62   2
   1  13  -3   39.94    4.35   2
  -1  13   3   44.15    4.16   3
   1  13  -3   46.46    3.89   1
   1 -13  -3   49.70    4.82   1
   0  13  -3  321.12   10.18   1
   0 -13  -3  333.86   11.54   1
   0  13   3  324.71   11.41   3
   1  13   3   37.03    4.51   3
  -1  13  -3   32.94    3.77   1
  -1 -13  -3   33.05    3.94   1
  -2 -13  -3  157.15    7.65   1
   2  13   3  135.34    8.36   3
  -2  13  -3  150.87    7.44   1
  -3  13  -3    8.53    2.96   1
  -3 -13  -3    2.56    2.46   1
   3  13   3    6.65    3.22   3
  -4 -13  -3   76.17    5.57   1
  -4  13  -3   85.68    6.18   1
   4  13   3   95.02    7.92   3
  -5  13  -3   79.42    6.54   1
   5  13   3  103.19    8.75   3
   6  13   3   42.33    6.55   3
  -6  13  -3   32.38    4.70   1
   7  13   3  113.41   10.33   3
   8  13   3   29.22    6.86   3
   9  13   3    6.99    6.37   3
  -9  13  -3    8.14    4.60   1
  10  13   3   20.93    8.44   3
 -10  13  -3   39.31    6.74   1
  11  13   3    5.99    8.02   3
 -11  14   3   -4.34    4.16   1
  11  14  -3   -7.57    5.13   3
  10  14  -3   31.18    7.41   3
 -10  14   3   36.57    6.45   1
   9  14  -3   -0.53    3.94   3
  -9  14   3    3.61    3.77   1
  -8  14   3   89.60    8.20   1
   8  14  -3   63.93    8.20   3
   7  14  -3    4.80    4.19   3
  -7  14   3   -1.47    3.21   1
   7  14  -3   -2.98    2.83   2
   6  14  -3  155.28    8.11   2
  -6  14   3  158.36    9.43   1
   6  14  -3  159.10   10.92   3
   5 -14  -3   22.88    4.55   1
   5  14  -3   13.84    3.19   2
   4  14  -3  218.22    9.29   2
   4 -14  -3  226.94   10.62   1
   3  14  -3   98.75    6.39   2
   3 -14  -3   77.05    6.45   1
   2 -14  -3   44.63    5.10   1
   2  14  -3   53.20    4.01   1
   2  14  -3   43.94    4.56   2
   1 -14  -3   40.02    4.67   1
   1  14  -3   40.75    3.80   1
   1  14  -3   43.99    4.71   2
   0  14   3    3.43    2.44   3
   0  14  -3    2.37    2.10   1
   0 -14  -3    1.85    2.46   1
  -1 -14  -3    4.76    2.66   1
  -1  14  -3    7.61    2.55   1
   1  14   3    8.51    3.14   3
  -2  14  -3   80.71    5.88   1
   2  14   3   72.19    6.59   3
  -2 -14  -3   73.80    5.70   1
  -3 -14  -3    1.43    2.38   1
   3  14   3   -0.45    2.91   3
  -3  14  -3    2.25    2.43   1
  -4  14  -3   73.40    6.07   1
   4  14   3   96.40    8.20   3
  -4 -14  -3   82.08    5.97   1
   5  14   3    0.19    3.73   3
  -5  14  -3    4.21    3.00   1
   6  14   3   86.10    9.06   3
  -7  14  -3   15.37    4.25   1
   7  14   3   24.18    6.54   3
  -8  14  -3   16.28    4.74   1
   8  14   3   11.68    5.73   3
  -9  14  -3   -0.22    3.68   1
   9  14   3    3.63    6.13   3
 -10  14  -3    1.63    4.85   1
  10  14   3    1.37    7.28   3
 -10  15   3    6.55    4.71   1
  10  15  -3   13.13    6.40   3
   9  15  -3    1.72    4.83   3
  -9  15   3    0.04    4.21   1
  -8  15   3   28.77    5.57   1
   8  15  -3   27.14    6.53   3
   7  15  -3    0.72    3.80   3
  -7  15   3   -3.37    3.10   1
   6  15  -3   -0.36    2.63   2
   6  15  -3    2.51    3.65   3
  -6  15   3   -0.24    3.59   1
   5  15  -3   42.50    4.75   2
   5 -15  -3   39.37    5.60   1
   4 -15  -3   59.26    6.25   1
   4  15  -3   79.83    5.97   2
   3 -15  -3    0.46    2.61   1
   3  15  -3    0.32    2.32   2
   2  15  -3  235.15   10.13   2
   2 -15  -3  221.80   10.33   1
   1  15  -3   19.63    3.63   2
   1  15  -3   20.64    3.15   1
   1 -15  -3   18.30    3.77   1
   0  15   3  296.06   11.54   3
   0  15  -3  266.77   11.34   2
   0 -15  -3  297.60   11.70   1
   0  15  -3  297.97   10.33   1
  -1 -15  -3    2.99    2.52   1
   1  15   3    2.32    3.11   3
  -1  15  -3   -1.55    1.77   1
  -2  15  -3  213.40    9.41   1
  -2 -15  -3  219.29    9.67   1
   2  15   3  207.33   10.88   3
  -3 -15  -3   -1.73    2.41   1
  -3  15  -3    0.59    2.43   1
   3  15   3    1.96    3.29   3
  -4  15  -3   15.77    3.84   1
   4  15   3   18.60    5.10   3
   5  15   3    0.79    3.76   3
  -5  15  -3    2.67    3.14   1
   6  15   3    5.00    4.98   3
  -6  15  -3   10.27    3.81   1
   7  15   3    2.59    4.91   3
  -7  15  -3   -2.15    3.41   1
  -8  15  -3   21.04    5.33   1
   8  15   3    2.59    5.74   3
   9  15   3   11.84    7.21   3
  -9  15  -3    6.01    4.74   1
  10  15   3   47.12    9.73   3
  10  16  -3    7.41    6.43   3
   9  16  -3   -3.24    4.57   3
  -9  16   3    3.47    4.28   1
  -8  16   3   51.75    6.94   1
   8  16  -3   54.50    8.15   3
   7  16  -3    0.89    3.73   3
  -7  16   3    6.42    4.23   1
  -6  16   3  179.90   10.68   1
   6  16  -3  176.39   12.20   3
   5 -16  -3    1.19    3.35   1
  -5  16   3    2.72    3.42   1
   5  16  -3    3.38    2.89   2
   4 -16  -3  176.24   10.21   1
   4  16  -3  179.36    8.91   2
   3  16  -3    3.86    2.69   2
   3 -16  -3    0.50    2.82   1
   2 -16  -3   47.97    5.84   1
   2  16  -3   53.44    5.46   2
   1  16  -3   18.48    3.91   2
   1  16  -3   16.68    3.26   1
   1 -16  -3   20.10    4.09   1
   0  16  -3    8.19    2.85   1
   0 -16  -3    8.35    3.26   1
   0  16  -3    4.63    2.79   2
  -1 -16  -3    8.04    3.34   1
   1  16   3   14.91    3.95   3
  -1  16  -3    7.57    3.03   1
  -2 -16  -3   64.30    5.99   1
  -2  16  -3   64.54    5.84   1
   2  16   3   65.89    6.81   3
  -3 -16  -3   -0.27    2.70   1
   3  16   3   -3.15    2.90   3
  -3  16  -3   -0.11    2.77   1
  -4  16  -3   56.76    5.86   1
   4  16   3   71.81    7.81   3
  -5  16  -3    0.98    2.93   1
   5  16   3   -0.02    4.18   3
   6  16   3   92.89    9.70   3
  -6  16  -3   77.23    7.44   1
   7  16   3    5.59    5.35   3
  -7  16  -3   -2.08    3.13   1
   8  16   3   59.23    9.65   3
   9  16   3   -4.13    5.47   3
  -9  17   3   -0.65    4.23   1
   9  17  -3    6.59    5.92   3
   8  17  -3    7.94    4.96   3
  -8  17   3   10.66    5.05   1
  -7  17   3    0.84    4.35   1
   7  17  -3    2.92    4.44   3
   6  17  -3    3.78    3.99   3
  -6  17   3   -0.03    3.36   1
   5  17  -3    7.61    3.44   2
  -5  17   3   10.76    4.57   1
   5  17  -3    9.48    5.00   3
   5 -17  -3   11.62    4.41   1
   4  17  -3  318.50   12.33   2
   4 -17  -3  317.46   13.84   1
   3  17  -3   46.01    5.36   2
   3 -17  -3   51.49    6.15   1
   2 -17  -3  346.51   13.93   1
   2  17  -3  375.46   13.81   2
   1  17  -3    3.07    2.66   2
   1 -17  -3    4.62    3.09   1
   0  17  -3  532.70   17.62   2
   0  17  -3  551.36   15.55   1
   0 -17  -3  516.04   16.89   1
  -1  17  -3   56.59    5.55   1
   1  17   3   46.42    6.00   3
  -1 -17  -3   44.72    5.48   1
  -2  17  -3   73.87    6.36   1
   2  17   3   68.88    7.01   3
  -2 -17  -3   77.34    6.70   1
  -3  17  -3    2.49    3.28   1
   3  17   3   -0.23    3.30   3
  -4  17  -3   54.49    6.17   1
   4  17   3   57.94    7.40   3
   5  17   3   33.12    6.90   3
  -5  17  -3   30.71    5.37   1
   6  17   3   -3.58    4.47   3
  -6  17  -3   -0.44    3.77   1
   7  17   3   -6.14    4.76   3
  -7  17  -3    4.67    3.96   1
   8  17   3   -0.51    5.97   3
  -8  17  -3   -3.50    3.92   1
   9  18  -3    2.56    5.44   3
   8  18  -3   38.70    7.99   3
  -8  18   3   46.58    7.61   1
  -7  18   3    1.24    4.23   1
   7  18  -3   -1.70    4.35   3
  -6  18   3   89.75    8.72   1
   6  18  -3   84.53    9.41   3
  -5  18   3    5.96    4.43   1
   5  18  -3   11.42    4.99   3
   4 -18  -3   53.55    6.59   1
   4  18  -3   53.46    5.74   2
   3  18  -3    1.88    2.56   2
   3 -18  -3    3.38    3.47   1
   2 -18  -3   24.20    5.04   1
   2  18  -3   24.22    4.44   2
   1  18  -3    1.47    2.90   2
   1 -18  -3    5.01    3.31   1
   0  18  -3    1.85    2.82   1
   0 -18  -3   11.02    4.06   1
   0  18  -3    1.26    3.07   2
  -1 -18  -3   23.06    4.64   1
  -1  18  -3   28.37    4.58   1
  -2 -18  -3   14.71    4.11   1
  -2  18  -3    7.52    3.60   1
   2  18   3    8.68    4.15   3
  -3  18  -3   17.13    4.43   1
   3  18   3   15.37    5.08   3
   4  18   3   90.50    9.12   3
  -5  18  -3   -0.70    3.18   1
   5  18   3    1.92    4.55   3
   6  18   3  119.54   11.11   3
   7  18   3   -3.10    5.01   3
  -7  18  -3    0.02    3.72   1
   8  18   3   49.73    9.40   3
   8  19  -3   -2.08    4.30   3
  -7  19   3   16.41    5.33   1
   7  19  -3   17.14    6.24   3
   6  19  -3   20.88    6.31   3
  -6  19   3   36.36    6.81   1
  -5  19   3   71.88    8.11   1
   5  19  -3   52.49    8.25   3
  -4  19   3   24.89    5.83   1
   4 -19  -3   23.01    5.47   1
   3 -19  -3   55.64    6.82   1
   3  19  -3   47.94    5.81   2
   2 -19  -3  138.97    9.69   1
   2  19  -3  156.05    9.45   2
   1 -19  -3  122.01    9.04   1
   1  19  -3  119.71    8.59   2
   0 -19  -3   64.91    6.77   1
   0  19  -3   73.21    7.41   2
  -1 -19  -3   28.17    5.30   1
  -1  19  -3   45.02    6.49   2
  -1  19  -3   28.96    4.77   1
  -2  19  -3   80.03    7.15   1
  -3  19  -3    3.14    3.60   1
   3  19   3    1.23    3.99   3
   4  19   3   54.64    7.87   3
  -4  19  -3   47.91    6.21   1
   5  19   3    5.37    5.41   3
  -5  19  -3    2.93    4.10   1
   6  19   3   -5.76    4.99   3
  -6  19  -3   -0.50    4.44   1
   7  19   3    5.76    6.48   3
   7  20  -3   10.24    5.81   3
   6  20  -3   81.32   10.16   3
  -5  20   3   -2.66    3.49   1
   5  20  -3    0.36    4.60   3
   4  20  -3   55.48    8.27   3
  -4  20   3   52.73    7.78   1
   3  20  -3    2.19    3.42   2
   3 -20  -3    0.58    3.50   1
   2 -20  -3   15.78    4.89   1
   2  20  -3    7.29    3.82   2
   1 -20  -3    4.32    4.01   1
   1  20  -3    8.63    3.96   2
   0 -20  -3    7.17    4.04   1
   0  20  -3    7.44    3.84   2
  -1  20  -3    7.23    3.81   1
  -1  20  -3    2.66    3.98   2
  -2  20  -3   57.52    6.48   1
  -3  20  -3   -0.68    3.52   1
   3  20   3   -0.61    4.18   3
   4  20   3   64.72    8.77   3
  -4  20  -3   62.48    7.08   1
   5  20   3   -1.98    4.96   3
  -5  20  -3    0.74    4.17   1
   6  20   3   38.39    8.37   3
   5  21  -3   26.34    7.36   3
  -4  21   3   41.77    7.58   1
   4  21  -3   35.34    7.63   3
   3  21  -3   19.21    6.30   3
  -3  21   3   31.23    7.04   1
   3 -21  -3   18.51    5.20   1
   2  21  -3   34.85    5.79   2
   2 -21  -3   26.39    5.87   1
   1  21  -3   31.40    5.65   2
   1 -21  -3   52.46    7.03   1
   0 -21  -3  135.57    9.98   1
   0  21  -3  127.74   10.05   2
  -1  21  -3   -1.83    3.68   2
  -2  21  -3   60.00    7.02   1
  -3  21  -3    1.68    3.75   1
  -4  21  -3   13.96    4.99   1
   4  21   3   19.37    6.64   3
   5  21   3   13.08    6.47   3
   4  22  -3   25.89    7.52   3
   3  22  -3    7.68    5.46   3
  -3  22   3    3.23    5.35   1
  -2  22   3    6.20    6.33   1
   2 -22  -3   -2.44    4.23   1
   1  22  -3    1.98    3.85   2
   1 -22  -3    1.92    4.28   1
   0  22  -3   -1.66    3.71   2
  -1  22  -3   -2.37    3.67   2
  -2  22  -3   27.43    7.07   2
  -3  22  -3   -3.47    4.17   1
  14   0  -4    7.74    5.10   2
  13   0  -4    1.00    4.20   2
  12   0  -4   41.50    6.27   2
  11   0  -4    0.47    3.78   2
  10   0  -4   50.85    6.39   2
   9   0  -4    2.25    3.60   2
   8   0  -4    0.40    2.26   3
   8   0  -4    2.12    3.21   2
   7   0  -4    2.86    2.59   2
   7   0  -4    0.88    1.68   3
  -7   0   4    0.24    1.19   1
   6   0  -4    1.08    1.60   3
  -6   0   4    3.89    1.34   1
   6   0  -4    5.65    2.69   2
   5   0  -4   -0.37    0.92   1
   5   0  -4   -2.08    1.86   2
   4   0  -4  148.16    4.49   1
   4   0  -4  143.44    5.98   2
   3   0  -4    0.52    0.74   1
   3   0  -4    0.41    1.41   2
   2   0  -4  342.11    7.32   1
   2   0  -4  360.00    8.45   2
   1   0  -4   -1.29    0.69   1
   1   0  -4   -0.33    0.82   2
   0   0  -4  646.72   11.83   2
   0   0  -4  648.68   12.43   1
  -1   0  -4    0.81    1.09   1
  -1   0  -4    0.36    0.56   2
  -2   0  -4    3.44    1.45   1
   2   0   4    6.88    2.96   3
  -3   0  -4   -0.65    1.36   1
   3   0   4   -0.34    3.34   3
   4   0   4 1190.17   28.49   3
  -4   0  -4 1173.16   22.45   1
   5   0   4    1.01    3.65   3
  -5   0  -4   -0.27    1.54   1
  -6   0  -4   18.52    3.06   1
   6   0   4   12.62    5.10   3
  -7   0  -4   -2.52    2.07   1
   7   0   4   -1.51    5.19   3
   8   0   4   55.25    8.84   3
  -8   0  -4   57.17    5.16   1
   9   0   4   -7.52    5.66   3
  -9   0  -4   -2.97    2.42   1
 -10   0  -4  108.56    7.42   1
  10   0   4  104.39   11.98   3
  11   0   4    9.65    8.25   3
  14   1  -4   15.50    5.80   2
  14  -1  -4    9.49    5.24   2
  13   1  -4   -3.22    3.77   2
  13  -1  -4    4.63    4.77   2
  12   1  -4   -4.53    3.96   2
  12  -1  -4    1.41    4.23   2
  11  -1  -4    2.03    3.76   2
  11   1  -4   -4.89    3.57   2
  10  -1  -4   80.43    7.40   2
  10   1  -4   76.89    7.38   2
   9   1  -4   14.27    3.35   3
   9  -1  -4   27.27    4.73   2
   9   1  -4   20.35    4.71   2
   8  -1  -4  273.37   11.16   2
  -8   1   4  287.38    8.18   1
   8   1  -4  297.68   10.72   3
   8   1  -4  305.11   11.58   2
  -7   1   4   59.55    3.52   1
  -7  -1   4   61.61    2.96   1
   7   1  -4   57.77    5.08   2
   7  -1  -4   55.72    4.07   3
   7  -1  -4   60.15    5.13   2
   7   1  -4   60.15    4.61   3
   6  -1  -4  399.01   10.39   3
   6  -1  -4  370.26   11.46   2
  -6  -1   4  383.10    8.04   1
   6   1  -4  366.00   11.38   2
   6  -1  -4  379.48    9.34   1
   5   1  -4   16.99    1.59   1
   5   1  -4   17.40    2.93   2
   5  -1  -4   15.81    2.97   2
   5  -1  -4   16.11    1.91   1
   4  -1  -4  620.22   12.35   1
   4   1  -4  596.23   13.79   2
   4  -1  -4  613.26   14.01   2
   4   1  -4  608.17   11.21   1
   3   1  -4    1.09    0.74   1
   3  -1  -4    2.66    1.70   2
   3  -1  -4    1.35    0.91   1
   3   1  -4    2.63    1.44   2
   2  -1  -4  317.14    7.34   1
   2   1  -4  321.73    6.61   1
   2  -1  -4  334.75    7.94   2
   1   1  -4   16.09    1.56   2
   1  -1  -4   16.88    1.63   1
   1   1  -4   15.59    1.48   1
   1  -1  -4   18.06    1.71   2
   0   1  -4   26.03    2.09   1
   0  -1  -4   28.45    2.16   1
   0   1  -4   30.16    1.97   2
   1   1   4   -0.27    2.68   3
  -1  -1  -4   -0.43    1.08   1
  -1   1  -4    0.06    0.96   1
   2   1   4  247.07    9.89   3
  -2   1  -4  268.27    7.33   1
  -2  -1  -4  271.70    7.38   1
  -3  -1  -4   28.82    2.74   1
  -3   1  -4   36.17    2.89   1
   3   1   4   36.18    4.55   3
   3  -1   4   37.36    4.91   3
   4  -1   4  331.78   12.92   3
   4   1   4  343.02   12.87   3
  -4   1  -4  327.17    9.24   1
  -4  -1  -4  320.86    9.19   1
  -5   1  -4   34.84    3.37   1
   5  -1   4   39.31    5.76   3
  -5  -1  -4   45.81    3.68   1
   5   1   4   41.60    5.62   3
  -6  -1  -4  306.70    9.76   1
   6  -1   4  295.04   14.33   3
   6   1   4  296.57   13.60   3
   6   1   4  302.99    9.02   2
  -6   1  -4  303.62    9.73   1
   7   1   4    0.85    5.10   3
   7   1   4    2.07    2.05   2
   7  -1   4    0.44    5.37   3
  -7   1  -4   -2.15    1.93   1
  -7  -1  -4    1.47    2.27   1
   8   1   4   -3.76    5.61   3
  -8  -1  -4    0.68    2.33   1
  -8   1  -4   -1.03    2.51   1
   8  -1   4   -5.66    5.72   3
  -9  -1  -4    2.52    2.81   1
   9   1   4   -6.69    5.64   3
   9  -1   4   -3.88    6.27   3
  -9   1  -4    2.51    2.98   1
 -10   1  -4   -6.85    2.67   1
 -10  -1  -4    0.88    3.27   1
  10  -1   4    1.91    7.01   3
  10   1   4    0.58    6.99   3
  11  -1   4   -4.92    7.56   3
  11   1   4    3.63    7.65   3
  12   1   4    0.99    8.39   3
  14  -2  -4   17.72    5.86   2
  14   2  -4   16.14    5.76   2
  13   2  -4    8.28    4.71   2
  13  -2  -4    8.62    5.15   2
  12  -2  -4   10.55    4.64   2
  12   2  -4   16.16    5.04   2
  11   2  -4    3.14    4.05   2
  11  -2  -4   -0.08    3.62   2
  10  -2  -4  162.35   10.15   2
  10   2  -4  176.94   10.06   2
  10   2  -4  177.30    9.39   3
   9   2  -4    7.09    3.02   3
   9  -2  -4   10.77    4.28   2
   9   2  -4    9.41    4.07   2
  -8   2   4   36.02    3.34   1
   8  -2  -4   28.39    4.56   2
   8   2  -4   34.83    4.71   2
   8   2  -4   47.42    4.70   3
   7   2  -4  125.21    6.74   3
  -7   2   4  127.45    5.35   1
   7  -2  -4  130.36    5.40   3
   7  -2  -4  135.34    7.58   2
   7   2  -4  118.65    7.17   2
  -6  -2   4   43.18    2.08   1
   6   2  -4   38.34    4.04   2
   6  -2  -4   42.87    3.20   1
   6  -2  -4   39.37    3.00   3
   6  -2  -4   34.96    4.02   2
  -5  -2   4  228.24    4.79   1
   5  -2  -4  224.46    8.23   2
   5  -2  -4  213.53    6.70   1
   5   2  -4  223.19    8.00   2
   4   2  -4  369.50    7.05   1
   4  -2  -4  352.61   10.03   2
   4   2  -4  365.65    9.88   2
   4  -2  -4  370.98    9.04   1
   3  -2  -4    0.28    0.91   1
   3   2  -4    1.71    1.41   2
   3  -2  -4    2.21    1.68   2
   3   2  -4    0.94    0.66   1
   2  -2  -4  821.62   15.31   1
   2  -2  -4  814.93   15.52   2
   2   2  -4  819.47   13.77   1
   2   2  -4  817.74   15.73   2
   1   2  -4  202.81    5.63   2
   1  -2  -4  205.87    5.36   2
   1  -2  -4  186.60    5.41   1
   1   2  -4  190.89    5.03   1
   0  -2  -4 1801.02   29.37   1
   0   2   4 1791.74   34.39   3
   0   2  -4 1814.72   29.82   2
   0   2  -4 1765.66   29.07   1
  -1  -2  -4  558.75   11.43   1
  -1   2  -4  532.03   11.18   1
   1   2   4  540.02   14.49   3
  -2   2  -4  187.50    5.91   1
   2   2   4  195.97    8.72   3
  -2  -2  -4  187.67    5.95   1
   3   2   4   22.54    3.89   3
  -3  -2  -4   20.90    2.44   1
  -3   2  -4   23.37    2.46   1
   4   2   4   55.16    5.61   3
  -4   2  -4   74.04    4.32   1
  -4  -2  -4   62.68    4.17   1
  -5  -2  -4  117.64    5.73   1
   5   2   4  112.75    8.18   3
  -5   2  -4  115.09    5.53   1
   5  -2   4  108.71    8.86   3
   6   2   4  126.84    9.75   3
  -6   2  -4  119.55    6.08   1
   6  -2   4  122.06    9.68   3
   6   2   4  116.07    5.21   2
  -6  -2  -4  112.66    6.00   1
  -7   2  -4   31.53    3.96   1
   7  -2   4   36.52    7.19   3
   7   2   4   21.93    5.87   3
  -7  -2  -4   33.81    3.98   1
   8  -2   4  184.58   13.20   3
   8   2   4  206.42   13.44   3
  -8   2  -4  190.14    8.57   1
  -8  -2  -4  169.00    8.07   1
   9  -2   4    3.44    6.56   3
   9   2   4   13.77    6.36   3
  -9  -2  -4    8.34    3.47   1
  -9   2  -4   10.18    3.20   1
 -10   2  -4  104.87    7.59   1
  10   2   4  135.78   12.69   3
  10  -2   4  115.20   12.35   3
  11   2   4    9.53    8.03   3
 -11   2  -4   10.76    4.06   1
  12   2   4   13.21    9.09   3
  14  -3  -4    2.60    4.73   2
  14   3  -4    3.62    5.20   2
  13  -3  -4    4.71    4.58   2
  13   3  -4    1.36    4.41   2
  12  -3  -4    1.98    4.26   2
  12   3  -4    1.71    4.35   2
  11   3  -4    4.00    3.92   2
  11  -3  -4    3.14    3.93   2
  10  -3  -4   31.99    5.72   2
  10   3  -4   37.04    5.57   2
  10   3  -4   32.67    4.99   3
   9   3  -4   74.12    6.77   2
   9   3  -4   63.57    6.04   3
   9  -3  -4   68.96    6.58   2
  -9   3   4   76.09    4.99   1
  -8   3   4  229.99    7.93   1
   8   3  -4  231.60   10.01   2
   8   3  -4  229.62   10.09   3
   8  -3  -4  203.10    9.88   2
  -7   3   4   58.92    3.99   1
   7  -3  -4   57.59    5.26   2
   7   3  -4   63.70    5.30   3
   7   3  -4   55.34    5.04   2
   6  -3  -4  506.88   10.78   3
   6   3  -4  482.04   13.31   2
   6  -3  -4  443.77   13.24   2
   6  -3  -4  463.59   11.76   1
   5  -3  -4    9.08    2.60   2
   5  -3  -4    9.44    1.90   1
   5   3  -4    9.80    2.70   2
   4   3  -4 1051.70   16.66   1
   4   3  -4 1064.13   20.86   2
   4  -3  -4 1036.68   19.95   1
   4  -3  -4 1060.36   21.11   2
   3   3  -4    4.24    0.73   1
   3   3  -4    3.24    1.42   2
   3  -3  -4    2.72    1.24   1
   3  -3  -4    3.13    1.65   2
   2   3  -4  323.00    6.56   1
   2  -3  -4  335.03    8.19   2
   2  -3  -4  332.06    8.32   1
   1  -3  -4  163.42    4.77   2
   1   3  -4  156.99    5.20   2
   1  -3  -4  159.22    5.25   1
   1   3  -4  161.32    4.46   1
   0  -3  -4   88.40    3.84   1
   0   3  -4   98.11    4.02   2
   0   3   4   93.88    5.58   3
   0   3  -4   96.11    3.63   1
  -1  -3  -4   14.12    1.76   1
  -1   3  -4   13.90    1.70   1
   1   3   4   18.19    3.23   3
   2   3   4  160.23    7.71   3
  -2   3  -4  157.53    5.47   1
  -2  -3  -4  161.35    5.50   1
   3   3   4  204.15    8.93   3
  -3  -3  -4  200.26    6.52   1
   4   3   4  387.49   13.57   3
  -4  -3  -4  367.59    9.96   1
   5   3   4  122.57    8.68   3
   5   3   4  128.79    4.57   2
  -5   3  -4  105.20    5.47   1
  -5  -3  -4  125.15    5.83   1
  -6  -3  -4  390.17   11.06   1
   6   3   4  363.59   14.78   3
  -6   3  -4  385.19   11.31   1
  -7  -3  -4  185.86    7.84   1
   7   3   4  183.75   11.47   3
  -7   3  -4  199.84    8.36   1
  -8  -3  -4  362.16   11.55   1
  -8   3  -4  346.87   11.69   1
   8   3   4  344.40   16.64   3
  -9  -3  -4   31.86    4.53   1
  -9   3  -4   33.27    4.67   1
   9   3   4   38.63    8.13   3
 -10   3  -4   16.03    4.34   1
  10   3   4   16.15    7.77   3
  11   3   4   -4.64    6.31   3
 -11   3  -4    3.44    3.61   1
  12   3   4    0.56    8.64   3
  13   3   4    0.11   10.05   3
  14   4  -4    5.73    5.31   2
  14  -4  -4    8.49    5.16   2
  13   4  -4    5.39    4.84   2
  13  -4  -4    5.31    4.48   2
  12   4  -4   18.57    5.48   2
  12  -4  -4    8.42    4.71   2
  11  -4  -4    5.58    4.26   2
  11   4  -4    2.01    3.81   3
  11   4  -4   -2.29    3.87   2
  10  -4  -4   43.53    5.98   2
  10   4  -4   43.57    6.09   2
  10   4  -4   39.00    5.59   3
  -9   4   4   14.26    3.07   1
   9   4  -4   21.22    4.18   3
   9  -4  -4   22.16    4.50   2
   9   4  -4   15.91    4.68   2
   8   4  -4    6.73    3.68   2
   8   4  -4   17.69    3.76   3
   8  -4  -4    7.70    3.86   2
  -8   4   4   14.13    2.91   1
   7   4  -4   21.65    3.67   3
   7  -4  -4   20.51    3.88   2
   7   4  -4   16.47    3.47   2
  -7   4   4   18.23    2.76   1
   6  -4  -4    1.49    2.60   2
   6   4  -4    2.24    2.51   2
   6  -4  -4    1.84    1.74   1
   5  -4  -4  288.80    8.77   1
   5  -4  -4  284.72    9.85   2
   5   4  -4  297.59    9.41   2
   4   4  -4 2783.69   46.90   2
   4  -4  -4 2848.89   46.41   1
   4  -4  -4 2777.96   47.45   2
   3   4  -4  409.97    7.20   1
   3  -4  -4  410.19   10.45   2
   3   4  -4  405.75   10.20   2
   3  -4  -4  429.56   10.50   1
   2  -4  -4 1116.87   20.10   2
   2  -4  -4 1078.05   20.30   1
   2   4  -4 1081.00   20.42   2
   2   4  -4 1085.64   17.82   1
   1  -4  -4 1660.68   27.06   2
   1   4  -4 1624.61   26.16   1
  -1   4   4 1627.20   30.68   3
   1  -4  -4 1598.79   27.95   1
   1   4  -4 1613.81   28.30   2
   0   4   4  894.30   19.34   3
   0   4  -4  905.71   17.51   2
   0   4  -4  890.86   16.07   1
   0  -4  -4  877.59   16.91   1
   1   4   4   32.83    3.58   3
  -1   4  -4   37.32    2.60   1
  -1  -4  -4   27.68    2.41   1
  -2   4  -4  746.46   14.89   1
   2   4   4  741.85   18.21   3
  -2  -4  -4  721.75   14.86   1
  -3  -4  -4  122.71    5.04   1
   3   4   4  117.90    7.17   3
  -3   4  -4  119.21    5.05   1
  -4  -4  -4  252.92    7.82   1
  -4   4  -4  242.63    7.87   1
   4   4   4  234.63   10.21   3
  -5   4  -4   23.41    2.92   1
   5   4   4   20.64    4.35   3
  -5  -4  -4   23.87    2.96   1
   6   4   4   38.28    5.77   3
  -6   4  -4   48.50    4.30   1
  -6  -4  -4   48.22    4.11   1
  -7   4  -4  361.58   11.68   1
  -7  -4  -4  338.20   10.65   1
   7   4   4  330.39   15.25   3
  -8   4  -4  143.55    7.60   1
   8   4   4  112.86   10.33   3
  -8  -4  -4  129.69    6.99   1
  -9   4  -4   71.21    6.15   1
   9   4   4   76.21    9.63   3
 -10   4  -4   39.81    5.46   1
  10   4   4   44.20    9.03   3
  11   4   4    4.94    7.60   3
 -11   4  -4   10.02    4.06   1
  12   4   4    6.61    8.88   3
  13   4   4  -12.06    8.75   3
  14  -5  -4    2.12    4.66   2
  13  -5  -4    3.32    4.52   2
  13   5  -4    0.49    4.49   2
  12   5  -4    9.57    4.82   2
  12  -5  -4    8.48    4.84   2
  11   5  -4   -2.27    3.45   3
  11  -5  -4    5.07    4.23   2
  11   5  -4   -3.48    3.36   2
  10   5  -4    9.95    4.22   3
  10   5  -4    3.64    3.77   2
  10  -5  -4    2.10    3.74   2
   9   5  -4    5.79    3.20   3
   9  -5  -4    3.67    3.65   2
   9   5  -4    0.32    3.35   2
  -9   5   4   -0.74    2.26   1
   8   5  -4  157.90    8.56   2
   8  -5  -4  139.83    8.87   2
   8   5  -4  153.12    8.88   3
  -8   5   4  164.44    7.33   1
   7   5  -4    2.45    2.63   2
  -7   5   4    0.16    1.93   1
   7   5  -4    0.46    2.36   3
   7  -5  -4    2.48    2.81   2
   6  -5  -4  399.10   12.81   2
   6  -5  -4  385.83   11.32   1
   6   5  -4  413.10   11.88   2
   5  -5  -4  147.58    6.30   1
   5   5  -4  153.70    6.54   2
   5  -5  -4  145.90    7.08   2
   4  -5  -4  635.25   14.73   1
   4  -5  -4  630.15   15.24   2
   4   5  -4  630.83   14.49   2
   3   5  -4   -0.35    0.66   1
   3  -5  -4    1.48    1.30   1
   3  -5  -4   -1.34    1.60   2
   3   5  -4    1.85    1.35   2
   2  -5  -4  234.50    6.94   2
   2  -5  -4  223.33    7.24   1
   2   5  -4  219.68    7.03   2
   2   5  -4  228.37    5.21   1
   1   5  -4   61.25    2.74   1
   1  -5  -4   54.51    3.42   1
  -1   5   4   54.81    4.12   3
   1  -5  -4   63.05    3.14   2
   1   5  -4   60.54    3.53   2
   0   5   4   43.57    3.61   3
   0  -5  -4   43.14    3.18   1
   0   5  -4   41.10    3.06   2
   0   5  -4   44.34    2.61   1
   1   5   4   47.67    4.02   3
  -1  -5  -4   42.53    3.08   1
  -1   5  -4   44.54    2.87   1
   2   5   4  635.76   16.44   3
  -2  -5  -4  624.31   13.49   1
  -2   5  -4  620.13   13.42   1
   3   5   4    5.25    2.82   3
  -3  -5  -4    6.05    1.72   1
  -3   5  -4    7.37    1.83   1
  -4   5  -4  518.08   12.64   1
   4   5   4  480.10   15.27   3
  -4  -5  -4  503.33   12.07   1
  -5   5  -4   97.37    5.35   1
   5   5   4   92.11    7.36   3
  -5  -5  -4   78.61    4.55   1
  -6  -5  -4  534.51   13.34   1
  -6   5  -4  524.95   14.08   1
   6   5   4  538.00   18.09   3
   7   5   4  162.17   11.32   3
  -7  -5  -4  140.31    6.73   1
  -7   5  -4  157.30    7.64   1
   8   5   4  327.71   15.84   3
  -8  -5  -4  331.97   10.80   1
  -8   5  -4  355.00   12.22   1
  -9   5  -4   10.19    3.50   1
   9   5   4   11.89    6.61   3
 -10   5  -4   91.73    7.40   1
  10   5   4   91.33   11.27   3
  11   5   4    0.52    7.38   3
 -11   5  -4    1.03    3.71   1
  12   5   4   -8.17    8.04   3
 -12   5  -4    0.20    3.98   1
  13  -6  -4    8.63    5.15   2
  13   6  -4   14.23    5.50   2
  12  -6  -4   29.69    6.36   2
  12   6  -4   20.47    5.97   3
  12   6  -4   30.05    6.24   2
  11  -6  -4    1.53    3.59   2
  11   6  -4   -4.29    3.41   3
  11   6  -4   -0.29    4.21   2
  10   6  -4   49.96    6.37   2
 -10   6   4   46.22    5.00   1
  10  -6  -4   60.59    6.84   2
  10   6  -4   50.91    6.45   3
   9   6  -4   20.94    4.67   3
  -9   6   4   23.14    3.71   1
   9   6  -4   21.80    4.72   2
   9  -6  -4   11.46    4.19   2
   8   6  -4   79.81    6.26   2
   8  -6  -4   83.38    7.24   2
  -8   6   4   71.50    5.51   1
   8   6  -4   68.46    6.59   3
   7  -6  -4   95.44    7.13   2
   7  -6  -4   98.19    5.95   1
   7   6  -4   88.73    6.14   2
   6   6  -4    3.74    2.57   2
   6  -6  -4    4.87    2.80   2
   6  -6  -4    4.23    2.29   1
   5   6  -4  218.85    8.07   2
   5  -6  -4  198.46    8.55   2
   5  -6  -4  214.01    8.09   1
   4   6  -4   19.62    2.54   2
   4  -6  -4   12.78    2.80   2
   4  -6  -4   15.12    2.50   1
   3  -6  -4 1497.07   28.13   1
   3   6  -4 1519.79   23.62   1
   3  -6  -4 1538.17   28.25   2
   3   6  -4 1498.44   27.73   2
   2   6  -4 1909.75   33.75   2
   2  -6  -4 1952.68   33.25   2
   2  -6  -4 1900.64   33.73   1
   2   6  -4 1904.03   30.09   1
   1   6  -4 1196.55   22.98   2
   1  -6  -4 1200.55   21.41   2
   1   6  -4 1198.40   20.35   1
  -1   6   4 1222.84   23.53   3
   1  -6  -4 1167.94   22.62   1
   0   6  -4 5870.23   90.66   2
   0  -6  -4 5697.66   88.69   1
   0   6  -4 5657.46   86.80   1
   0   6   4 5797.12   98.36   3
  -1  -6  -4  621.69   13.80   1
  -1   6  -4  609.12   12.97   1
   1   6   4  626.45   15.45   3
  -2  -6  -4 3044.29   48.99   1
  -2   6  -4 3008.42   48.66   1
   2   6   4 2966.94   55.84   3
  -3   6  -4    3.47    1.55   1
  -3  -6  -4    4.88    1.73   1
   3   6   4    2.48    2.41   3
  -4   6  -4  253.15    8.51   1
   4   6   4  257.84   10.89   3
  -4  -6  -4  253.15    8.04   1
  -5   6  -4  108.43    5.79   1
   5   6   4  112.94    8.07   3
  -5  -6  -4  103.15    5.31   1
  -6  -6  -4    3.41    2.09   1
   6   6   4    7.92    4.04   3
  -6   6  -4    6.22    2.50   1
   7   6   4    6.60    4.87   3
  -7   6  -4    2.22    2.29   1
  -7  -6  -4    1.04    2.17   1
  -8   6  -4   27.68    4.15   1
   8   6   4   17.23    6.00   3
   9   6   4   18.33    6.93   3
  -9   6  -4   20.87    4.36   1
 -10   6  -4   11.52    4.17   1
  10   6   4    7.89    7.33   3
 -11   6  -4    2.46    3.85   1
  11   6   4    0.68    6.63   3
 -12   6  -4   10.69    4.95   1
  12   6   4   -2.74    8.17   3
  13  -7  -4    8.18    5.20   2
  12   7  -4    0.67    4.48   3
  12   7  -4    0.23    4.08   2
  12  -7  -4    6.03    4.51   2
  11   7  -4    7.54    4.62   2
  11   7  -4    3.18    3.97   3
  11  -7  -4    4.52    4.12   2
 -10   7   4    1.98    2.99   1
  10   7  -4    0.00    3.62   3
  10  -7  -4   10.38    4.71   2
  10   7  -4    2.13    4.10   2
   9   7  -4   15.16    4.43   3
   9  -7  -4    8.96    4.06   2
  -9   7   4   13.12    3.42   1
   9   7  -4   14.13    4.37   2
   8   7  -4   63.91    6.06   2
   8  -7  -4   99.29    7.56   2
  -8   7   4   72.58    5.78   1
   8   7  -4   60.23    6.38   3
   7  -7  -4   73.86    5.33   1
   7   7  -4   69.27    5.63   2
   7  -7  -4   73.00    6.28   2
   6  -7  -4  250.15   10.54   2
   6   7  -4  253.38    9.42   2
   6  -7  -4  243.21    9.35   1
   5  -7  -4   74.21    5.71   2
   5  -7  -4   82.23    5.19   1
   5   7  -4   79.82    5.09   2
   4   7  -4  237.80    8.12   2
   4  -7  -4  259.49    9.02   1
   4  -7  -4  242.29    9.14   2
   3   7  -4   53.07    2.24   1
   3  -7  -4   58.06    4.35   2
   3  -7  -4   46.47    3.88   1
   3   7  -4   55.54    3.77   2
   2  -7  -4   67.25    4.43   1
   2   7  -4   71.91    4.19   2
   2   7  -4   61.38    2.72   1
   2  -7  -4   65.61    4.07   2
  -2   7   4   54.92    3.74   3
  -1   7   4   38.42    3.13   3
   1   7  -4   36.54    2.52   1
   1   7  -4   35.52    3.22   2
   1  -7  -4   36.53    3.32   1
   1  -7  -4   34.91    2.68   2
   0  -7  -4   12.61    2.25   1
   0   7   4   10.77    2.47   3
   0   7  -4   11.62    2.18   2
   0   7  -4   12.92    1.88   1
  -1   7  -4   -0.30    1.28   1
  -1  -7  -4    1.20    1.60   1
   1   7   4   -0.42    1.67   3
  -2  -7  -4  403.06   10.76   1
  -2   7  -4  413.81   10.60   1
   2   7   4  414.87   12.76   3
   3   7   4    4.59    2.56   3
  -3   7  -4    3.78    1.77   1
  -3  -7  -4    7.16    2.01   1
  -4  -7  -4  731.34   16.16   1
  -4   7  -4  744.99   16.90   1
   4   7   4  729.80   20.22   3
   5   7   4    4.12    3.60   3
  -5   7  -4    2.73    2.11   1
  -5  -7  -4    1.07    1.83   1
   6   7   4  296.04   13.34   3
  -6  -7  -4  305.59    9.58   1
  -6   7  -4  307.36   10.62   1
  -7  -7  -4   18.70    3.29   1
   7   7   4   26.21    6.04   3
  -7   7  -4   22.60    3.86   1
   8   7   4   43.41    7.67   3
  -8   7  -4   47.92    5.22   1
  -9   7  -4    7.82    3.65   1
   9   7   4    8.07    6.40   3
 -10   7  -4   54.58    6.34   1
  10   7   4   48.25    9.37   3
  11   7   4    1.49    6.86   3
 -11   7  -4    4.89    4.16   1
  12   7   4    2.14    8.69   3
 -12   7  -4   -5.91    3.84   1
  13   8  -4    1.89    5.59   3
  13  -8  -4    6.10    4.93   2
  12   8  -4    7.53    5.20   3
  12  -8  -4    5.78    4.63   2
  11   8  -4    7.01    4.73   2
  11   8  -4    1.00    4.29   3
  11  -8  -4    5.77    4.41   2
  10  -8  -4   70.82    7.60   2
 -10   8   4   66.98    6.32   1
  10   8  -4   67.44    7.63   3
  10   8  -4   81.27    7.60   2
   9  -8  -4    4.58    3.79   2
   9   8  -4    3.59    3.79   2
   9   8  -4   -3.37    2.92   3
  -9   8   4    2.24    2.85   1
   8  -8  -4   -1.78    3.15   2
   8   8  -4   -0.39    3.01   2
  -8   8   4   12.63    3.45   1
   8   8  -4    1.82    3.19   3
   7   8  -4   -1.86    2.39   2
   7  -8  -4    5.30    3.43   2
  -7   8   4    5.68    2.89   1
   7  -8  -4    4.23    2.52   1
   6  -8  -4   -1.87    2.30   2
   6  -8  -4    0.48    1.97   1
   6   8  -4    0.72    2.22   2
   5  -8  -4  262.30    9.78   1
   5   8  -4  277.68    9.38   2
   5  -8  -4  291.57   10.89   2
   4  -8  -4  496.57   13.98   1
   4   8  -4  538.74   13.55   2
   4  -8  -4  515.00   14.39   2
   3  -8  -4    1.10    1.59   1
   3   8  -4    0.38    0.83   1
   3  -8  -4   -0.30    1.78   2
   3   8  -4    0.33    1.24   2
   2  -8  -4  418.44   10.97   2
   2   8  -4  409.73    8.75   1
  -2   8   4  399.69    9.90   3
   2  -8  -4  406.51   11.67   1
   2   8  -4  404.98   11.27   2
   1  -8  -4  141.53    6.44   1
   1   8  -4  145.29    4.96   1
   1   8  -4  130.45    6.07   2
  -1   8   4  156.76    5.94   3
   0  -8  -4 5154.99   81.60   1
   0   8  -4 5210.94   79.44   1
   0   8   4 5168.65   89.59   3
  -1   8  -4   92.69    4.50   1
   1   8   4   86.80    5.46   3
  -1  -8  -4   90.04    4.92   1
  -2  -8  -4  868.78   18.39   1
  -2   8  -4  878.39   18.14   1
   2   8   4  833.13   20.84   3
  -3   8  -4   -1.07    1.58   1
   3   8   4    0.36    2.32   3
  -3  -8  -4   -0.03    1.66   1
  -4   8  -4  620.48   15.40   1
  -4  -8  -4  617.95   14.72   1
   4   8   4  623.47   18.57   3
  -5   8  -4   98.06    5.99   1
   5   8   4   89.82    7.52   3
  -5  -8  -4  107.31    5.62   1
  -6  -8  -4  115.44    6.07   1
  -6   8  -4  116.84    7.04   1
   6   8   4  129.67    9.25   3
  -7   8  -4  103.60    6.95   1
   7   8   4  107.93    9.34   3
  -7  -8  -4   99.21    5.82   1
  -8   8  -4   42.51    5.14   1
   8   8   4   42.80    7.21   3
   9   8   4   14.36    6.95   3
  -9   8  -4   15.75    4.03   1
 -10   8  -4   52.86    6.12   1
  10   8   4   46.53    9.65   3
  11   8   4   -2.88    6.54   3
 -11   8  -4   -8.45    3.37   1
 -12   8  -4    1.11    4.67   1
  12   8   4   -6.70    8.01   3
  13   9  -4   -5.71    5.04   3
  13  -9  -4    4.66    5.04   2
  12   9  -4   -2.81    4.56   3
  12  -9  -4   -3.05    3.63   2
  11   9  -4    1.01    4.27   3
  11   9  -4    4.49    4.73   2
 -11   9   4   -0.98    3.46   1
  11  -9  -4   -1.37    3.86   2
 -10   9   4   -0.37    3.18   1
  10   9  -4   -6.09    3.75   2
  10  -9  -4    3.35    4.04   2
  10   9  -4    0.87    3.80   3
   9  -9  -4   44.09    6.19   2
  -9   9   4   29.11    4.68   1
   9   9  -4   26.98    5.20   2
   9   9  -4   24.64    5.29   3
  -8   9   4  105.01    7.05   1
   8  -9  -4  106.31    8.49   2
   8   9  -4   92.41    8.23   3
   8   9  -4  109.31    7.65   2
   7   9  -4   19.22    3.97   2
   7  -9  -4   15.15    4.31   2
  -7   9   4   12.23    3.42   1
   7  -9  -4   11.44    3.29   1
   6  -9  -4  353.23   13.23   2
   6  -9  -4  333.74   11.94   1
   6   9  -4  374.01   11.79   2
   5  -9  -4    8.54    2.63   1
   5   9  -4    9.29    2.61   2
   5  -9  -4   14.26    3.38   2
   4  -9  -4  304.70   10.71   2
   4  -9  -4  297.22   10.63   1
   4   9  -4  281.27    9.60   2
   3  -9  -4    2.61    1.91   2
   3   9  -4    1.52    1.00   1
   3   9  -4    2.38    1.54   2
   3  -9  -4   -0.12    1.62   1
   2   9  -4   67.61    4.56   2
   2  -9  -4   67.82    4.72   1
   2   9  -4   60.86    3.20   1
  -2   9   4   66.58    3.89   3
  -1   9   4    7.54    2.12   3
   1   9  -4   10.90    2.33   2
   1   9  -4    6.28    1.52   1
   1  -9  -4    8.70    2.27   1
   0  -9  -4   30.98    3.44   1
   0   9   4   44.97    3.93   3
   0   9  -4   37.77    3.02   1
   1   9   4   62.90    4.91   3
  -1  -9  -4   58.49    4.25   1
  -1   9  -4   58.79    3.99   1
  -2   9  -4  259.06    8.44   1
   2   9   4  246.85    9.97   3
  -2  -9  -4  251.26    8.70   1
  -3   9  -4   46.75    3.98   1
  -3  -9  -4   48.87    4.07   1
   3   9   4   37.15    4.65   3
   4   9   4  533.20   17.18   3
  -4  -9  -4  524.28   13.70   1
  -4   9  -4  520.77   14.18   1
   5   9   4  124.29    8.95   3
  -5   9  -4  123.91    6.78   1
  -5  -9  -4  141.98    6.66   1
  -6   9  -4  178.01    8.45   1
   6   9   4  158.54   10.30   3
  -6  -9  -4  168.52    7.38   1
  -7   9  -4  107.76    7.28   1
   7   9   4  112.47    9.70   3
   8   9   4   39.35    7.63   3
  -8   9  -4   42.65    5.33   1
  -9   9  -4   -1.58    3.00   1
   9   9   4    0.58    6.01   3
  10   9   4   -7.89    5.45   3
 -10   9  -4    2.73    3.60   1
  11   9   4  -11.25    7.34   3
 -11   9  -4    4.08    4.12   1
  12   9   4   -4.58    8.59   3
 -12   9  -4   -0.07    4.79   1
  12  10  -4   10.79    5.95   3
  12 -10  -4   15.78    5.95   2
 -11  10   4    0.74    3.78   1
  11  10  -4    4.27    4.98   3
  11 -10  -4   -0.50    4.21   2
  10 -10  -4   37.85    6.43   2
 -10  10   4   18.54    4.74   1
  10  10  -4   29.79    5.78   2
  10  10  -4   28.50    6.22   3
   9  10  -4   -6.57    3.32   2
   9 -10  -4    1.05    3.64   2
  -9  10   4    0.66    3.18   1
   9  10  -4   -1.25    3.54   3
   8 -10  -4    4.61    3.38   2
  -8  10   4   -1.02    2.92   1
   8  10  -4    0.69    3.37   3
   8  10  -4   -1.68    3.09   2
   7  10  -4   27.82    4.45   2
   7 -10  -4   35.84    5.40   2
   7 -10  -4   31.86    4.39   1
   6  10  -4   15.01    3.33   2
   6 -10  -4    8.32    3.44   2
   6 -10  -4   16.33    3.46   1
   5 -10  -4   10.84    3.16   1
   5 -10  -4   10.37    3.31   2
   5  10  -4   18.96    3.18   2
   4 -10  -4  413.64   13.05   1
   4  10  -4  409.71   11.99   2
   4 -10  -4  389.40   12.88   2
   3  10  -4    4.07    1.27   1
   3 -10  -4    3.59    2.16   1
   3  10  -4    4.22    1.89   2
   2 -10  -4  227.29    9.05   1
  -2  10   4  217.82    7.10   3
   2  10  -4  227.27    8.55   2
   2  10  -4  225.76    6.48   1
  -1  10   4    9.51    2.25   3
   1  10  -4   15.27    2.75   2
   1 -10  -4   18.29    3.13   1
   1  10  -4   10.52    1.96   1
   0  10  -4  102.63    4.86   1
   0 -10  -4   91.00    5.48   1
   0  10   4   87.01    5.41   3
   1  10   4    7.29    2.61   3
  -1 -10  -4   10.63    2.59   1
  -1  10  -4    6.37    2.03   1
   2  10   4  260.64   10.48   3
  -2  10  -4  262.85    8.83   1
  -2 -10  -4  258.65    9.16   1
  -3  10  -4    5.33    2.22   1
  -3 -10  -4    9.18    2.52   1
   3  10   4   10.26    3.48   3
  -4  10  -4  102.08    6.27   1
  -4 -10  -4   95.60    5.71   1
   4  10   4   90.53    7.17   3
   5  10   4    4.55    3.76   3
  -5 -10  -4    3.85    2.47   1
  -5  10  -4    8.39    2.82   1
   6  10   4    1.52    4.25   3
  -6  10  -4    1.56    2.93   1
  -6 -10  -4   14.85    3.08   1
   7  10   4   19.52    5.86   3
  -7  10  -4   15.50    3.83   1
  -8  10  -4   -3.60    2.99   1
   8  10   4   -1.33    4.93   3
  -9  10  -4    5.75    3.58   1
   9  10   4    8.29    6.35   3
  10  10   4   28.10    8.39   3
 -10  10  -4   22.82    5.16   1
  11  10   4   -4.66    7.77   3
 -11  10  -4   -1.99    3.87   1
  12 -11  -4    1.05    4.76   2
  12  11  -4   -2.52    4.40   3
  11 -11  -4    8.77    5.01   2
  11  11  -4    6.26    4.85   3
 -11  11   4    7.12    4.13   1
  10 -11  -4   25.73    6.16   2
 -10  11   4   29.27    5.23   1
  10  11  -4   31.87    5.74   2
  10  11  -4   22.97    6.16   3
   9  11  -4    5.74    4.15   2
   9 -11  -4   10.07    4.49   2
  -9  11   4   13.71    4.09   1
   9  11  -4    9.42    4.62   3
   8  11  -4   62.91    7.47   3
   8  11  -4   66.44    5.99   2
   8 -11  -4   62.54    7.03   2
  -8  11   4   59.74    6.39   1
  -7  11   4   -0.45    3.00   1
   7  11  -4    1.45    2.69   2
   7 -11  -4    2.64    2.79   1
   7 -11  -4    1.09    3.03   2
   6 -11  -4  111.27    7.80   2
   6 -11  -4  101.53    6.99   1
   6  11  -4   91.31    6.09   2
   5  11  -4   47.75    4.51   2
   5 -11  -4   36.39    4.63   1
   5 -11  -4   39.52    5.01   2
   4  11  -4  285.68   10.14   2
   4 -11  -4  315.25   11.55   1
   3  11  -4   17.68    2.96   2
   3 -11  -4   12.10    3.02   1
   2  11  -4  148.30    7.19   2
   2 -11  -4  139.71    7.25   1
   2  11  -4  137.48    5.29   1
  -1  11   4   -1.03    1.64   3
   1 -11  -4    0.15    1.80   1
   1  11  -4   -0.74    1.63   2
   1  11  -4   -0.92    1.40   1
   0 -11  -4   -0.49    1.68   1
   0  11  -4    2.82    1.82   1
   0  11   4    0.70    2.06   3
   1  11   4   27.62    3.92   3
  -1  11  -4   27.87    3.19   1
  -1 -11  -4   26.53    3.45   1
   2  11   4  174.26    8.74   3
  -2 -11  -4  154.96    7.33   1
  -2  11  -4  171.22    7.33   1
  -3  11  -4   56.71    4.80   1
   3  11   4   61.82    5.95   3
  -3 -11  -4   56.87    4.73   1
  -4 -11  -4  174.25    7.80   1
   4  11   4  175.92    9.94   3
  -4  11  -4  177.07    8.14   1
  -5 -11  -4   31.32    4.05   1
  -5  11  -4   24.17    3.93   1
   5  11   4   27.24    5.37   3
  -6  11  -4  110.60    7.16   1
   6  11   4  100.02    9.14   3
  -7  11  -4   -3.73    2.71   1
   7  11   4   -0.55    4.29   3
  -8  11  -4    3.01    3.44   1
   8  11   4    2.54    5.32   3
   9  11   4   -1.77    6.02   3
  -9  11  -4   -2.45    3.26   1
 -10  11  -4    1.26    3.87   1
  10  11   4   -3.16    6.30   3
  11  11   4  -16.68    6.83   3
 -11  11  -4    1.56    4.30   1
  12  12  -4   10.70    6.36   3
  12 -12  -4   21.76    6.69   2
 -12  12   4   15.20    5.44   1
 -11  12   4   -3.48    3.22   1
  11 -12  -4    1.40    4.67   2
  11  12  -4   -2.44    4.80   3
  10 -12  -4   27.59    6.24   2
  10  12  -4   21.19    6.31   3
 -10  12   4   21.81    5.45   1
   9 -12  -4    7.73    4.76   2
  -9  12   4    3.19    3.52   1
   9  12  -4    0.16    4.01   2
   9  12  -4   11.06    5.19   3
   8 -12  -4   24.33    5.33   2
   8  12  -4   23.03    4.38   2
  -8  12   4   21.67    4.67   1
   8  12  -4   14.90    5.04   3
   7 -12  -4   12.62    3.78   1
   7  12  -4    4.14    3.88   3
  -7  12   4    9.22    3.59   1
   7  12  -4    5.79    3.27   2
   7 -12  -4    8.50    4.37   2
   6 -12  -4   59.66    5.97   1
   6  12  -4   53.26    4.97   2
   5  12  -4   71.78    5.42   2
   5 -12  -4   91.06    6.87   1
   4  12  -4    1.41    2.02   2
   4 -12  -4    2.23    2.35   1
   3  12  -4  206.01    8.78   2
   3 -12  -4  194.24    9.11   1
   2  12  -4  141.32    5.57   1
   2 -12  -4  138.90    7.53   1
   2  12  -4  131.53    7.02   2
   1  12  -4   -0.37    1.68   2
  -1  12   4    0.83    1.92   3
   1  12  -4    0.29    1.49   1
   1 -12  -4    1.92    2.10   1
   0  12  -4  269.94   10.52   2
   0  12  -4  271.05    8.79   1
   0 -12  -4  254.32    9.95   1
   0  12   4  260.03    9.78   3
  -1  12  -4    4.23    2.11   1
  -1 -12  -4    5.47    2.56   1
   1  12   4    8.57    2.94   3
  -2  12  -4   57.96    4.79   1
   2  12   4   55.23    5.56   3
  -2 -12  -4   59.39    5.05   1
  -3 -12  -4    8.34    2.69   1
   3  12   4    3.89    3.38   3
  -3  12  -4    6.63    2.50   1
  -4 -12  -4   10.13    2.94   1
   4  12   4   14.60    4.52   3
  -4  12  -4   16.94    3.49   1
   5  12   4   42.22    6.37   3
  -5  12  -4   38.29    4.72   1
  -5 -12  -4   51.17    4.83   1
   6  12   4   71.86    8.09   3
  -6  12  -4   59.47    5.83   1
   7  12   4   33.40    6.67   3
  -7  12  -4   33.13    5.23   1
  -8  12  -4   66.92    6.75   1
   8  12   4   63.34    8.79   3
   9  12   4   12.72    7.03   3
  -9  12  -4   11.37    4.42   1
 -10  12  -4   14.38    4.90   1
  10  12   4   20.17    8.57   3
  11  12   4   -5.18    8.10   3
 -11  13   4    2.97    4.43   1
  11  13  -4    0.15    5.07   3
 -10  13   4   55.43    7.10   1
  10  13  -4   33.62    7.37   3
  -9  13   4    4.07    3.68   1
   9  13  -4   -0.07    3.74   3
   8  13  -4  149.11   11.08   3
  -8  13   4  127.19    9.08   1
   8  13  -4  151.60    9.05   2
  -7  13   4    1.75    3.24   1
   7  13  -4   -0.08    3.59   3
   7  13  -4    2.46    3.04   2
   6 -13  -4  115.06    7.91   1
   6  13  -4  128.51    7.46   2
   5 -13  -4   55.90    5.90   1
   5  13  -4   54.37    5.12   2
   4 -13  -4  137.29    8.10   1
   4  13  -4  149.69    7.73   2
   3  13  -4   62.66    5.28   2
   3 -13  -4   50.74    5.38   1
   2  13  -4   29.67    4.03   2
   2 -13  -4   31.84    4.26   1
   2  13  -4   31.57    3.07   1
   1  13  -4   22.49    3.63   2
   1  13  -4   24.10    2.96   1
   1 -13  -4   30.15    4.11   1
   0  13  -4    6.71    2.37   1
   0  13   4    3.59    2.56   3
   0 -13  -4    8.53    2.77   1
   0  13  -4    5.30    2.55   2
   1  13   4    1.09    2.71   3
  -1 -13  -4    1.75    2.10   1
  -1  13  -4    3.61    2.22   1
  -2  13  -4   56.64    4.96   1
  -2 -13  -4   69.19    5.62   1
   2  13   4   66.04    6.22   3
   3  13   4    1.62    3.36   3
  -3  13  -4    0.54    2.27   1
  -3 -13  -4    0.77    2.22   1
  -4  13  -4   87.15    6.25   1
  -4 -13  -4   81.26    5.95   1
   4  13   4   92.38    8.07   3
  -5  13  -4   26.07    4.30   1
   5  13   4   22.21    5.44   3
   6  13   4  106.19    9.51   3
  -6  13  -4  107.74    7.54   1
   7  13   4   17.00    6.01   3
  -7  13  -4   15.32    4.15   1
   8  13   4   35.16    7.49   3
  -8  13  -4   28.99    5.57   1
   9  13   4   -2.25    5.42   3
  -9  13  -4    0.70    4.37   1
  10  13   4    1.22    7.71   3
 -10  13  -4   14.37    5.48   1
 -11  14   4   -3.53    4.22   1
  11  14  -4    1.84    5.74   3
  10  14  -4   18.95    6.35   3
 -10  14   4   29.52    6.25   1
   9  14  -4    1.28    4.36   3
  -9  14   4   -3.90    3.69   1
  -8  14   4   -1.27    3.91   1
   8  14  -4    1.76    3.53   2
   8  14  -4    0.41    3.78   3
   7  14  -4   -0.80    2.89   2
  -7  14   4    2.67    3.77   1
   7  14  -4    3.39    3.82   3
   6  14  -4    2.55    2.85   2
   6 -14  -4    2.05    3.07   1
   5 -14  -4   -0.25    2.63   1
   5  14  -4    2.58    2.63   2
   4 -14  -4  240.77   11.11   1
   4  14  -4  242.89   10.14   2
   3 -14  -4    2.32    2.53   1
   3  14  -4    0.67    2.06   2
   2  14  -4  124.99    7.43   2
   2 -14  -4  119.53    7.57   1
   1  14  -4    0.83    2.03   2
   1 -14  -4    1.23    2.57   1
   1  14  -4   -0.10    1.85   1
   0  14  -4  312.11   10.22   1
   0 -14  -4  307.37   11.77   1
   0  14   4  322.10   11.61   3
  -1  14  -4   84.06    5.64   1
  -1 -14  -4   85.47    6.17   1
   1  14   4   80.86    6.49   3
  -2  14  -4   91.34    6.18   1
   2  14   4   83.34    7.04   3
  -2 -14  -4   88.19    6.38   1
  -3  14  -4   -2.18    2.29   1
  -3 -14  -4   -1.70    2.26   1
   3  14   4    3.45    3.38   3
  -4 -14  -4  159.94    8.43   1
   4  14   4  156.07   10.48   3
  -4  14  -4  164.85    8.60   1
   5  14   4   72.21    7.85   3
  -5  14  -4   58.04    5.88   1
   6  14   4   18.00    5.78   3
  -6  14  -4   19.44    4.52   1
  -7  14  -4    6.69    3.68   1
   7  14   4   -5.45    4.03   3
   8  14   4    3.89    5.62   3
  -8  14  -4    3.82    4.21   1
  -9  14  -4   -1.13    3.64   1
   9  14   4   -5.38    5.31   3
  10  14   4   68.59   11.84   3
  10  15  -4    0.10    5.25   3
 -10  15   4    3.89    4.69   1
  -9  15   4   -0.96    3.83   1
   9  15  -4    0.43    4.78   3
  -8  15   4   49.34    6.98   1
   8  15  -4   44.70    7.30   3
   7  15  -4    0.27    3.25   2
  -7  15   4   -6.60    2.83   1
   7  15  -4    0.94    3.66   3
   6  15  -4  249.02   10.83   2
   6 -15  -4  241.24   12.02   1
   5 -15  -4    3.85    2.97   1
   5  15  -4   -0.46    2.24   2
   4 -15  -4  184.19   10.20   1
   4  15  -4  190.18    9.15   2
   3 -15  -4   27.54    4.59   1
   3  15  -4   39.90    4.90   2
   2  15  -4   60.14    5.53   2
   2 -15  -4   45.45    5.38   1
   1  15  -4   25.28    3.41   1
   1 -15  -4   21.08    4.09   1
   1  15  -4   24.81    4.01   2
   0  15  -4    4.82    2.73   2
   0  15  -4    4.39    2.42   1
   0 -15  -4    4.70    2.81   1
  -1 -15  -4    0.82    2.67   1
  -1  15  -4   -1.07    2.28   1
   1  15   4    1.15    3.29   3
  -2  15  -4   29.38    4.13   1
  -2 -15  -4   33.99    4.70   1
   2  15   4   23.48    4.86   3
  -3  15  -4   -0.28    2.30   1
  -3 -15  -4    6.78    3.13   1
   3  15   4    1.68    3.33   3
   4  15   4  133.75   10.04   3
  -4  15  -4  121.10    7.89   1
  -5  15  -4    1.56    2.92   1
   5  15   4   -2.19    4.00   3
   6  15   4  155.33   12.07   3
   7  15   4   -1.27    5.19   3
  -7  15  -4    3.11    3.53   1
   8  15   4   65.89   10.01   3
  -8  15  -4   68.59    7.68   1
  -9  15  -4    2.81    4.59   1
   9  15   4  -11.57    5.69   3
  10  16  -4   52.46    9.23   3
  -9  16   4   -2.16    4.06   1
   9  16  -4   -1.47    4.83   3
  -8  16   4   41.21    6.77   1
   8  16  -4   38.86    7.52   3
  -7  16   4    0.61    3.85   1
   7  16  -4    0.05    3.93   3
  -6  16   4   21.39    5.17   1
   6  16  -4   16.23    4.07   2
   6 -16  -4   12.45    4.29   1
   5  16  -4   35.61    4.86   2
   5 -16  -4   40.21    5.78   1
   4  16  -4  121.55    7.69   2
   4 -16  -4  106.68    8.35   1
   3 -16  -4   17.08    4.41   1
   3  16  -4   20.18    3.90   2
   2  16  -4  378.17   13.87   2
   2 -16  -4  366.46   14.18   1
   1 -16  -4   33.95    4.96   1
   1  16  -4   24.75    4.24   2
   0  16  -4  392.29   14.54   2
   0 -16  -4  369.56   13.77   1
   0  16  -4  359.58   11.86   1
  -1 -16  -4   11.96    3.62   1
   1  16   4   13.95    4.01   3
  -1  16  -4   12.51    3.33   1
   2  16   4   31.28    5.34   3
  -2  16  -4   24.29    4.08   1
  -2 -16  -4   22.82    4.34   1
  -3  16  -4   25.60    4.22   1
   3  16   4   30.68    5.56   3
  -3 -16  -4   26.71    4.64   1
   4  16   4   39.86    6.54   3
  -4  16  -4   30.65    4.74   1
  -5  16  -4    7.53    3.63   1
   5  16   4    5.66    4.92   3
   6  16   4    1.53    4.94   3
  -6  16  -4    2.71    3.89   1
  -7  16  -4    1.60    4.05   1
   7  16   4    1.80    5.63   3
   8  16   4   17.96    7.17   3
  -8  16  -4   15.06    5.04   1
   9  16   4   -7.81    5.64   3
   9  17  -4    8.61    5.94   3
  -9  17   4   -5.13    3.97   1
  -8  17   4   48.37    7.30   1
   8  17  -4   63.93    8.85   3
   7  17  -4    0.63    4.09   3
  -7  17   4   -0.98    3.68   1
   6  17  -4   90.05    7.27   2
  -6  17   4   93.45    8.74   1
   6  17  -4   99.01   10.12   3
   6 -17  -4   82.01    8.18   1
   5  17  -4    2.90    2.85   2
   5 -17  -4   -0.37    3.15   1
   4 -17  -4  140.38    9.40   1
   4  17  -4  140.49    8.50   2
   3 -17  -4    0.39    3.04   1
   3  17  -4    0.90    2.67   2
   2 -17  -4   50.20    6.09   1
   2  17  -4   47.37    5.54   2
   1 -17  -4    0.38    2.97   1
   1  17  -4    1.99    2.82   2
   0  17  -4    0.35    2.52   1
   0  17  -4    4.50    3.19   2
   0 -17  -4    2.06    3.12   1
  -1  17  -4    6.53    2.91   1
  -1 -17  -4    4.26    3.32   1
  -2  17  -4   33.17    4.77   1
  -2 -17  -4   33.96    5.17   1
   2  17   4   31.63    5.52   3
   3  17   4    1.91    3.82   3
  -3  17  -4    2.16    3.00   1
   4  17   4  106.21    9.59   3
  -5  17  -4    7.54    4.07   1
   5  17   4    4.53    5.03   3
  -6  17  -4   98.53    8.61   1
   6  17   4  135.20   11.94   3
  -7  17  -4   -0.14    4.23   1
   7  17   4   -6.48    5.14   3
   8  17   4   77.73   10.90   3
   8  18  -4   -3.90    4.33   3
  -8  18   4   -3.66    4.39   1
  -7  18   4    0.97    4.29   1
   7  18  -4    4.07    4.34   3
  -6  18   4    7.82    4.73   1
   6  18  -4   10.11    5.37   3
   5 -18  -4   39.87    6.13   1
   5  18  -4   43.58    5.60   2
   4  18  -4  149.10    8.97   2
   4 -18  -4  130.25    9.39   1
   3 -18  -4    3.49    3.51   1
   3  18  -4   -0.21    2.57   2
   2  18  -4  134.67    8.61   2
   2 -18  -4  139.76    9.32   1
   1 -18  -4   28.47    5.20   1
   1  18  -4   28.42    4.93   2
   0  18  -4  177.83   10.36   2
   0 -18  -4  173.88   10.07   1
  -1  18  -4    6.87    3.83   2
  -1  18  -4    5.27    3.36   1
  -1 -18  -4   10.44    4.15   1
  -2 -18  -4  213.36   10.92   1
  -2  18  -4  202.97    9.90   1
  -3  18  -4   16.08    4.26   1
   3  18   4   13.75    5.12   3
  -4  18  -4   30.45    5.42   1
   4  18   4   25.51    6.20   3
  -5  18  -4   -3.40    3.24   1
   5  18   4    6.78    5.22   3
   6  18   4   11.29    5.84   3
  -6  18  -4    0.53    4.15   1
   7  18   4    0.77    6.08   3
   8  19  -4   41.10    8.37   3
   7  19  -4   20.09    6.46   3
  -7  19   4   13.73    5.55   1
  -6  19   4   69.60    8.60   1
   6  19  -4   78.91    9.88   3
  -5  19   4   33.79    7.02   1
   5 -19  -4   31.40    6.05   1
   4 -19  -4   28.51    5.63   1
   4  19  -4   28.19    4.95   2
   3  19  -4    7.64    3.54   2
   3 -19  -4    4.92    4.09   1
   2  19  -4   12.34    4.05   2
   2 -19  -4    6.16    4.09   1
   1  19  -4    5.05    3.39   2
   1 -19  -4   -0.38    3.45   1
   0 -19  -4    0.94    3.52   1
   0  19  -4    0.55    3.06   2
  -1 -19  -4   21.97    4.93   1
  -1  19  -4   16.82    4.81   2
  -1  19  -4   23.30    4.67   1
  -2  19  -4   35.59    5.28   1
   3  19   4   13.25    5.35   3
  -3  19  -4    8.53    3.93   1
  -4  19  -4   68.31    7.00   1
   4  19   4   76.44    8.86   3
   5  19   4    4.72    5.54   3
  -5  19  -4   -0.62    3.72   1
   6  19   4   89.14   10.78   3
   7  20  -4   31.65    7.66   3
   6  20  -4    1.73    5.01   3
  -5  20   4   45.80    7.61   1
   5  20  -4   42.85    8.32   3
   4  20  -4    9.85    4.25   2
   4 -20  -4   21.16    5.43   1
   3  20  -4  130.68    9.27   2
   3 -20  -4  146.78   10.56   1
   2 -20  -4   36.78    6.26   1
   2  20  -4   26.47    5.22   2
   1  20  -4   83.46    7.75   2
   1 -20  -4  101.25    8.88   1
   0 -20  -4  116.47    9.09   1
   0  20  -4   96.12    8.58   2
  -1 -20  -4   -0.62    3.20   1
  -1  20  -4    2.27    3.77   2
  -2  20  -4   67.85    6.86   1
  -3  20  -4   -1.48    3.18   1
  -4  20  -4   37.85    6.18   1
   4  20   4   39.56    7.71   3
   5  20   4   10.13    6.15   3
  -5  20  -4    6.07    4.37   1
   5  21  -4    4.69    5.17   3
   4 -21  -4   27.55    6.03   1
  -4  21   4   29.19    7.64   1
   3  21  -4   -0.87    3.24   2
   3 -21  -4    2.52    3.96   1
   2 -21  -4    7.40    4.31   1
   2  21  -4    5.21    3.95   2
   1  21  -4   -0.06    3.25   2
   1 -21  -4   -0.66    3.98   1
   0 -21  -4    1.56    4.16   1
   0  21  -4   -1.48    3.26   2
  -1  21  -4    9.38    4.46   2
  -2  21  -4   17.75    4.74   1
  -2  21  -4   27.68    6.48   2
  -3  21  -4    0.63    3.98   1
  -4  21  -4   48.14    6.85   1
   2 -22  -4   24.12    6.28   1
   2  22  -4   37.71    6.39   2
   1  22  -4    0.56    3.68   2
   1 -22  -4    5.33    4.66   1
   0 -22  -4   75.40    8.47   1
   0  22  -4   82.75    8.83   2
  -1  22  -4    2.90    4.18   2
  -2  22  -4   48.22    8.05   2
  14   0  -5    6.16    5.20   2
  13   0  -5    2.45    4.55   2
  12   0  -5    3.61    4.32   2
  11   0  -5    1.20    3.93   2
  10   0  -5  101.08    8.14   2
   9   0  -5    1.42    3.46   2
   8   0  -5  565.55   15.44   3
   8   0  -5  574.51   16.77   2
  -7   0   5   -0.33    1.25   1
   7   0  -5    1.87    2.61   2
   7   0  -5    1.86    1.79   3
   6   0  -5  127.02    4.72   1
   6   0  -5  135.48    6.98   2
   5   0  -5   -1.05    2.18   2
   5   0  -5   -0.05    1.05   1
   4   0  -5  330.10    7.89   1
   4   0  -5  336.97    9.75   2
   3   0  -5   -2.14    1.32   2
   3   0  -5   -0.32    0.79   1
   2   0  -5   61.33    3.57   2
   2   0  -5   65.85    3.00   1
   1   0  -5   -1.75    0.86   1
   1   0  -5   -0.66    0.91   2
   0   0  -5   39.84    2.30   2
   0   0  -5   43.71    2.80   1
  -1   0  -5    0.20    0.72   2
  -1   0  -5    0.29    1.07   1
  -2   0  -5   81.34    4.28   1
   3   0   5   -4.35    3.35   3
  -3   0  -5   -0.09    1.66   1
  -4   0  -5  478.88   12.26   1
   4   0   5  450.83   16.41   3
   5   0   5    0.49    4.56   3
  -5   0  -5    0.21    1.89   1
  -6   0  -5  282.82    9.73   1
   6   0   5  273.51   14.33   3
   7   0   5    4.12    6.26   3
  -7   0  -5    1.55    2.62   1
   8   0   5  167.54   13.69   3
  -8   0  -5  175.34    8.60   1
   9   0   5   -2.02    6.60   3
  -9   0  -5   -0.79    3.05   1
 -10   0  -5    4.19    3.78   1
  10   0   5   -8.37    6.72   3
  11   0   5    4.91    8.16   3
  12   0   5    6.82    9.28   3
  14   1  -5    7.98    5.63   2
  14  -1  -5    3.63    5.23   2
  13   1  -5    0.96    4.32   2
  13  -1  -5    3.15    4.57   2
  12   1  -5   31.31    6.25   2
  12  -1  -5   24.16    5.88   2
  11  -1  -5   -3.24    3.39   2
  11   1  -5    2.85    4.25   2
  10  -1  -5  140.87    9.30   2
  10   1  -5  159.64    9.93   2
   9   1  -5   98.56    7.61   2
   9  -1  -5  120.56    8.55   2
   8   1  -5   -1.90    3.12   2
   8   1  -5    2.64    2.39   3
   8  -1  -5   -1.00    3.00   2
   7  -1  -5  142.31    6.10   3
  -7   1   5  143.48    5.45   1
   7   1  -5  130.15    7.67   2
   7  -1  -5  145.95    7.74   2
   6   1  -5    4.58    1.30   1
   6  -1  -5    7.31    1.75   1
   6  -1  -5   10.53    3.12   2
   6   1  -5    3.58    2.59   2
   5  -1  -5    0.50    2.23   2
   5   1  -5   -0.38    0.91   1
   5   1  -5    2.67    2.38   2
   5  -1  -5    1.32    1.26   1
   4  -1  -5  123.60    5.85   2
   4  -1  -5  117.31    4.51   1
   4   1  -5  112.38    5.55   2
   4   1  -5  123.05    3.99   1
   3   1  -5    4.12    1.75   2
   3  -1  -5    3.76    1.75   2
   3   1  -5    6.00    1.17   1
   3  -1  -5    5.67    1.31   1
   2   1  -5  567.88   10.93   1
   2  -1  -5  553.66   11.47   1
   2  -1  -5  573.74   12.17   2
   2   1  -5  588.98   12.43   2
   1   1  -5   69.93    3.33   2
   1  -1  -5   68.43    3.30   2
   1   1  -5   75.65    3.27   1
   1  -1  -5   73.03    3.36   1
   0   1  -5  491.60   10.65   1
   0  -1  -5  496.47    9.72   2
   0  -1  -5  489.50   10.71   1
   0   1  -5  496.28   10.42   2
  -1  -1  -5  344.30    7.03   2
  -1   1  -5  328.11    7.79   2
  -1  -1  -5  327.75    8.53   1
  -1   1  -5  323.68    8.52   1
  -2   1  -5   24.55    2.67   1
  -2  -1  -5   29.23    1.81   2
   2   1   5   24.54    4.54   3
  -2  -1  -5   26.40    2.61   1
  -3  -1  -5  631.32   14.36   1
  -3   1  -5  641.34   14.45   1
   3   1   5  647.51   19.14   3
   4   1   5   59.14    6.61   3
  -4  -1  -5   54.95    4.13   1
  -4   1  -5   65.42    4.53   1
  -5  -1  -5   15.81    2.86   1
   5   1   5   18.28    5.82   3
   5  -1   5   19.98    5.79   3
  -5   1  -5   14.86    2.81   1
  -6  -1  -5   21.69    3.56   1
   6   1   5   16.02    6.48   3
  -6   1  -5   25.13    3.61   1
   6  -1   5   13.64    6.45   3
   7   1   5   -4.08    5.72   3
  -7  -1  -5   -2.29    2.49   1
  -7   1  -5   -1.19    2.47   1
   7  -1   5    2.25    6.04   3
  -8   1  -5   35.70    4.72   1
   8   1   5   38.85    8.05   3
  -8  -1  -5   32.05    4.64   1
   8  -1   5   38.81    8.66   3
  -9  -1  -5    5.08    3.42   1
  -9   1  -5    8.94    3.71   1
   9   1   5   24.51    8.27   3
   9  -1   5    5.63    7.53   3
  10   1   5  115.04   12.87   3
 -10   1  -5   74.36    6.53   1
  10  -1   5   97.81   12.01   3
 -10  -1  -5   94.13    7.34   1
 -11   1  -5   -1.08    3.68   1
  11  -1   5    3.63    7.92   3
  11   1   5   -2.24    7.72   3
  12   1   5   23.04   10.50   3
  14  -2  -5   -1.12    4.94   2
  14   2  -5   22.02    6.32   2
  13   2  -5   -1.78    4.19   2
  13  -2  -5    0.65    4.29   2
  12  -2  -5   -2.49    4.05   2
  12   2  -5   -3.82    3.55   2
  11  -2  -5    2.09    3.89   2
  11   2  -5    5.56    4.23   2
  10   2  -5   78.31    7.26   2
  10  -2  -5   73.28    7.52   2
   9   2  -5   51.43    5.99   2
   9   2  -5   42.69    5.00   3
   9  -2  -5   50.61    5.97   2
   8   2  -5  267.92   11.31   2
   8  -2  -5  261.96   11.17   2
   8   2  -5  277.08   10.77   3
  -8   2   5  276.18    8.48   1
   7  -2  -5   42.76    4.68   2
   7  -2  -5   34.71    3.24   1
   7   2  -5   39.78    4.69   2
   6  -2  -5  337.53   11.25   2
   6  -2  -5  348.35    9.39   1
   6   2  -5  338.41   11.06   2
  -6  -2   5  348.34    7.06   1
   5   2  -5   55.54    4.35   2
   5  -2  -5   54.09    4.50   2
   5  -2  -5   54.96    3.54   1
   5   2  -5   58.25    2.56   1
   4   2  -5  195.74    7.30   2
   4  -2  -5  183.11    6.20   1
   4   2  -5  196.65    4.86   1
   4  -2  -5  198.83    7.59   2
   3   2  -5   50.92    2.35   1
   3   2  -5   50.47    3.65   2
   3  -2  -5   53.04    3.82   2
   3  -2  -5   50.81    3.11   1
   2  -2  -5  147.30    5.14   1
   2  -2  -5  165.54    5.61   2
   2   2  -5  168.33    5.67   2
   2   2  -5  161.84    4.51   1
   1  -2  -5    5.03    1.32   1
   1   2  -5    6.75    1.47   2
   1   2  -5    5.59    1.37   1
   1  -2  -5    5.54    1.49   2
   0  -2  -5   31.45    2.15   2
   0   2  -5   29.36    2.33   2
   0   2  -5   31.32    2.51   1
   0  -2  -5   27.64    2.39   1
  -1  -2  -5    1.10    1.22   1
  -1   2  -5    2.63    1.22   1
  -1   2  -5    2.52    1.06   2
   1   2   5    1.58    2.62   3
  -2   2  -5  321.89    8.70   1
  -2  -2  -5  303.43    8.56   1
   2   2   5  291.80   11.86   3
   3   2   5  197.47   10.14   3
  -3   2  -5  205.06    7.10   1
  -3  -2  -5  223.49    7.33   1
  -4  -2  -5  383.10   10.66   1
  -4   2  -5  369.80   10.54   1
   4   2   5  392.49   15.14   3
   5   2   5   50.13    6.69   3
  -5   2  -5   52.90    4.19   1
  -5  -2  -5   48.30    4.18   1
   6   2   5  419.64   17.47   3
  -6   2  -5  419.81   12.35   1
  -6  -2  -5  394.31   11.96   1
   7   2   5   41.25    7.91   3
  -7   2  -5   25.38    3.97   1
  -7  -2  -5   30.48    4.24   1
  -8   2  -5   78.58    6.34   1
   8   2   5   72.57    9.39   3
  -8  -2  -5   79.69    6.17   1
  -9  -2  -5    1.71    3.19   1
   9   2   5   -2.78    6.60   3
  -9   2  -5    1.83    3.26   1
 -10   2  -5    0.13    3.60   1
  10   2   5   11.01    8.03   3
 -11   2  -5   -3.75    3.53   1
  11   2   5  -12.20    7.33   3
  12   2   5   -1.32    8.66   3
  14   3  -5   13.89    6.07   2
  14  -3  -5   10.94    5.72   2
  13   3  -5    1.98    4.31   2
  13  -3  -5    1.49    4.31   2
  12   3  -5   32.27    6.29   2
  12  -3  -5   37.47    6.40   2
  11  -3  -5   -2.90    3.50   2
  11   3  -5    5.50    4.25   2
  10   3  -5   20.43    5.02   2
  10   3  -5   23.05    4.50   3
  10  -3  -5   25.46    5.27   2
   9  -3  -5    1.72    3.31   2
   9   3  -5   -0.55    2.50   3
   9   3  -5    4.11    3.68   2
   8   3  -5   31.56    4.71   2
  -8   3   5   26.13    3.22   1
   8  -3  -5   33.64    5.21   2
   8   3  -5   30.35    4.36   3
   7  -3  -5   47.31    3.91   1
   7  -3  -5   50.37    5.27   2
   7   3  -5   46.47    4.90   2
   6  -3  -5   36.11    4.46   2
   6   3  -5   41.95    4.25   2
   6  -3  -5   40.33    3.39   1
   5  -3  -5  116.64    5.29   1
   5   3  -5  106.61    5.79   2
   5   3  -5  113.57    3.05   1
   5  -3  -5  112.63    6.30   2
   4   3  -5  312.42    9.43   2
   4   3  -5  335.12    6.52   1
   4  -3  -5  312.18    9.58   2
   4  -3  -5  320.77    8.91   1
   3  -3  -5  627.41   14.01   2
   3  -3  -5  626.87   13.56   1
   3   3  -5  641.36   11.18   1
   2  -3  -5    7.97    1.57   1
   2  -3  -5    1.92    1.62   2
   2   3  -5    3.41    1.31   2
   2   3  -5    5.00    1.17   1
   1   3  -5    7.39    1.45   1
   1   3  -5    9.42    1.60   2
   1  -3  -5   11.60    1.79   2
   1  -3  -5    8.88    1.62   1
   0   3   5 1973.96   38.74   3
   0  -3  -5 1976.31   33.15   1
   0   3  -5 2008.12   32.66   1
   0   3  -5 1960.06   33.56   2
  -1  -3  -5 1059.39   19.70   1
   1   3   5 1015.17   24.08   3
  -1   3  -5 1035.75   19.33   1
  -2   3  -5 1320.05   24.47   1
  -2  -3  -5 1393.93   24.82   1
   2   3   5 1345.94   30.29   3
  -3   3  -5  433.30   11.04   1
  -3  -3  -5  435.42   11.06   1
  -4   3  -5  452.39   11.87   1
   4   3   5  440.73   15.66   3
  -4  -3  -5  460.20   11.88   1
  -5   3  -5   -0.04    1.80   1
   5   3   5   -0.06    3.92   3
  -5  -3  -5   -1.29    1.63   1
  -6  -3  -5    2.67    2.24   1
   6   3   5   -3.09    4.90   3
  -6   3  -5    2.16    2.51   1
   7   3   5  114.88   10.44   3
  -7   3  -5  124.26    7.13   1
  -7  -3  -5  102.52    6.50   1
  -8   3  -5    6.66    3.38   1
   8   3   5    3.16    6.31   3
  -8  -3  -5    4.35    3.12   1
  -9  -3  -5   -3.22    2.85   1
   9   3   5   -2.92    5.73   3
  -9   3  -5   -1.89    2.92   1
 -10   3  -5   80.68    7.03   1
  10   3   5   60.48   10.25   3
  11   3   5   -9.03    7.84   3
 -11   3  -5   -0.10    3.77   1
  12   3   5   -2.40    8.90   3
  14  -4  -5    4.63    5.21   2
  14   4  -5    2.52    4.77   2
  13   4  -5   -1.72    4.44   2
  13  -4  -5    1.38    4.54   2
  12  -4  -5    2.35    4.34   2
  12   4  -5   -0.20    4.26   2
  11   4  -5   12.05    5.12   2
  11  -4  -5   17.02    5.22   2
  10   4  -5   19.76    4.85   2
  10  -4  -5    5.79    4.02   2
  10   4  -5   12.04    4.31   3
   9   4  -5    1.18    3.84   2
   9  -4  -5    1.64    3.47   2
   9   4  -5    4.89    3.24   3
  -9   4   5    8.05    2.63   1
   8  -4  -5  124.16    8.41   2
  -8   4   5  147.69    6.69   1
   8   4  -5  134.63    8.13   3
   8   4  -5  138.43    8.10   2
   7   4  -5    9.69    3.27   2
   7  -4  -5   12.88    3.71   2
   7  -4  -5    9.88    2.56   1
   6  -4  -5  428.05   11.57   1
   6   4  -5  428.69   12.53   2
   6  -4  -5  398.77   12.74   2
   5   4  -5   22.99    3.20   2
   5  -4  -5   34.26    3.79   2
   5  -4  -5   29.66    3.15   1
   4   4  -5  648.70   10.89   1
   4  -4  -5  661.04   15.40   2
   4   4  -5  671.93   15.27   2
   4  -4  -5  624.66   14.61   1
   3  -4  -5   59.67    4.08   2
   3   4  -5   62.19    3.86   2
   3   4  -5   61.31    2.42   1
   3  -4  -5   58.40    3.81   1
   2  -4  -5   32.47    2.78   1
   2   4  -5   22.97    2.39   2
   2  -4  -5   31.61    2.77   2
   2   4  -5   29.57    2.16   1
   1  -4  -5    2.65    1.38   1
   1  -4  -5    0.38    1.28   2
  -1   4   5    5.48    2.42   3
   1   4  -5    1.99    1.16   1
   1   4  -5    1.87    1.18   2
   0   4  -5    4.91    1.38   1
   0   4   5    3.65    2.77   3
   0  -4  -5    5.48    1.59   1
   0   4  -5    4.13    1.41   2
  -1   4  -5   -0.16    1.24   1
  -1  -4  -5    0.32    1.31   1
   1   4   5   -0.53    2.48   3
  -2   4  -5  316.22    8.74   1
  -2  -4  -5  322.97    8.91   1
   2   4   5  300.07   11.62   3
   3   4   5   25.86    4.73   3
  -3   4  -5   22.38    2.75   1
  -3  -4  -5   18.64    2.51   1
   4   4   5  383.18   14.26   3
  -4   4  -5  382.87   10.98   1
  -4  -4  -5  382.55   10.58   1
  -5  -4  -5   38.21    3.79   1
  -5   4  -5   42.02    4.03   1
   5   4   5   37.22    5.83   3
  -6   4  -5  624.03   16.02   1
  -6  -4  -5  606.94   15.26   1
   6   4   5  617.13   21.09   3
  -7   4  -5   46.58    4.71   1
   7   4   5   40.49    7.72   3
  -7  -4  -5   57.57    4.95   1
   8   4   5  174.95   13.49   3
  -8  -4  -5  157.22    7.99   1
  -8   4  -5  171.28    8.52   1
  -9  -4  -5   12.98    3.81   1
   9   4   5    8.38    7.04   3
  -9   4  -5    4.89    3.46   1
  10   4   5   42.05   10.07   3
 -10   4  -5   41.65    5.50   1
  11   4   5    1.55    8.13   3
 -11   4  -5   -3.16    3.59   1
 -12   4  -5    1.33    4.58   1
  12   4   5    0.65    9.58   3
  14  -5  -5    9.58    6.06   2
  13   5  -5    1.76    4.83   2
  13  -5  -5    7.89    5.01   2
  12  -5  -5    6.55    4.61   2
  12   5  -5   -1.88    4.44   2
  11   5  -5    2.47    4.01   3
  11  -5  -5    7.98    4.51   2
  11   5  -5    0.77    4.09   2
  10  -5  -5   70.84    7.45   2
  10   5  -5   89.20    7.69   3
  10   5  -5   83.64    7.50   2
   9   5  -5   71.90    6.71   3
  -9   5   5   66.02    5.21   1
   9   5  -5   68.20    6.84   2
   9  -5  -5   76.50    6.95   2
   8   5  -5   31.74    4.78   3
  -8   5   5   38.66    4.09   1
   8   5  -5   25.48    4.45   2
   8  -5  -5   23.25    4.64   2
   7  -5  -5   44.56    4.15   1
   7   5  -5   41.55    4.72   2
   7  -5  -5   46.66    5.34   2
   6  -5  -5   36.47    4.48   2
   6  -5  -5   51.49    4.22   1
   6   5  -5   39.83    4.45   2
   5  -5  -5    3.26    2.59   2
   5  -5  -5    2.24    1.73   1
   5   5  -5    2.08    1.98   2
   4   5  -5 1879.89   33.68   2
   4  -5  -5 1852.49   33.35   1
   4   5  -5 1838.70   28.25   1
   4  -5  -5 1838.80   33.95   2
   3  -5  -5    1.31    1.38   1
   3   5  -5   -0.21    0.85   1
   3  -5  -5   -2.08    1.65   2
   3   5  -5    0.38    1.31   2
   2  -5  -5 1283.42   24.32   1
   2   5  -5 1274.29   24.33   2
   2  -5  -5 1304.59   23.59   2
   2   5  -5 1295.04   21.52   1
  -1   5   5   38.27    3.84   3
   1  -5  -5   36.13    2.64   2
   1   5  -5   41.71    3.29   2
   1  -5  -5   41.76    3.38   1
   1   5  -5   40.11    2.60   1
   0   5   5 4601.35   82.55   3
   0   5  -5 4692.60   71.91   1
   0   5  -5 4709.76   74.76   2
   0  -5  -5 4754.67   73.50   1
   1   5   5  113.48    6.95   3
  -1  -5  -5  105.46    5.05   1
  -1   5  -5  106.36    4.68   1
  -2   5  -5  389.68   10.00   1
  -2  -5  -5  374.52   10.11   1
   2   5   5  374.78   12.69   3
  -3  -5  -5    1.32    1.49   1
   3   5   5    3.33    3.30   3
  -3   5  -5    1.68    1.45   1
  -4  -5  -5  688.29   15.66   1
  -4   5  -5  696.95   16.08   1
   4   5   5  679.28   19.97   3
   5   5   5  107.65    8.49   3
  -5  -5  -5   93.72    5.50   1
  -5   5  -5  101.75    5.76   1
  -6   5  -5   10.79    3.19   1
  -6  -5  -5   10.95    2.96   1
   6   5   5   18.28    5.71   3
  -7  -5  -5   -2.89    2.14   1
  -7   5  -5    2.09    2.68   1
   7   5   5    7.93    5.63   3
  -8   5  -5    2.51    3.32   1
  -8  -5  -5    2.27    2.81   1
   8   5   5    1.10    5.51   3
  -9   5  -5   19.05    4.34   1
   9   5   5   15.74    7.05   3
 -10   5  -5   28.68    5.30   1
  10   5   5   15.25    8.31   3
  11   5   5   -9.80    7.63   3
 -11   5  -5    0.24    3.76   1
 -12   5  -5   30.68    6.07   1
  12   5   5   -2.98    9.27   3
  13  -6  -5    2.87    4.69   2
  13   6  -5    2.29    5.00   2
  12   6  -5   -5.71    4.03   2
  12  -6  -5    8.14    4.49   2
  11  -6  -5    0.82    3.72   2
  11   6  -5    1.03    4.09   3
  11   6  -5    5.73    4.66   2
  10  -6  -5   -1.57    3.30   2
  10   6  -5    0.06    3.95   2
  10   6  -5    2.96    3.55   3
   9   6  -5   48.81    6.00   3
   9  -6  -5   39.42    6.03   2
  -9   6   5   37.50    4.49   1
   9   6  -5   38.67    5.66   2
   8   6  -5   57.13    6.00   2
   8  -6  -5   60.16    6.31   2
   8   6  -5   56.57    5.90   3
  -8   6   5   53.07    4.89   1
   7   6  -5   25.51    4.05   2
   7  -6  -5   27.54    4.68   2
   7  -6  -5   26.23    3.50   1
   6   6  -5  548.48   14.94   2
   6  -6  -5  540.98   14.53   1
   6  -6  -5  565.19   15.85   2
   5  -6  -5    0.14    1.57   1
   5  -6  -5    0.30    2.22   2
   5   6  -5    0.47    1.79   2
   4   6  -5  588.61    9.62   1
   4  -6  -5  573.78   14.54   1
   4   6  -5  581.92   14.33   2
   4  -6  -5  585.45   14.71   2
   3  -6  -5    4.54    1.82   1
   3   6  -5    6.08    1.11   1
   3   6  -5    5.33    1.77   2
   3  -6  -5    4.17    2.04   2
   2   6  -5  168.61    6.56   2
   2  -6  -5  169.12    6.76   1
   2   6  -5  172.28    4.89   1
   2  -6  -5  176.12    6.34   2
  -2   6   5  174.53    6.61   3
  -1   6   5   -2.08    2.31   3
   1   6  -5    0.45    1.08   1
   1  -6  -5    0.57    1.45   1
   1  -6  -5   -0.84    1.25   2
   1   6  -5    0.95    1.33   2
   0   6   5   27.70    3.59   3
   0   6  -5   17.99    2.06   1
   0  -6  -5   17.74    1.65   2
   0   6  -5   17.27    2.45   2
   0  -6  -5   25.26    2.87   1
  -1  -6  -5    7.41    1.98   1
  -1   6  -5   10.97    1.93   1
   1   6   5   10.37    3.20   3
  -2   6  -5  269.94    8.20   1
  -2  -6  -5  272.21    8.47   1
   2   6   5  273.43   10.56   3
  -3   6  -5    9.19    2.16   1
   3   6   5    4.41    3.37   3
  -3  -6  -5   12.33    2.44   1
  -4  -6  -5  586.17   13.88   1
  -4   6  -5  541.86   13.98   1
   4   6   5  522.87   17.47   3
  -5   6  -5   27.48    3.60   1
  -5  -6  -5   23.37    3.29   1
   5   6   5   29.84    5.67   3
   6   6   5  318.89   14.73   3
  -6   6  -5  338.63   11.24   1
  -6  -6  -5  326.55   10.44   1
  -7  -6  -5   -1.55    2.25   1
  -7   6  -5    2.55    2.76   1
   7   6   5    0.52    5.28   3
  -8   6  -5  123.20    7.77   1
   8   6   5  134.17   11.21   3
  -8  -6  -5  129.60    7.10   1
   9   6   5    6.66    6.83   3
  -9   6  -5    0.99    3.11   1
  10   6   5   40.63    9.09   3
 -10   6  -5   27.93    5.39   1
 -11   6  -5    4.88    4.20   1
  11   6   5   -2.98    8.01   3
  12   6   5    2.12    8.49   3
 -12   6  -5    2.11    4.42   1
  13   7  -5    2.36    4.60   2
  13  -7  -5    0.42    4.28   2
  12  -7  -5   27.02    6.23   2
  12   7  -5   15.56    5.53   3
  12   7  -5   18.48    5.50   2
  11   7  -5   -0.96    3.78   3
  11  -7  -5   -0.17    3.98   2
  11   7  -5    5.47    4.44   2
 -10   7   5   23.40    4.32   1
  10   7  -5   32.54    5.78   3
  10   7  -5   33.35    5.52   2
  10  -7  -5   37.52    6.38   2
   9   7  -5    0.29    3.09   3
   9  -7  -5    1.41    3.69   2
   9   7  -5    4.06    3.63   2
  -9   7   5    0.86    2.51   1
   8  -7  -5   11.59    2.97   1
   8  -7  -5    8.48    3.84   2
   8   7  -5   11.13    3.90   3
  -8   7   5   15.59    3.47   1
   8   7  -5    3.26    3.64   2
   7  -7  -5    3.86    2.32   1
   7   7  -5    2.71    2.69   2
   7  -7  -5    7.51    3.31   2
   6  -7  -5    5.08    3.32   2
   6   7  -5    2.01    2.33   2
   6  -7  -5    3.03    2.03   1
   5  -7  -5   15.67    2.93   1
   5  -7  -5   20.80    3.73   2
   5   7  -5   12.52    2.91   2
   4  -7  -5  409.03   12.04   1
   4  -7  -5  410.02   12.13   2
   4   7  -5  403.78   11.48   2
   3   7  -5    2.78    1.66   2
   3  -7  -5    5.73    2.04   1
   3  -7  -5    6.01    2.28   2
   3   7  -5    2.79    1.03   1
   2  -7  -5  674.40   15.78   1
   2   7  -5  626.82   15.28   2
  -2   7   5  632.55   14.95   3
   2  -7  -5  673.48   14.65   2
   2   7  -5  646.51   12.46   1
   1  -7  -5   77.56    4.70   1
  -1   7   5   96.06    5.64   3
   1  -7  -5   88.25    4.08   2
   1   7  -5   78.29    3.71   1
   1   7  -5   81.39    4.90   2
   0  -7  -5  177.14    6.94   1
   0   7  -5  179.62    5.92   1
   0   7   5  165.56    7.70   3
   0   7  -5  174.88    7.07   2
  -1  -7  -5   27.87    3.10   1
   1   7   5   19.85    3.55   3
  -1   7  -5   18.65    2.36   1
  -2  -7  -5  774.81   16.97   1
   2   7   5  748.02   19.54   3
  -2   7  -5  746.17   16.30   1
   3   7   5    7.03    3.22   3
  -3  -7  -5    2.55    1.74   1
  -3   7  -5    2.24    1.83   1
  -4   7  -5   70.75    5.00   1
  -4  -7  -5   78.95    5.03   1
   4   7   5   72.48    6.90   3
  -5  -7  -5   11.28    2.68   1
  -5   7  -5   13.35    2.84   1
   5   7   5   15.46    4.67   3
   6   7   5  202.20   11.84   3
  -6   7  -5  183.61    8.41   1
  -6  -7  -5  184.48    7.82   1
  -7   7  -5   18.80    3.79   1
  -7  -7  -5   20.29    3.51   1
   7   7   5   19.98    6.39   3
   8   7   5   15.48    6.84   3
  -8   7  -5    7.57    3.49   1
  -9   7  -5   -0.01    3.18   1
   9   7   5   -1.14    5.95   3
  10   7   5   37.89    9.72   3
 -10   7  -5   32.79    5.65   1
 -11   7  -5   -0.73    3.62   1
  11   7   5   -7.32    7.44   3
 -12   7  -5    8.86    5.31   1
  12   7   5   -1.40    9.07   3
  13  -8  -5    6.58    4.78   2
  12  -8  -5    6.37    4.85   2
  12   8  -5   -0.22    4.91   2
  12   8  -5   -7.42    4.04   3
  11   8  -5    1.11    4.23   3
  11   8  -5   -1.01    4.28   2
  11  -8  -5    2.13    4.00   2
  10   8  -5   -1.96    3.85   2
  10  -8  -5   -0.97    3.35   2
 -10   8   5    2.17    3.28   1
  10   8  -5    3.76    3.81   3
  -9   8   5    5.60    3.20   1
   9   8  -5    2.11    3.42   3
   9  -8  -5   -0.05    3.39   2
   9   8  -5    0.53    3.76   2
   8   8  -5  155.68    8.65   2
   8  -8  -5  153.36    9.75   2
   8  -8  -5  166.52    8.50   1
  -8   8   5  152.21    8.21   1
   7   8  -5   37.79    4.59   2
   7  -8  -5   36.98    5.21   2
   7  -8  -5   37.84    4.39   1
   6  -8  -5  404.38   13.83   2
   6   8  -5  396.42   12.57   2
   6  -8  -5  423.54   13.19   1
   5   8  -5   10.90    2.82   2
   5  -8  -5   13.17    2.94   1
   5  -8  -5   10.25    3.16   2
   4   8  -5  662.15   16.19   2
   4  -8  -5  658.46   16.85   1
   4  -8  -5  656.07   16.83   2
   3  -8  -5   14.65    2.81   2
   3   8  -5   17.71    1.70   1
   3  -8  -5   18.69    3.05   1
   3   8  -5   20.75    2.86   2
   2  -8  -5   75.15    4.96   1
  -2   8   5   71.43    5.00   3
   2   8  -5   81.02    3.49   1
   2   8  -5   86.02    5.09   2
   2  -8  -5   83.16    4.64   2
  -1   8   5    4.95    2.45   3
   1   8  -5    8.25    1.64   1
   1  -8  -5    7.81    1.75   2
   1  -8  -5    5.64    2.05   1
   1   8  -5    3.01    1.77   2
   0   8  -5   -0.31    1.22   1
   0   8  -5   -0.47    1.52   2
   0  -8  -5   -1.43    1.40   1
   0   8   5    2.01    2.44   3
  -1   8  -5    0.05    1.37   1
   1   8   5   -1.15    2.26   3
  -1  -8  -5   -1.49    1.43   1
  -2  -8  -5  271.67    9.16   1
   2   8   5  263.89   10.51   3
  -2   8  -5  271.88    8.74   1
  -3  -8  -5   32.69    3.52   1
  -3   8  -5   30.29    3.31   1
   3   8   5   30.65    4.70   3
  -4  -8  -5  342.55   10.73   1
  -4   8  -5  361.23   11.11   1
   4   8   5  341.80   13.80   3
  -5   8  -5   81.35    5.86   1
   5   8   5   89.74    8.04   3
  -5  -8  -5   98.42    5.76   1
   6   8   5   58.67    7.78   3
  -6   8  -5   70.61    5.66   1
  -6  -8  -5   68.64    5.14   1
   7   8   5   43.49    7.46   3
  -7   8  -5   43.78    5.17   1
  -7  -8  -5   35.65    4.32   1
   8   8   5   19.23    7.18   3
  -8   8  -5   22.62    4.38   1
  -9   8  -5   -1.93    3.42   1
   9   8   5   -1.24    5.95   3
 -10   8  -5    9.07    4.39   1
  10   8   5   -6.14    7.02   3
 -11   8  -5    8.90    4.81   1
  11   8   5    3.74    8.54   3
 -12   8  -5   -6.19    4.38   1
  13  -9  -5    4.24    4.96   2
  13   9  -5   -3.03    5.09   3
  12  -9  -5   19.22    6.08   2
  12   9  -5   -1.33    4.25   3
  12   9  -5    9.03    5.43   2
  11  -9  -5   10.66    5.00   2
  11   9  -5    5.87    4.98   2
  11   9  -5    8.82    4.96   3
  10   9  -5   42.59    6.52   3
 -10   9   5   38.23    5.52   1
  10   9  -5   33.41    6.10   2
  10  -9  -5   36.77    6.40   2
  -9   9   5   -1.81    2.68   1
   9   9  -5    1.68    3.67   3
   9   9  -5   -3.83    3.52   2
   9  -9  -5   -1.61    3.63   2
   8  -9  -5    5.12    3.90   2
   8  -9  -5    1.03    2.72   1
  -8   9   5    4.99    3.17   1
   8   9  -5    2.94    3.26   2
   7  -9  -5   78.79    6.27   1
   7   9  -5   71.86    6.19   2
   7  -9  -5   85.05    7.14   2
   6  -9  -5   87.73    6.43   1
   6  -9  -5   87.53    6.78   2
   6   9  -5   84.95    6.12   2
   5   9  -5  205.84    8.61   2
   5  -9  -5  213.12    9.57   2
   5  -9  -5  205.19    8.96   1
   4   9  -5  548.05   14.69   2
   4  -9  -5  561.18   15.46   2
   4  -9  -5  534.80   15.27   1
   3  -9  -5    2.36    1.95   1
   3  -9  -5   -2.43    1.64   2
   3   9  -5    1.81    1.63   2
   3   9  -5    2.02    1.09   1
   2   9  -5  975.49   21.25   2
  -2   9   5  951.32   20.12   3
   2  -9  -5  931.98   21.32   1
   2  -9  -5  956.96   20.04   2
   2   9  -5  936.06   17.35   1
  -1   9   5  134.47    6.75   3
   1   9  -5  150.48    5.41   1
   1  -9  -5  138.66    6.91   1
   1   9  -5  141.85    6.85   2
   0   9  -5 2406.17   43.36   2
   0   9  -5 2373.01   39.59   1
   0  -9  -5 2375.67   42.24   1
   0   9   5 2355.23   45.28   3
  -1  -9  -5    3.13    1.99   1
   1   9   5    3.08    2.63   3
  -1   9  -5    5.19    1.87   1
  -2  -9  -5  476.01   13.42   1
  -2   9  -5  509.86   12.84   1
   2   9   5  495.62   15.41   3
   3   9   5   39.92    5.03   3
  -3  -9  -5   42.55    4.12   1
  -3   9  -5   40.14    3.86   1
   4   9   5  461.82   16.58   3
  -4   9  -5  479.90   13.61   1
  -4  -9  -5  490.17   13.52   1
   5   9   5   29.40    5.40   3
  -5   9  -5   33.43    4.10   1
  -5  -9  -5   32.87    3.99   1
  -6  -9  -5   -0.59    2.16   1
   6   9   5    5.23    4.79   3
  -6   9  -5    1.36    2.84   1
  -7   9  -5   11.23    3.55   1
   7   9   5   17.78    6.23   3
  -8   9  -5    5.11    3.45   1
   8   9   5   11.13    6.15   3
   9   9   5    7.77    6.94   3
  -9   9  -5    0.12    3.50   1
 -10   9  -5    3.21    4.40   1
  10   9   5   -9.62    6.86   3
 -11   9  -5   -1.04    4.30   1
  11   9   5   -5.33    8.48   3
  12  10  -5    5.15    5.42   3
  12 -10  -5   -1.96    4.36   2
  11  10  -5    2.00    4.76   3
  11  10  -5   -0.82    4.39   2
 -11  10   5    2.70    3.90   1
  11 -10  -5    3.42    4.40   2
  10  10  -5   16.28    5.16   2
 -10  10   5   26.05    5.15   1
  10  10  -5   13.39    5.22   3
  10 -10  -5   17.73    5.52   2
   9  10  -5   -1.63    3.38   3
  -9  10   5    1.08    3.39   1
   9 -10  -5   -1.34    3.70   2
   9  10  -5    0.46    3.47   2
  -8  10   5   40.82    5.31   1
   8 -10  -5   41.95    5.98   2
   8 -10  -5   41.21    5.24   1
   8  10  -5   33.70    5.82   3
   8  10  -5   51.71    5.81   2
   7 -10  -5    1.48    3.08   2
   7 -10  -5   -1.94    2.36   1
   7  10  -5   -0.52    2.53   2
   6 -10  -5  149.89    8.16   1
   6  10  -5  135.82    7.55   2
   6 -10  -5  152.35    9.01   2
   5  10  -5    2.86    2.14   2
   5 -10  -5    0.19    2.14   1
   5 -10  -5    0.39    2.32   2
   4 -10  -5  266.69   10.47   1
   4  10  -5  274.08    9.92   2
   4 -10  -5  274.54   10.56   2
   3 -10  -5    3.94    2.30   1
   3  10  -5    2.96    1.96   2
   3 -10  -5    3.15    2.20   2
   2 -10  -5  120.87    6.73   1
   2  10  -5  126.07    6.57   2
   2  10  -5  129.72    4.81   1
  -1  10   5   -1.43    2.21   3
   1 -10  -5   -1.73    1.78   1
   1  10  -5    0.80    1.43   1
   1  10  -5    0.88    1.72   2
   0  10  -5   34.55    3.93   2
   0 -10  -5   32.04    3.92   1
   0  10  -5   37.82    3.28   1
   0  10   5   33.27    3.92   3
   1  10   5   65.75    5.49   3
  -1 -10  -5   60.09    4.79   1
  -1  10  -5   62.23    4.36   1
  -2 -10  -5  298.37   10.31   1
  -2  10  -5  301.58    9.82   1
   2  10   5  308.97   11.90   3
   3  10   5   99.75    7.35   3
  -3 -10  -5  109.84    6.26   1
  -3  10  -5  119.03    6.37   1
   4  10   5  178.64   10.43   3
  -4 -10  -5  184.71    8.19   1
  -4  10  -5  172.11    7.92   1
  -5 -10  -5   29.76    3.96   1
   5  10   5   33.67    5.98   3
  -5  10  -5   29.42    4.15   1
   6  10   5  120.23    9.71   3
  -6  10  -5  108.93    7.24   1
  -6 -10  -5   96.00    6.34   1
  -7  10  -5    0.52    2.99   1
   7  10   5    2.07    4.64   3
   8  10   5    3.82    6.24   3
  -8  10  -5   -0.41    3.21   1
  -9  10  -5   -1.56    3.57   1
   9  10   5   -0.24    6.07   3
  10  10   5    2.71    7.29   3
 -10  10  -5    4.47    4.17   1
  11  10   5    6.53    8.97   3
 -11  10  -5    1.08    4.60   1
  12  11  -5    9.79    6.19   3
  12 -11  -5   23.77    6.80   2
  11  11  -5    1.47    4.72   3
  11  11  -5   -7.13    4.46   2
 -11  11   5    5.92    4.24   1
  11 -11  -5    3.92    5.21   2
  10  11  -5   32.50    5.98   2
  10 -11  -5   23.59    5.84   2
  10  11  -5   28.87    6.53   3
 -10  11   5   44.43    5.96   1
  -9  11   5   -0.15    3.19   1
   9  11  -5   -1.08    3.74   2
   9 -11  -5    4.36    4.16   2
   9  11  -5    1.72    4.15   3
   8 -11  -5   59.80    7.15   2
   8 -11  -5   55.08    5.87   1
   8  11  -5   46.89    6.77   3
   8  11  -5   55.32    5.79   2
   7 -11  -5   72.00    6.49   1
   7  11  -5   61.78    5.92   2
   7 -11  -5   54.46    6.38   2
   6 -11  -5  136.51    8.05   1
   6 -11  -5  155.32    9.09   2
   6  11  -5  134.41    7.65   2
   5 -11  -5   48.12    5.15   1
   5  11  -5   63.66    5.14   2
   5 -11  -5   49.72    5.45   2
   4 -11  -5   25.90    4.08   2
   4  11  -5   20.24    3.24   2
   4 -11  -5   25.25    4.03   1
   3  11  -5   31.37    3.91   2
   3 -11  -5   27.23    3.94   1
   2  11  -5  101.00    4.51   1
   2 -11  -5   91.55    6.19   1
   2  11  -5  103.35    6.28   2
   1 -11  -5  188.85    8.68   1
   1  11  -5  175.80    8.12   2
  -1  11   5  174.37    7.55   3
   1  11  -5  176.35    6.47   1
   0  11   5  528.73   14.91   3
   0  11  -5  534.81   13.03   1
   0 -11  -5  514.67   14.95   1
   0  11  -5  531.39   15.42   2
  -1 -11  -5  367.28   11.89   1
  -1  11  -5  341.37   10.40   1
   1  11   5  344.34   12.32   3
  -2  11  -5  176.69    7.57   1
   2  11   5  167.68    9.11   3
  -2 -11  -5  169.14    7.92   1
  -3 -11  -5    6.36    2.62   1
   3  11   5    4.69    3.54   3
  -3  11  -5   13.91    2.87   1
   4  11   5    2.71    3.54   3
  -4  11  -5    3.46    2.61   1
  -4 -11  -5    2.55    2.23   1
   5  11   5  107.51    9.06   3
  -5  11  -5  103.15    6.90   1
  -5 -11  -5   96.10    6.34   1
   6  11   5   28.93    6.08   3
  -6 -11  -5   21.48    3.99   1
  -6  11  -5   24.17    4.32   1
  -7  11  -5    5.36    3.47   1
   7  11   5   16.79    5.84   3
   8  11   5   47.47    8.87   3
  -8  11  -5   38.54    5.59   1
   9  11   5   -5.90    6.42   3
  -9  11  -5    7.40    4.16   1
 -10  11  -5   58.70    7.36   1
  10  11   5   44.98   10.53   3
  11  11   5   -2.39    9.10   3
  12  12  -5    2.27    5.64   3
  12 -12  -5    2.47    5.05   2
  11 -12  -5   13.92    5.87   2
 -11  12   5    5.15    4.51   1
  11  12  -5    2.13    5.15   3
  10  12  -5   38.04    7.13   3
 -10  12   5   31.65    5.63   1
  10 -12  -5   35.00    6.70   2
  10  12  -5   25.71    5.79   2
   9  12  -5    1.48    3.77   3
   9  12  -5    1.42    3.66   2
   9 -12  -5   -0.09    4.17   2
  -9  12   5    4.05    3.70   1
  -8  12   5   49.95    5.93   1
   8  12  -5   53.57    7.36   3
   8 -12  -5   48.16    6.83   2
   8  12  -5   43.93    5.72   2
   7 -12  -5   16.80    3.99   1
   7 -12  -5   11.19    4.26   2
   7  12  -5    9.86    3.55   2
   6 -12  -5   80.48    7.24   2
   6 -12  -5   74.58    6.65   1
   6  12  -5   74.96    5.90   2
   5 -12  -5   41.57    5.04   1
   5  12  -5   37.67    4.57   2
   4 -12  -5   84.02    6.50   1
   4  12  -5  107.80    6.47   2
   3 -12  -5   37.49    4.58   1
   3  12  -5   33.60    4.13   2
   2  12  -5   64.60    5.26   2
   2  12  -5   67.89    4.00   1
   2 -12  -5   51.57    5.16   1
   1  12  -5    9.58    2.82   2
   1  12  -5    6.85    2.12   1
   1 -12  -5    7.31    2.81   1
   0  12  -5    4.76    2.53   2
   0  12  -5    5.18    2.11   1
   0 -12  -5    1.88    2.22   1
   0  12   5    1.43    2.69   3
  -1 -12  -5    3.41    2.37   1
  -1  12  -5    5.87    2.13   1
   1  12   5    5.88    3.09   3
  -2  12  -5  122.96    6.62   1
  -2 -12  -5  124.05    7.10   1
   2  12   5  102.27    7.57   3
   3  12   5   14.02    4.39   3
  -3  12  -5    3.70    2.65   1
  -3 -12  -5    4.96    2.72   1
  -4 -12  -5  116.05    7.04   1
  -4  12  -5  121.72    7.30   1
   4  12   5  119.90    9.23   3
  -5 -12  -5   -0.16    2.52   1
  -5  12  -5    1.25    2.79   1
   5  12   5    5.75    4.59   3
   6  12   5  122.24   10.41   3
  -6  12  -5  106.33    7.46   1
   7  12   5   -9.13    4.37   3
  -7  12  -5   -0.33    2.95   1
  -8  12  -5   23.71    5.13   1
   8  12   5   20.28    6.83   3
  -9  12  -5    2.20    3.93   1
   9  12   5    0.13    6.69   3
  10  12   5   -3.04    7.90   3
 -10  12  -5   -4.67    4.27   1
 -11  13   5   -0.36    4.18   1
  11  13  -5    6.54    5.79   3
  11 -13  -5    3.85    4.82   2
  10 -13  -5   25.46    6.44   2
  10  13  -5   21.63    6.59   3
 -10  13   5   21.40    5.18   1
   9  13  -5   10.55    5.33   3
   9 -13  -5    7.92    4.74   2
  -9  13   5   12.94    4.69   1
   9  13  -5   -1.88    3.99   2
   8  13  -5   15.36    4.59   2
  -8  13   5    5.31    3.96   1
   8 -13  -5   14.54    4.92   2
   8  13  -5   13.84    5.15   3
   7  13  -5   -1.64    2.93   2
   7 -13  -5    0.53    2.83   1
   6  13  -5   -2.98    2.40   2
   6 -13  -5   -3.73    2.47   1
   5 -13  -5    1.13    2.50   1
   5  13  -5    1.66    2.41   2
   4 -13  -5   66.80    6.08   1
   4  13  -5   72.71    5.81   2
   3 -13  -5    4.30    2.82   1
   3  13  -5   -1.52    1.84   2
   2  13  -5  145.22    7.80   2
   2 -13  -5  154.44    8.37   1
   1 -13  -5    3.82    2.71   1
   1  13  -5    8.09    2.21   1
   1  13  -5    5.63    2.57   2
   0  13  -5  485.24   12.93   1
   0 -13  -5  482.46   15.16   1
   0  13   5  500.51   15.05   3
   0  13  -5  483.63   15.50   2
  -1 -13  -5   42.19    4.89   1
  -1  13  -5   51.57    4.50   1
   1  13   5   45.02    5.20   3
   2  13   5   57.98    6.05   3
  -2 -13  -5   68.18    5.80   1
  -2  13  -5   66.95    5.35   1
  -3  13  -5   21.60    3.64   1
  -3 -13  -5   21.22    3.78   1
   3  13   5   15.58    4.33   3
   4  13   5  135.18    9.95   3
  -4  13  -5  125.62    7.75   1
  -4 -13  -5  143.83    7.97   1
  -5  13  -5   20.03    4.10   1
  -5 -13  -5   17.65    3.84   1
   5  13   5   18.91    5.56   3
   6  13   5    1.33    4.39   3
  -6  13  -5    1.70    3.28   1
   7  13   5   -1.82    4.58   3
  -7  13  -5    5.80    3.49   1
   8  13   5   17.43    7.53   3
  -8  13  -5    8.72    4.29   1
  -9  13  -5    1.75    4.46   1
   9  13   5   -1.25    6.71   3
  10  13   5   23.32    9.97   3
  11  14  -5   -1.53    5.15   3
 -11  14   5    5.94    4.86   1
 -10  14   5   10.53    5.14   1
  10  14  -5   13.79    5.83   3
   9  14  -5   -0.62    4.23   3
   9  14  -5   -3.93    4.06   2
  -9  14   5   -1.60    3.46   1
   8  14  -5  139.11    9.13   2
   8  14  -5  136.11   11.32   3
  -8  14   5  156.67   10.00   1
   7 -14  -5    3.06    3.05   1
   7  14  -5   -2.00    2.99   2
   6  14  -5  172.98    9.11   2
   6 -14  -5  182.62   10.32   1
   5 -14  -5   -2.09    2.56   1
   5  14  -5    1.33    2.44   2
   4 -14  -5  143.05    8.82   1
   4  14  -5  154.55    8.36   2
   3 -14  -5   24.04    4.41   1
   3  14  -5   16.61    3.65   2
   2  14  -5   35.11    4.46   2
   2 -14  -5   39.93    5.13   1
   1  14  -5   17.25    2.96   1
   1 -14  -5   20.50    4.00   1
   1  14  -5   19.23    3.86   2
   0  14  -5    1.22    2.40   2
   0  14  -5    1.01    2.14   1
   0 -14  -5   -0.82    2.34   1
   1  14   5   16.76    4.04   3
  -1 -14  -5   24.39    4.28   1
  -1  14  -5   23.60    3.52   1
  -2 -14  -5   43.46    5.05   1
  -2  14  -5   38.90    4.51   1
   2  14   5   38.81    5.52   3
  -3 -14  -5    1.22    2.67   1
   3  14   5   -2.86    2.90   3
  -3  14  -5    1.75    2.64   1
  -4  14  -5  142.38    8.40   1
  -4 -14  -5  131.15    7.99   1
   4  14   5  142.69   10.45   3
  -5  14  -5   -1.65    2.86   1
   5  14   5   -1.17    4.20   3
   6  14   5  186.81   12.82   3
   7  14   5    9.74    6.03   3
  -7  14  -5    7.23    3.86   1
   8  14   5   95.18   11.64   3
   9  14   5   -0.95    7.24   3
  -9  14  -5    3.19    4.24   1
 -10  15   5   40.32    6.88   1
  10  15  -5   46.73    8.16   3
  -9  15   5    0.19    3.96   1
   9  15  -5   -1.94    4.32   3
   8  15  -5    4.29    4.82   3
  -8  15   5   -5.32    3.19   1
   8  15  -5    5.05    3.94   2
   7 -15  -5    2.54    3.50   1
   7  15  -5   -1.34    3.12   2
   6 -15  -5   45.92    5.93   1
   6  15  -5   45.49    5.50   2
   5 -15  -5   30.39    5.01   1
   5  15  -5   30.26    4.49   2
   4 -15  -5  159.42    9.53   1
   4  15  -5  152.77    8.64   2
   3  15  -5    0.22    2.48   2
   3 -15  -5    4.21    2.99   1
   2 -15  -5  283.74   12.24   1
   2  15  -5  280.66   11.73   2
   1 -15  -5   36.77    5.17   1
   1  15  -5   24.73    4.27   2
   0 -15  -5   86.07    6.87   1
   0  15  -5   83.38    6.81   2
   0  15  -5   73.33    5.23   1
  -1 -15  -5   34.96    5.00   1
   1  15   5   40.02    5.30   3
  -1  15  -5   35.97    4.25   1
   2  15   5   89.50    7.53   3
  -2 -15  -5   66.66    6.33   1
  -2  15  -5   81.60    6.20   1
  -3  15  -5   57.80    5.46   1
  -3 -15  -5   78.17    6.64   1
   3  15   5   65.68    7.25   3
  -4  15  -5   47.35    5.76   1
  -4 -15  -5   55.50    5.88   1
   4  15   5   50.29    7.04   3
  -5  15  -5   16.82    4.52   1
   5  15   5   20.45    6.08   3
  -6  15  -5   15.33    4.39   1
   6  15   5    0.72    5.07   3
  -7  15  -5    5.01    4.04   1
   7  15   5   -2.06    5.56   3
  -8  15  -5   -0.66    3.90   1
   8  15   5   -0.49    6.00   3
   9  15   5    5.07    7.66   3
  10  16  -5    3.92    5.92   3
   9  16  -5    0.47    5.19   3
  -9  16   5   -1.71    4.55   1
   8  16  -5   68.39    9.21   3
  -8  16   5   57.63    7.76   1
   8  16  -5   54.54    6.73   2
   7 -16  -5    1.85    3.61   1
  -7  16   5    4.14    4.17   1
   7  16  -5    1.80    3.42   2
   6 -16  -5  132.66    9.29   1
   6  16  -5  127.32    8.32   2
   5 -16  -5    0.57    3.19   1
   5  16  -5   -0.12    2.67   2
   4 -16  -5  112.23    8.60   1
   4  16  -5  105.89    7.52   2
   3 -16  -5   -0.75    3.01   1
   3  16  -5   -1.01    2.45   2
   2 -16  -5   24.87    4.79   1
   2  16  -5   29.87    4.56   2
   1 -16  -5    2.15    2.80   1
   1  16  -5    2.33    2.73   2
   0  16  -5    1.76    2.69   2
   0  16  -5   -0.99    2.21   1
   0 -16  -5    0.60    2.75   1
  -1 -16  -5   -5.22    2.23   1
  -1  16  -5   -2.61    2.41   2
  -1  16  -5    2.95    2.67   1
  -2 -16  -5   78.75    7.02   1
   2  16   5   94.99    7.96   3
  -2  16  -5   96.81    6.73   1
  -3 -16  -5   -0.94    2.94   1
   3  16   5   -4.43    3.27   3
  -3  16  -5   -1.19    2.70   1
   4  16   5  192.29   12.31   3
  -4  16  -5  171.92    9.49   1
  -5  16  -5    1.10    3.17   1
   5  16   5   -0.06    4.78   3
   6  16   5  154.54   12.34   3
  -6  16  -5  111.19    8.84   1
  -7  16  -5    0.06    3.87   1
   7  16   5   -3.96    5.22   3
   8  16   5   64.18   10.88   3
   9  17  -5    2.93    5.17   3
   8  17  -5    6.95    4.89   3
  -8  17   5   -5.93    4.38   1
   7  17  -5   32.37    5.58   2
   7  17  -5   29.24    6.78   3
  -7  17   5   43.76    7.05   1
   6  17  -5   -1.00    3.07   2
   6 -17  -5   -1.39    3.16   1
   5 -17  -5   16.96    4.84   1
   5  17  -5   21.25    4.34   2
   4  17  -5   61.55    6.22   2
   4 -17  -5   53.02    6.71   1
   3 -17  -5   21.84    4.74   1
   3  17  -5   19.94    4.26   2
   2  17  -5   35.71    5.06   2
   2 -17  -5   49.74    6.23   1
   1  17  -5   96.56    7.73   2
   1 -17  -5   80.53    7.48   1
   0  17  -5  205.51   10.84   2
   0 -17  -5  188.59   10.29   1
  -1  17  -5    4.61    3.28   2
  -1  17  -5   -1.19    2.58   1
  -1 -17  -5    1.85    3.49   1
  -2  17  -5   82.56    6.62   1
  -2 -17  -5   85.11    7.49   1
   2  17   5   77.46    7.84   3
  -3  17  -5    5.49    3.42   1
  -3 -17  -5   10.51    4.06   1
   3  17   5   -2.51    3.72   3
   4  17   5   21.81    6.03   3
  -4  17  -5   25.00    4.81   1
  -5  17  -5    6.51    3.98   1
   5  17   5    1.62    5.18   3
   6  17   5   -3.06    5.12   3
  -6  17  -5    4.50    3.97   1
   7  17   5    7.74    6.56   3
  -7  17  -5   14.43    5.31   1
   8  17   5   -0.13    7.07   3
   8  18  -5   25.41    7.14   3
  -7  18   5   15.36    5.57   1
   7  18  -5   15.53    5.92   3
   6  18  -5   57.33    6.47   2
   6 -18  -5   44.72    6.75   1
   5  18  -5   15.93    4.27   2
   5 -18  -5    3.21    3.90   1
   4  18  -5   46.50    5.92   2
   4 -18  -5   46.23    6.39   1
   3 -18  -5   -2.46    3.19   1
   3  18  -5   -0.38    2.91   2
   2  18  -5    6.25    3.32   2
   2 -18  -5    9.42    4.19   1
   1  18  -5    2.57    3.01   2
   1 -18  -5   -0.84    3.02   1
   0 -18  -5    6.17    3.75   1
   0  18  -5   11.06    3.80   2
  -1  18  -5    4.57    3.22   1
  -1  18  -5    6.76    3.62   2
  -1 -18  -5    9.75    4.20   1
  -2  18  -5   24.27    4.48   1
  -2 -18  -5   33.28    5.54   1
  -3  18  -5    2.26    3.43   1
   3  18   5   -1.59    4.03   3
   4  18   5   50.65    7.83   3
  -4  18  -5   64.21    6.76   1
   5  18   5    1.16    5.28   3
  -5  18  -5    3.77    4.12   1
   6  18   5   71.57    9.53   3
   7  18   5   13.12    7.02   3
   7  19  -5    0.77    4.99   3
  -6  19   5    9.58    5.35   1
   6 -19  -5    7.51    4.70   1
   5  19  -5    5.09    3.84   2
   5 -19  -5   20.15    5.36   1
   4  19  -5   60.66    6.74   2
   4 -19  -5   61.16    7.26   1
   3 -19  -5    2.46    3.68   1
   3  19  -5    3.97    3.63   2
   2  19  -5  129.10    9.22   2
   2 -19  -5  151.93   10.31   1
   1 -19  -5   -1.79    3.42   1
   1  19  -5    1.47    3.15   2
   0  19  -5  261.98   13.19   2
   0 -19  -5  236.51   12.41   1
  -1  19  -5    0.52    3.37   2
  -1 -19  -5    0.60    3.79   1
  -2  19  -5  112.11    7.96   1
  -2  19  -5  114.67    9.74   2
  -2 -19  -5  106.14    8.82   1
  -3  19  -5    3.85    3.83   1
  -4  19  -5   31.29    5.93   1
   4  19   5   28.69    6.89   3
  -5  19  -5    3.02    4.18   1
   5  19   5    3.20    5.89   3
   6  19   5   11.27    6.75   3
   6  20  -5   28.00    7.64   3
   5  20  -5   -1.96    3.52   2
   5 -20  -5    0.24    4.29   1
   4 -20  -5   14.66    5.27   1
   4  20  -5   22.45    4.99   2
   3  20  -5   -0.52    3.22   2
   3 -20  -5   -5.93    3.35   1
   2  20  -5   18.39    4.83   2
   2 -20  -5   25.58    5.79   1
   1 -20  -5    6.76    4.43   1
   1  20  -5    4.19    3.86   2
   0  20  -5   -0.56    3.26   2
   0 -20  -5    5.54    4.18   1
  -1  20  -5   23.02    5.53   2
  -1 -20  -5   16.02    5.00   1
  -2  20  -5   23.74    6.08   2
  -2  20  -5   13.74    4.48   1
  -3  20  -5    0.28    3.81   1
   4  20   5   50.38    8.41   3
  -4  20  -5   69.45    7.71   1
   5  20   5   -0.77    5.81   3
   4  21  -5    9.06    4.23   2
   3 -21  -5    2.86    4.20   1
   3  21  -5   12.15    4.61   2
   2  21  -5   10.50    4.49   2
   2 -21  -5   18.17    5.28   1
   1  21  -5    0.03    3.63   2
   1 -21  -5   -1.78    4.00   1
   0  21  -5   65.61    7.75   2
   0 -21  -5   51.50    7.30   1
  -1  21  -5   12.90    5.06   2
  -2  21  -5   62.37    8.53   2
  -3  21  -5    4.92    4.37   1
   2 -22  -5   -4.09    4.08   1
   2  22  -5    3.08    3.75   2
   1  22  -5    4.55    4.11   2
   1 -22  -5   18.34    5.95   1
   0 -22  -5    5.12    5.03   1
   0  22  -5    3.88    4.33   2
  -1  22  -5    0.97    4.09   2
  14   0  -6    1.36    4.92   2
  13   0  -6   -1.51    4.24   2
  12   0  -6   23.70    6.02   2
  11   0  -6    2.89    3.95   2
  10   0  -6  115.62    8.88   2
   9   0  -6   -0.41    3.76   2
   8   0  -6   11.83    4.03   2
   7   0  -6   -0.31    3.05   2
   6   0  -6   81.95    5.90   2
   6   0  -6   69.21    3.75   1
   5   0  -6    2.10    2.29   2
   5   0  -6   -1.15    1.03   1
   4   0  -6  852.12   18.51   2
   4   0  -6  870.54   16.44   1
   3   0  -6    0.45    1.10   1
   3   0  -6    0.80    1.70   2
   2   0  -6   18.47    2.27   2
   2   0  -6   18.73    2.01   1
   1   0  -6   -1.29    1.06   1
   1   0  -6   -0.11    1.11   2
   0   0  -6  896.58   17.61   1
   0   0  -6  934.26   16.95   2
  -1   0  -6   -0.26    0.87   2
  -1   0  -6   -0.80    1.24   1
  -2   0  -6   64.99    3.13   2
  -2   0  -6   66.96    4.24   1
  -3   0  -6    1.01    1.76   1
  -4   0  -6   67.68    4.89   1
   4   0   6   80.61    8.39   3
  -5   0  -6    1.33    2.14   1
   5   0   6    0.07    5.20   3
  -6   0  -6    9.42    3.15   1
   6   0   6    9.55    6.45   3
   7   0   6   -1.10    6.44   3
  -7   0  -6    0.24    2.92   1
   8   0   6  193.62   14.42   3
  -8   0  -6  198.78    9.66   1
   9   0   6  -11.07    6.52   3
  -9   0  -6   -4.59    2.94   1
  10   0   6   61.63   11.03   3
 -10   0  -6   75.92    7.21   1
  11   0   6   -1.41    8.51   3
  14   1  -6    6.94    5.61   2
  14  -1  -6    0.25    4.70   2
  13   1  -6   -0.83    4.18   2
  13  -1  -6    6.02    4.88   2
  12   1  -6   -2.51    3.91   2
  12  -1  -6   -3.38    3.83   2
  11   1  -6    4.42    4.18   2
  11  -1  -6    2.67    3.97   2
  10   1  -6   29.96    5.52   2
  10  -1  -6   47.76    6.36   2
   9   1  -6    5.54    4.34   2
   9  -1  -6   11.15    4.08   2
   8   1  -6  275.37   10.52   3
   8   1  -6  275.65   11.75   2
   8  -1  -6  255.46   11.19   2
   7   1  -6    2.27    2.98   2
   7  -1  -6    3.19    3.02   2
   7  -1  -6    2.73    1.60   1
   6   1  -6  183.86    8.28   2
   6  -1  -6  190.06    8.52   2
   6  -1  -6  188.26    6.46   1
   6   1  -6  186.45    5.66   1
   5  -1  -6   51.62    3.39   1
   5  -1  -6   49.97    4.47   2
   5   1  -6   55.33    3.00   1
   5   1  -6   44.06    4.24   2
   4  -1  -6   32.23    2.65   1
   4   1  -6   40.53    3.85   2
   4  -1  -6   44.74    4.07   2
   4   1  -6   41.26    2.63   1
   3   1  -6    9.56    1.54   1
   3   1  -6   12.58    2.28   2
   3  -1  -6   12.45    1.81   1
   3  -1  -6    9.78    2.24   2
   2  -1  -6  200.49    6.10   1
   2  -1  -6  190.69    6.40   2
   2   1  -6  184.90    5.56   1
   2   1  -6  193.67    6.49   2
   1   1  -6    0.90    1.23   1
   1  -1  -6    1.95    1.43   2
   1   1  -6    1.11    1.22   2
   1  -1  -6    1.44    1.24   1
   0   1  -6   52.13    3.56   1
   0  -1  -6   55.74    3.62   1
   0   1  -6   63.94    3.26   2
   0  -1  -6   59.14    2.95   2
  -1   1  -6    0.43    0.92   2
  -1   1  -6   -0.14    1.47   1
  -1  -1  -6   -0.71    1.20   1
  -1  -1  -6    0.28    0.79   2
  -2  -1  -6  373.10   10.27   1
  -2  -1  -6  391.02    8.27   2
  -2   1  -6  386.09   10.56   1
  -2   1  -6  393.65    9.33   2
  -3   1  -6   19.60    2.95   1
   3   1   6   22.95    5.11   3
  -3  -1  -6   22.42    3.05   1
  -4  -1  -6  383.72   11.40   1
  -4   1  -6  403.64   11.70   1
   4   1   6  458.71   17.52   3
   5   1   6   -7.00    4.43   3
  -5   1  -6    1.56    2.09   1
  -5  -1  -6   -3.30    1.76   1
   6   1   6  512.09   21.03   3
  -6   1  -6  536.57   14.96   1
  -6  -1  -6  545.63   15.06   1
   7  -1   6    0.60    6.32   3
   7   1   6   -6.89    6.20   3
  -7  -1  -6    2.37    2.79   1
  -7   1  -6   -0.92    2.63   1
   8   1   6  226.46   15.48   3
  -8  -1  -6  279.53   11.27   1
  -8   1  -6  267.51   11.12   1
   8  -1   6  274.68   17.10   3
  -9   1  -6    3.53    3.69   1
   9   1   6   13.50    8.29   3
  -9  -1  -6    5.54    3.79   1
 -10  -1  -6   -1.03    3.62   1
  10   1   6   22.45    9.26   3
 -10   1  -6    8.30    4.45   1
 -11   1  -6   -3.03    3.96   1
  11   1   6   -3.95    7.25   3
  12   1   6    3.45    9.38   3
  14   2  -6   14.43    6.33   2
  14  -2  -6   20.58    6.47   2
  13  -2  -6   -1.05    4.43   2
  13   2  -6   -1.38    4.69   2
  12   2  -6   17.19    5.78   2
  12  -2  -6   14.05    5.19   2
  11  -2  -6   14.37    5.08   2
  11   2  -6    8.17    4.76   2
  10   2  -6   61.66    7.18   2
  10  -2  -6   63.61    6.94   2
   9  -2  -6    0.70    3.56   2
   9   2  -6   -1.48    2.21   3
   9   2  -6    0.02    3.94   2
   8   2  -6   56.54    5.94   2
   8  -2  -6   40.41    5.26   2
   7  -2  -6  104.59    6.96   2
   7  -2  -6   92.01    4.99   1
   7   2  -6   94.23    6.64   2
   6  -2  -6    2.39    1.65   1
   6   2  -6   -2.06    2.17   2
   6  -2  -6    2.74    2.75   2
   5   2  -6   56.98    4.53   2
   5   2  -6   51.71    2.71   1
   5  -2  -6   46.47    3.41   1
   5  -2  -6   45.24    4.38   2
   4   2  -6   22.39    3.18   2
   4   2  -6   29.63    2.17   1
   4  -2  -6   28.98    2.76   1
   4  -2  -6   28.15    3.62   2
   3  -2  -6  558.94   12.44   1
   3   2  -6  565.92   10.95   1
   3   2  -6  548.81   13.14   2
   3  -2  -6  539.47   12.90   2
   2   2  -6  165.90    5.09   1
   2  -2  -6  175.49    5.95   1
   2  -2  -6  169.46    6.05   2
   1  -2  -6   58.40    3.60   1
   1   2  -6   65.82    3.49   1
   1  -2  -6   61.88    3.53   2
   1   2  -6   64.76    3.49   2
   0  -2  -6 3334.10   50.84   2
   0  -2  -6 3269.63   52.14   1
   0   2  -6 3242.84   52.35   2
   0   2  -6 3174.14   51.70   1
  -1   2  -6 2310.88   39.10   1
  -1  -2  -6 2318.37   39.21   1
  -1   2  -6 2336.61   38.95   2
  -1  -2  -6 2383.42   36.81   2
  -2  -2  -6 1340.51   25.42   1
   2   2   6 1400.17   32.33   3
  -2   2  -6 1371.63   25.55   1
  -3  -2  -6  383.65    7.83   2
  -3  -2  -6  367.62   10.57   1
   3   2   6  398.60   15.50   3
  -3   2  -6  364.62   10.58   1
   4   2   6  131.44    9.93   3
  -4  -2  -6  132.88    6.48   1
  -4   2  -6  126.79    6.28   1
   5   2   6   41.78    7.01   3
  -5   2  -6   42.04    4.25   1
  -5  -2  -6   42.46    4.16   1
  -6  -2  -6    4.14    2.72   1
   6   2   6    7.39    6.14   3
  -6   2  -6    9.44    3.19   1
  -7  -2  -6   28.76    4.32   1
   7   2   6   30.34    8.25   3
  -7   2  -6   24.42    4.43   1
   8   2   6  108.96   12.11   3
  -8   2  -6  124.62    7.97   1
  -8  -2  -6  123.26    7.76   1
  -9   2  -6    9.60    4.05   1
   9   2   6    1.36    7.10   3
  -9  -2  -6    3.22    3.59   1
  10   2   6   41.41   10.47   3
 -10   2  -6   51.48    6.37   1
 -10  -2  -6   51.08    6.03   1
  11   2   6   -0.38    8.79   3
 -11   2  -6    8.56    4.37   1
  12   2   6    7.34   10.02   3
  14  -3  -6    2.71    5.07   2
  14   3  -6    2.95    4.87   2
  13  -3  -6    2.57    4.47   2
  13   3  -6    3.18    4.60   2
  12   3  -6    7.70    4.81   2
  12  -3  -6   -1.48    3.88   2
  11  -3  -6    8.65    4.72   2
  11   3  -6    7.82    4.94   2
  10  -3  -6   11.50    4.88   2
  10   3  -6   13.30    5.23   2
   9   3  -6   34.20    4.89   3
   9  -3  -6   29.09    5.45   2
   9   3  -6   41.99    5.72   2
   8  -3  -6  174.75    7.39   1
   8   3  -6  181.25    9.38   2
   8  -3  -6  186.89    9.86   2
   7   3  -6   60.78    5.56   2
   7  -3  -6   63.40    5.76   2
   7  -3  -6   65.33    4.45   1
   6   3  -6  198.79    8.59   2
   6  -3  -6  213.29    7.67   1
   6  -3  -6  206.96    8.91   2
   5  -3  -6   27.75    2.95   1
   5   3  -6   30.83    3.62   2
   5   3  -6   28.85    1.94   1
   5  -3  -6   27.33    3.86   2
   4   3  -6  376.17   10.82   2
   4  -3  -6  352.74   10.76   2
   4  -3  -6  368.97   10.09   1
   4   3  -6  383.19    7.83   1
   3  -3  -6  265.45    8.18   1
   3   3  -6  295.97    8.83   2
   3   3  -6  283.11    6.58   1
   3  -3  -6  276.43    8.69   2
   2  -3  -6   56.01    3.85   2
   2   3  -6   58.15    3.73   2
   2  -3  -6   49.08    3.37   1
   2   3  -6   53.21    3.00   1
   1  -3  -6    0.42    1.34   1
   1   3  -6    1.60    1.34   2
   1   3  -6    2.22    1.34   1
   1  -3  -6    0.58    1.55   2
   0  -3  -6   36.90    3.06   1
   0   3  -6   36.13    2.88   2
   0   3  -6   34.41    2.82   1
   0  -3  -6   33.42    2.32   2
  -1   3  -6    9.67    1.83   2
  -1   3  -6    8.95    2.03   1
   1   3   6    6.71    3.84   3
  -1  -3  -6    8.09    1.94   1
  -2  -3  -6  296.32    9.02   1
  -2   3  -6  301.28    8.92   1
   2   3   6  285.37   12.29   3
  -3   3  -6   33.26    3.22   1
  -3  -3  -6   31.48    3.42   1
   3   3   6   32.67    5.52   3
  -4   3  -6  463.95   12.53   1
   4   3   6  424.18   16.77   3
  -4  -3  -6  458.50   12.44   1
  -5  -3  -6    1.71    2.34   1
   5   3   6   -2.68    5.00   3
  -5   3  -6    1.85    2.10   1
  -6   3  -6  292.76   10.42   1
   6   3   6  265.90   14.91   3
  -6  -3  -6  274.35    9.98   1
   7   3   6   28.07    8.08   3
  -7   3  -6   26.95    4.21   1
  -7  -3  -6   21.65    4.01   1
  -8  -3  -6   11.54    3.66   1
  -8   3  -6   14.24    4.07   1
   8   3   6   15.59    6.95   3
  -9  -3  -6   16.30    4.00   1
   9   3   6    9.19    7.36   3
  -9   3  -6    8.31    3.80   1
  10   3   6   44.66   10.85   3
 -10   3  -6   36.14    5.79   1
 -11   3  -6   -5.41    3.16   1
  11   3   6    6.14    9.33   3
  12   3   6    0.51    9.39   3
  14  -4  -6    7.46    5.87   2
  13   4  -6    0.69    4.80   2
  13  -4  -6    0.39    4.56   2
  12  -4  -6    9.96    5.25   2
  12   4  -6   16.58    5.61   2
  11   4  -6   -1.79    3.87   2
  11  -4  -6    3.01    3.87   2
  10   4  -6   95.26    7.67   3
  10   4  -6  110.57    8.75   2
  10  -4  -6  101.25    8.68   2
   9  -4  -6   13.33    4.36   2
   9   4  -6   11.31    4.71   2
   9   4  -6   13.72    3.79   3
   8  -4  -6   37.06    4.06   1
   8  -4  -6   23.73    4.88   2
   8   4  -6   31.39    4.79   2
   7   4  -6    2.80    3.07   2
   7  -4  -6    3.36    2.99   2
   7  -4  -6    2.21    2.01   1
   6  -4  -6    3.13    1.96   1
   6   4  -6   -1.45    2.28   2
   6  -4  -6    1.14    2.71   2
   5  -4  -6  244.74    8.32   1
   5  -4  -6  231.14    8.96   2
   5   4  -6  240.35    8.95   2
   4   4  -6  540.08    9.79   1
   4   4  -6  523.79   13.49   2
   4  -4  -6  520.59   13.04   1
   4  -4  -6  507.43   13.24   2
   3   4  -6  210.23    5.38   1
   3  -4  -6  209.57    7.44   2
   3  -4  -6  214.01    7.40   1
   3   4  -6  210.30    7.39   2
   2   4  -6 1807.35   32.47   2
   2   4  -6 1823.79   29.87   1
   2  -4  -6 1840.99   31.52   2
   2  -4  -6 1844.67   32.37   1
   1   4  -6   57.99    3.38   1
   1  -4  -6   62.37    3.73   2
   1  -4  -6   61.26    3.89   1
   1   4  -6   65.78    3.90   2
   0   4  -6 1563.24   27.02   1
   0  -4  -6 1527.49   27.76   1
   0   4   6 1503.61   32.66   3
   0  -4  -6 1529.45   25.19   2
   0   4  -6 1553.48   28.19   2
  -1   4  -6  148.69    6.06   2
  -1  -4  -6  146.32    5.95   1
   1   4   6  163.30    9.20   3
  -1   4  -6  154.99    5.94   1
  -2  -4  -6  185.49    7.00   1
  -2   4  -6  197.42    7.03   1
   2   4   6  209.37   10.76   3
   3   4   6   31.39    5.72   3
  -3  -4  -6   44.26    3.71   1
  -3   4  -6   31.78    3.32   1
  -4   4  -6  177.15    7.39   1
   4   4   6  169.13   10.70   3
  -4  -4  -6  181.52    7.50   1
   5   4   6   87.60    8.83   3
  -5  -4  -6   70.12    5.03   1
  -5   4  -6   83.23    5.70   1
  -6   4  -6  227.83    9.51   1
   6   4   6  223.40   14.02   3
  -6  -4  -6  240.60    9.19   1
   7   4   6  204.27   14.57   3
  -7  -4  -6  214.06    9.20   1
  -7   4  -6  213.91    9.66   1
  -8   4  -6   55.25    5.57   1
   8   4   6   62.23    9.97   3
  -8  -4  -6   44.08    5.12   1
  -9   4  -6    0.40    3.15   1
  -9  -4  -6    0.28    3.23   1
   9   4   6   -0.07    7.29   3
  10   4   6   39.20   10.18   3
 -10   4  -6   33.51    5.85   1
  11   4   6   -0.79    8.78   3
 -11   4  -6   -1.96    3.82   1
  12   4   6    9.34   10.41   3
 -12   4  -6    0.53    4.60   1
  13  -5  -6    1.02    4.48   2
  13   5  -6    1.95    4.76   2
  12  -5  -6    6.51    4.87   2
  12   5  -6    2.21    4.69   2
  11  -5  -6   17.57    5.40   2
  11   5  -6    6.18    4.48   2
  10   5  -6   17.95    5.12   2
  10   5  -6   21.91    5.00   3
  10  -5  -6    8.08    4.50   2
  -9   5   6   35.63    4.32   1
   9   5  -6   30.48    5.52   2
   9   5  -6   29.20    4.96   3
   9  -5  -6   27.40    5.38   2
   8  -5  -6  135.37    7.06   1
   8  -5  -6  126.46    8.47   2
   8   5  -6  142.35    8.78   2
   7  -5  -6    6.49    3.32   2
   7  -5  -6    6.84    2.49   1
   7   5  -6    7.26    3.49   2
   6  -5  -6  630.45   15.75   1
   6   5  -6  626.68   16.48   2
   6  -5  -6  625.73   17.01   2
   5   5  -6   -0.63    1.92   2
   5  -5  -6   -0.57    1.58   1
   5  -5  -6    1.30    2.41   2
   4  -5  -6  974.89   20.50   2
   4  -5  -6  942.89   20.27   1
   4   5  -6  910.57   20.18   2
   4   5  -6  964.70   15.74   1
   3   5  -6    4.61    1.29   1
   3  -5  -6    3.43    2.11   2
   3  -5  -6    7.06    1.98   1
   3   5  -6    4.35    1.82   2
   2   5  -6   49.73    3.02   1
   2   5  -6   48.74    3.59   2
   2  -5  -6   50.46    3.59   2
   2  -5  -6   43.51    3.66   1
   1   5  -6    3.25    1.50   1
   1  -5  -6    3.82    1.68   1
   1  -5  -6    7.56    1.78   2
  -1   5   6    3.96    3.04   3
   1   5  -6    4.95    1.77   2
   0   5  -6   39.46    3.29   2
   0  -5  -6   34.66    2.40   2
   0   5   6   36.64    4.74   3
   0  -5  -6   36.72    3.32   1
   0   5  -6   32.82    2.79   1
  -1   5  -6   -0.58    1.03   1
  -1  -5  -6    1.49    1.53   1
  -1   5  -6   -1.11    1.07   2
   1   5   6   -1.00    3.16   3
   2   5   6  168.49    9.75   3
  -2   5  -6  184.61    6.89   1
  -2  -5  -6  161.49    6.58   1
   3   5   6    9.34    4.06   3
  -3  -5  -6    7.64    2.29   1
  -3   5  -6    9.63    2.27   1
  -4  -5  -6  464.40   12.57   1
   4   5   6  461.35   17.16   3
  -4   5  -6  427.82   12.37   1
   5   5   6    2.31    4.64   3
  -5   5  -6    0.19    2.24   1
  -5  -5  -6   -2.11    1.98   1
   6   5   6  216.89   13.70   3
  -6   5  -6  190.72    8.71   1
  -6  -5  -6  202.23    8.61   1
  -7  -5  -6    6.90    3.06   1
  -7   5  -6   12.50    3.63   1
   7   5   6    5.96    5.89   3
   8   5   6   54.67    9.06   3
  -8  -5  -6   49.25    5.19   1
  -8   5  -6   46.85    5.43   1
  -9   5  -6    7.12    3.84   1
   9   5   6    9.90    7.78   3
 -10   5  -6    4.38    3.78   1
  10   5   6    2.57    8.02   3
 -11   5  -6    4.50    4.59   1
  11   5   6   10.28    9.59   3
  12   5   6    1.50   10.18   3
 -12   5  -6   -0.28    4.29   1
  13   6  -6    0.43    4.65   2
  13  -6  -6    3.00    4.79   2
  12   6  -6    4.93    5.00   2
  12  -6  -6    7.06    5.06   2
  11   6  -6    2.58    4.56   2
  11  -6  -6    0.61    3.78   2
  11   6  -6   -2.71    3.54   3
  10   6  -6   11.39    4.73   2
  10  -6  -6   23.41    5.42   2
  10   6  -6   15.31    4.55   3
   9   6  -6    6.41    3.54   3
  -9   6   6   18.36    3.80   1
   9   6  -6   12.34    4.22   2
   9  -6  -6   12.45    4.46   2
   8   6  -6   30.19    5.03   2
   8  -6  -6   31.83    4.20   1
   8  -6  -6   24.08    4.80   2
   7  -6  -6   37.41    4.14   1
   7  -6  -6   43.18    5.25   2
   7   6  -6   43.15    4.84   2
   6  -6  -6  128.67    7.63   2
   6  -6  -6  127.01    6.61   1
   6   6  -6  131.21    7.22   2
   5   6  -6   96.14    5.87   2
   5  -6  -6  102.21    6.58   2
   5  -6  -6  100.08    5.83   1
   4   6  -6 1786.38   33.85   2
   4  -6  -6 1857.39   34.08   1
   4  -6  -6 1821.23   33.99   2
   3  -6  -6  193.68    7.41   2
   3   6  -6  190.83    5.31   1
   3  -6  -6  204.56    7.92   1
   3   6  -6  202.27    7.70   2
   2   6  -6  507.97   10.81   1
   2  -6  -6  507.10   13.24   1
   2  -6  -6  525.12   12.24   2
   2   6  -6  514.12   13.22   2
   1   6  -6    9.09    1.69   1
   1  -6  -6    9.20    1.90   2
  -1   6   6   12.50    3.49   3
   1  -6  -6   10.77    2.27   1
   1   6  -6    5.82    1.83   2
   0  -6  -6  727.63   16.55   1
   0   6  -6  707.99   14.88   1
   0   6   6  720.92   18.96   3
   0   6  -6  715.41   16.60   2
   0  -6  -6  718.27   13.25   2
  -1   6  -6   -0.59    1.18   1
  -1   6  -6   -0.75    1.23   2
  -1  -6  -6    0.16    1.48   1
   1   6   6   -3.42    2.91   3
  -2   6  -6  366.75   10.47   1
   2   6   6  365.61   13.75   3
  -2  -6  -6  362.75   10.61   1
  -3  -6  -6   48.16    4.10   1
   3   6   6   44.85    5.77   3
  -3   6  -6   32.24    3.42   1
  -4  -6  -6  643.65   15.85   1
   4   6   6  656.10   20.71   3
  -4   6  -6  662.16   16.36   1
   5   6   6   29.38    6.00   3
  -5  -6  -6   24.31    3.64   1
  -5   6  -6   27.01    3.79   1
  -6  -6  -6   17.00    3.45   1
  -6   6  -6   18.80    3.74   1
   6   6   6   10.78    5.47   3
   7   6   6  121.93   10.76   3
  -7   6  -6  116.05    7.65   1
  -7  -6  -6  120.84    6.97   1
  -8   6  -6    5.66    3.61   1
  -8  -6  -6    6.65    3.16   1
   8   6   6    8.18    6.51   3
   9   6   6    9.58    8.04   3
  -9   6  -6   23.05    4.73   1
  10   6   6   38.96    9.78   3
 -10   6  -6   58.78    6.96   1
  11   6   6  -12.48    8.05   3
 -11   6  -6    0.40    4.21   1
 -12   6  -6    6.08    5.03   1
  13   7  -6    1.63    4.96   2
  13  -7  -6    1.92    4.78   2
  12   7  -6   -2.23    4.39   2
  12  -7  -6    3.85    4.82   2
  11   7  -6   -2.52    3.95   2
  11   7  -6   -3.22    3.84   3
  11  -7  -6    0.33    3.70   2
  10   7  -6   33.43    6.12   2
  10   7  -6   31.67    5.73   3
  10  -7  -6   33.91    6.15   2
   9  -7  -6    8.83    4.38   2
   9   7  -6    5.12    4.21   2
  -9   7   6    6.73    3.35   1
   9   7  -6    7.24    4.06   3
   8  -7  -6  214.99   11.03   2
   8   7  -6  214.00   10.38   2
   8  -7  -6  203.34    9.31   1
   7   7  -6   13.82    3.67   2
   7  -7  -6   11.49    3.80   2
   7  -7  -6   14.02    3.17   1
   6  -7  -6  529.90   14.86   1
   6   7  -6  526.67   14.94   2
   6  -7  -6  484.82   15.29   2
   5   7  -6   17.61    3.29   2
   5  -7  -6   10.07    2.64   1
   5  -7  -6    7.69    3.25   2
   4   7  -6  860.19   19.53   2
   4  -7  -6  876.44   19.91   2
   4  -7  -6  857.10   19.92   1
   3  -7  -6  129.96    6.30   2
   3  -7  -6  134.05    6.56   1
   3   7  -6  136.08    4.50   1
   3   7  -6  132.21    6.34   2
   2  -7  -6  167.72    7.18   1
  -2   7   6  167.44    7.54   3
   2   7  -6  165.52    7.08   2
   2   7  -6  184.25    5.66   1
   2  -7  -6  166.96    6.41   2
   1   7  -6   31.10    3.40   2
  -1   7   6   38.83    4.56   3
   1  -7  -6   40.53    2.95   2
   1  -7  -6   32.14    3.54   1
   1   7  -6   34.35    2.79   1
   0   7  -6   36.81    3.60   2
   0   7   6   40.77    4.86   3
   0  -7  -6   41.85    2.50   2
   0  -7  -6   34.81    3.54   1
   0   7  -6   30.23    2.91   1
  -1  -7  -6   16.44    2.72   1
  -1   7  -6   16.81    2.51   1
   1   7   6   11.99    3.76   3
   2   7   6  266.70   11.50   3
  -2   7  -6  258.48    8.52   1
  -2  -7  -6  276.28    9.37   1
  -3   7  -6    0.38    1.60   1
  -3  -7  -6   -0.88    1.73   1
   3   7   6   -1.31    3.21   3
   4   7   6  279.43   13.24   3
  -4   7  -6  244.53    9.14   1
  -4  -7  -6  257.70    9.38   1
  -5  -7  -6   12.33    2.99   1
   5   7   6   12.44    5.21   3
  -5   7  -6    8.97    3.01   1
  -6  -7  -6  275.88   10.12   1
  -6   7  -6  280.75   11.00   1
   6   7   6  272.10   15.02   3
  -7  -7  -6   11.64    3.35   1
  -7   7  -6    9.89    3.76   1
   7   7   6    7.49    5.67   3
   8   7   6   47.92    9.35   3
  -8   7  -6   59.78    6.36   1
  -8  -7  -6   61.22    5.74   1
   9   7   6    2.60    7.38   3
  -9   7  -6    1.41    3.43   1
  10   7   6   -2.15    7.49   3
 -10   7  -6   -1.34    3.40   1
 -11   7  -6    2.37    4.25   1
  11   7   6    6.27    9.10   3
  13   8  -6   -2.62    5.10   2
  13  -8  -6    4.27    5.02   2
  12   8  -6   32.89    6.86   3
  12  -8  -6   33.68    6.96   2
  12   8  -6   31.99    6.89   2
  11   8  -6    4.19    4.54   3
  11   8  -6   -0.46    4.62   2
  11  -8  -6    4.70    4.69   2
  10  -8  -6   17.07    5.20   2
  10   8  -6   14.30    4.88   3
  10   8  -6   21.95    5.34   2
 -10   8   6   18.45    4.37   1
   9  -8  -6   23.30    5.21   2
  -9   8   6   25.52    4.44   1
   9   8  -6   32.53    5.54   2
   9   8  -6   24.49    5.35   3
   8  -8  -6    1.20    3.48   2
   8   8  -6    1.50    3.60   2
   8  -8  -6   -0.78    2.43   1
   7  -8  -6   64.80    6.29   2
   7  -8  -6   57.81    5.50   1
   7   8  -6   64.78    5.98   2
   6   8  -6    2.56    2.51   2
   6  -8  -6    3.05    2.51   1
   6  -8  -6    2.20    3.22   2
   5   8  -6   56.49    4.81   2
   5  -8  -6   68.35    5.35   1
   4  -8  -6  446.15   13.15   2
   4  -8  -6  464.45   13.65   1
   4   8  -6  434.96   12.88   2
   3   8  -6   -0.28    1.60   2
   3  -8  -6    2.45    2.11   2
   3   8  -6    1.56    1.23   1
   3  -8  -6   -0.63    1.70   1
  -2   8   6  258.95    9.50   3
   2   8  -6  269.80    7.21   1
   2   8  -6  258.66    9.35   2
   2  -8  -6  256.17    9.55   1
   2  -8  -6  259.85    8.43   2
  -1   8   6  269.86   10.25   3
   1  -8  -6  263.30    9.54   1
   1   8  -6  271.07    7.65   1
   1  -8  -6  259.66    7.66   2
   1   8  -6  268.13    9.56   2
   0  -8  -6  399.69   11.97   1
   0   8   6  399.64   13.20   3
   0   8  -6  410.16   12.25   2
   0   8  -6  404.66   10.28   1
  -1  -8  -6    8.76    2.43   1
   1   8   6    7.34    3.49   3
  -1   8  -6    9.30    2.28   1
  -2  -8  -6  291.15    9.99   1
   2   8   6  284.36   11.83   3
  -2   8  -6  270.06    8.99   1
  -3   8  -6   26.01    3.31   1
   3   8   6   26.65    5.30   3
  -3  -8  -6   21.66    3.38   1
  -4  -8  -6  138.43    6.84   1
   4   8   6  131.58   10.04   3
  -4   8  -6  132.11    6.79   1
   5   8   6    3.07    4.93   3
  -5  -8  -6    5.44    2.79   1
  -5   8  -6    9.63    2.85   1
  -6  -8  -6    2.45    2.59   1
   6   8   6    0.62    4.65   3
  -6   8  -6   -1.52    2.77   1
  -7  -8  -6   32.63    4.37   1
  -7   8  -6   50.34    5.64   1
   7   8   6   28.61    6.96   3
  -8   8  -6   16.31    4.38   1
   8   8   6    7.69    6.83   3
   9   8   6   10.35    7.75   3
  -9   8  -6    0.88    3.67   1
 -10   8  -6   41.98    6.48   1
  10   8   6   34.84   10.24   3
 -11   8  -6    0.89    4.02   1
  11   8   6   -3.45    8.92   3
  13   9  -6    8.78    5.99   2
  13  -9  -6   -0.20    4.44   2
  12   9  -6   -3.53    4.66   3
  12   9  -6    5.29    5.47   2
  12  -9  -6    0.58    4.68   2
  11   9  -6    9.68    4.85   2
  11  -9  -6    5.81    4.68   2
  11   9  -6    8.82    4.99   3
  10   9  -6   11.00    4.74   2
  10   9  -6   14.71    5.14   3
 -10   9   6    7.09    3.95   1
  10  -9  -6   10.00    4.76   2
   9  -9  -6    1.22    3.60   2
   9   9  -6    7.84    4.35   3
  -9   9   6    0.48    3.23   1
   9   9  -6    6.09    4.23   2
   8  -9  -6   55.18    5.79   1
   8   9  -6   51.39    5.99   2
   8  -9  -6   53.16    6.46   2
   7  -9  -6    2.90    2.70   1
   7  -9  -6    0.48    3.26   2
   7   9  -6    1.96    2.98   2
   6  -9  -6  177.32    9.55   2
   6   9  -6  179.85    8.61   2
   6  -9  -6  191.56    8.93   1
   5  -9  -6    7.72    2.89   1
   5  -9  -6    7.45    2.99   2
   5   9  -6    6.44    2.63   2
   4  -9  -6  495.61   14.28   2
   4   9  -6  470.72   13.82   2
   4  -9  -6  468.03   14.29   1
   3   9  -6   30.07    3.69   2
   3  -9  -6   30.13    3.64   2
   3  -9  -6   30.30    3.93   1
   2  -9  -6  105.06    5.49   2
  -2   9   6  106.13    6.87   3
   2   9  -6  102.96    6.00   2
   2  -9  -6   94.82    5.94   1
   2   9  -6   98.13    4.33   1
   1   9  -6   11.25    2.00   1
   1  -9  -6    6.74    2.34   1
  -1   9   6    8.04    3.24   3
   1   9  -6    7.59    2.40   2
   0   9   6    3.82    3.23   3
   0   9  -6    2.18    1.74   1
   0   9  -6    1.24    1.79   2
   0  -9  -6    2.08    1.93   1
  -1  -9  -6    2.78    1.99   1
  -1   9  -6    5.05    2.00   1
   1   9   6    6.39    3.35   3
  -2   9  -6  336.37   10.27   1
  -2  -9  -6  314.00   10.78   1
   2   9   6  320.35   12.98   3
   3   9   6   23.57    5.09   3
  -3   9  -6   20.64    3.20   1
  -3  -9  -6   20.26    3.51   1
   4   9   6  102.06    8.44   3
  -4   9  -6  105.88    6.42   1
  -4  -9  -6  107.68    6.29   1
  -5  -9  -6    8.15    2.92   1
  -5   9  -6    6.60    2.89   1
   5   9   6    0.03    4.28   3
  -6   9  -6   42.83    4.89   1
  -6  -9  -6   29.63    4.19   1
   6   9   6   39.75    7.00   3
  -7   9  -6   10.54    3.62   1
  -7  -9  -6    6.34    3.04   1
   7   9   6    6.26    5.76   3
  -8   9  -6   10.40    4.34   1
   8   9   6    4.98    6.45   3
  -9   9  -6   -2.55    3.83   1
   9   9   6    6.71    7.09   3
 -10   9  -6    9.13    5.22   1
  10   9   6   21.73    9.57   3
  11   9   6  -12.83    7.50   3
 -11   9  -6    0.63    4.35   1
  12  10  -6    0.15    5.22   2
  12  10  -6    4.54    5.19   3
  12 -10  -6    3.62    5.16   2
  11 -10  -6    2.61    4.50   2
  11  10  -6    2.32    4.35   3
  11  10  -6    8.93    4.96   2
 -10  10   6   43.19    6.00   1
  10  10  -6   55.98    7.32   3
  10  10  -6   41.93    6.49   2
  10 -10  -6   60.72    7.94   2
   9  10  -6    3.03    3.91   3
   9  10  -6   -4.01    3.20   2
   9 -10  -6   -2.03    3.34   2
  -9  10   6    6.38    3.76   1
   8 -10  -6   83.02    7.90   2
   8 -10  -6   62.07    6.12   1
   8  10  -6   81.19    6.82   2
   7 -10  -6   24.81    4.35   1
   7  10  -6   27.29    4.40   2
   7 -10  -6   19.76    4.67   2
   6 -10  -6   40.71    4.83   1
   6  10  -6   42.51    4.91   2
   6 -10  -6   43.34    5.49   2
   5 -10  -6    2.28    2.64   2
   5 -10  -6    3.32    2.68   1
   5  10  -6    3.45    2.38   2
   4  10  -6  112.05    6.65   2
   4 -10  -6  117.16    6.83   2
   4 -10  -6  120.89    7.07   1
   3 -10  -6   -0.49    1.94   2
   3 -10  -6    1.15    2.04   1
   3  10  -6    0.00    1.83   2
   2 -10  -6 1037.53   23.87   1
   2  10  -6 1050.73   19.43   1
   2  10  -6 1029.85   23.44   2
  -1  10   6  275.39   10.37   3
   1  10  -6  265.17   10.16   2
   1 -10  -6  262.20   10.34   1
   1  10  -6  269.82    8.03   1
   0  10  -6 1087.57   24.53   2
   0  10   6 1063.92   25.15   3
   0  10  -6 1072.40   21.33   1
   0 -10  -6 1094.62   24.07   1
   1  10   6   47.08    5.48   3
  -1 -10  -6   52.49    4.90   1
  -1  10  -6   51.19    4.16   1
   2  10   6   79.43    6.91   3
  -2 -10  -6   91.80    6.11   1
  -2  10  -6   82.35    5.30   1
  -3  10  -6    5.60    2.56   1
  -3 -10  -6    7.00    2.57   1
   3  10   6   -1.45    3.66   3
  -4 -10  -6    9.96    3.09   1
  -4  10  -6    9.81    2.94   1
   4  10   6   13.11    4.88   3
  -5 -10  -6  180.40    8.66   1
  -5  10  -6  190.24    9.00   1
   5  10   6  187.10   12.25   3
   6  10   6   86.46    9.45   3
  -6 -10  -6   88.05    6.40   1
  -6  10  -6  113.09    7.31   1
  -7  10  -6   16.45    4.34   1
   7  10   6   39.56    8.02   3
  -8  10  -6   11.40    4.22   1
   8  10   6   12.62    7.31   3
   9  10   6   -7.31    6.98   3
  -9  10  -6    4.32    4.36   1
 -10  10  -6   12.54    5.08   1
  10  10   6    9.71    8.52   3
  11  10   6   -9.40    9.12   3
  12  11  -6    4.58    5.76   2
  12 -11  -6    2.38    5.53   2
  12  11  -6    3.25    5.32   3
 -11  11   6    1.31    3.98   1
  11 -11  -6    2.37    4.37   2
  11  11  -6    2.13    4.87   3
  11  11  -6    4.53    5.07   2
  10 -11  -6    9.07    5.23   2
  10  11  -6    5.99    4.16   3
 -10  11   6   14.82    4.70   1
  10  11  -6    4.82    4.28   2
  -9  11   6    4.98    3.73   1
   9  11  -6   -0.34    3.53   2
   9  11  -6    7.80    4.30   3
   9 -11  -6    4.14    4.19   2
   8  11  -6   45.94    5.92   2
   8 -11  -6   48.01    6.39   2
   8 -11  -6   40.95    5.34   1
   7 -11  -6   15.83    4.52   2
   7 -11  -6   10.69    3.53   1
   7  11  -6   18.11    4.05   2
   6  11  -6   82.62    6.45   2
   6 -11  -6  100.79    7.17   1
   6 -11  -6   95.24    7.58   2
   5 -11  -6    3.92    2.59   1
   5  11  -6    5.44    2.68   2
   5 -11  -6    7.08    3.24   2
   4  11  -6  108.01    6.59   2
   4 -11  -6  101.73    6.84   1
   4 -11  -6  112.70    6.98   2
   3 -11  -6    1.67    2.46   1
   3  11  -6    7.54    2.58   2
   2  11  -6   92.43    4.44   1
   2 -11  -6   79.88    6.24   1
   2  11  -6   75.43    5.59   2
   1  11  -6   38.13    3.29   1
   1  11  -6   36.26    4.26   2
   1 -11  -6   30.27    4.12   1
  -1  11   6   29.17    4.35   3
   0  11   6    9.04    3.61   3
   0 -11  -6    9.91    3.00   1
   0  11  -6   12.13    2.52   1
   0  11  -6   10.14    2.87   2
  -1 -11  -6   25.09    3.79   1
  -1  11  -6   25.55    3.20   1
   1  11   6   24.35    4.55   3
   2  11   6   28.59    4.93   3
  -2  11  -6   24.19    3.45   1
  -2 -11  -6   24.92    3.81   1
  -3  11  -6    9.93    3.05   1
   3  11   6    6.67    4.17   3
  -3 -11  -6   10.47    3.15   1
   4  11   6   99.93    8.78   3
  -4  11  -6  120.81    7.16   1
  -4 -11  -6  112.98    7.06   1
  -5  11  -6   -1.56    2.21   1
  -5 -11  -6    2.58    2.81   1
   5  11   6   -1.19    4.08   3
  -6  11  -6   56.32    6.05   1
  -6 -11  -6   57.69    5.65   1
   6  11   6   62.50    8.35   3
  -7  11  -6    2.05    3.19   1
   7  11   6   -0.56    6.03   3
  -8  11  -6   28.90    5.63   1
   8  11   6   23.09    8.17   3
  -9  11  -6    3.19    4.32   1
   9  11   6    5.89    7.84   3
 -10  11  -6   20.71    6.34   1
  10  11   6   10.44    9.25   3
  12 -12  -6   11.52    6.12   2
  12  12  -6   16.30    6.58   3
  11  12  -6    7.59    5.22   2
  11 -12  -6    6.46    5.10   2
  11  12  -6    5.54    5.14   3
 -11  12   6   -1.94    3.52   1
  10 -12  -6   58.08    8.04   2
  10  12  -6   58.45    8.23   3
 -10  12   6   50.76    6.77   1
  10  12  -6   45.35    6.83   2
   9  12  -6    9.18    4.40   2
   9 -12  -6    3.29    4.49   2
   9  12  -6    6.29    4.48   3
  -9  12   6    8.58    4.03   1
   8 -12  -6   17.46    4.26   1
   8 -12  -6   24.29    5.60   2
   8  12  -6   25.81    4.86   2
   7 -12  -6   -1.85    2.32   1
   7 -12  -6   -0.57    3.26   2
   7  12  -6   -0.68    3.02   2
   6 -12  -6    8.36    3.62   2
   6  12  -6    4.09    2.85   2
   6 -12  -6    4.67    3.16   1
   5  12  -6   20.80    3.87   2
   5 -12  -6   19.00    3.85   1
   5 -12  -6   19.74    4.12   2
   4 -12  -6  158.15    8.67   1
   4  12  -6  164.85    8.22   2
   3 -12  -6   30.64    4.56   1
   3  12  -6   38.23    4.56   2
   2 -12  -6  278.69   11.45   1
   2  12  -6  300.53   11.39   2
   1 -12  -6    8.06    3.02   1
   1  12  -6    7.95    2.99   2
   1  12  -6    8.40    2.23   1
   0  12   6 1152.78   26.78   3
   0 -12  -6 1126.74   26.05   1
   0  12  -6 1120.17   26.36   2
   0  12  -6 1115.02   22.76   1
  -1 -12  -6  195.30    9.27   1
  -1  12  -6  186.05    7.77   1
  -1  12  -6  197.59    9.55   2
   1  12   6  186.82    9.94   3
   2  12   6  203.83   10.78   3
  -2 -12  -6  214.05    9.72   1
  -2  12  -6  224.50    8.95   1
  -3 -12  -6    2.28    2.46   1
   3  12   6    0.61    3.84   3
  -3  12  -6    3.14    2.45   1
  -4  12  -6  262.05   10.53   1
  -4 -12  -6  253.10   10.70   1
   4  12   6  247.28   13.24   3
  -5 -12  -6    8.87    3.27   1
   5  12   6    1.86    4.23   3
  -5  12  -6    7.57    3.43   1
   6  12   6   -3.17    5.03   3
  -6  12  -6    1.27    3.32   1
   7  12   6   -3.36    5.85   3
  -7  12  -6    2.53    3.19   1
   8  12   6   27.58    8.40   3
  -8  12  -6   32.50    5.86   1
   9  12   6   -9.03    5.95   3
  -9  12  -6   -2.46    4.08   1
  10  12   6   55.21   12.06   3
 -11  13   6    1.81    4.12   1
  11  13  -6   -1.33    4.40   3
  11 -13  -6   11.77    5.95   2
  10 -13  -6    3.13    4.96   2
 -10  13   6    4.95    4.16   1
  10  13  -6    2.12    4.54   3
  10  13  -6   -0.97    4.32   2
   9  13  -6   -1.47    4.06   3
   9  13  -6    0.06    3.84   2
  -9  13   6   -0.41    3.32   1
   9 -13  -6    0.53    3.93   2
   8  13  -6  100.14    7.96   2
   8 -13  -6   98.99    8.88   2
   8 -13  -6   92.18    7.94   1
   7 -13  -6   -0.53    2.74   1
   7 -13  -6    0.43    3.54   2
   7  13  -6   -4.93    2.52   2
   6 -13  -6  162.13    9.76   2
   6  13  -6  152.64    8.52   2
   6 -13  -6  152.50    9.18   1
   5 -13  -6   -2.66    2.24   1
   5  13  -6   -3.12    1.91   2
   4  13  -6  132.03    7.69   2
   4 -13  -6  105.02    7.48   1
   3 -13  -6   17.88    3.94   1
   3  13  -6   15.07    3.59   2
   2  13  -6   21.25    3.85   2
   2 -13  -6   16.24    3.69   1
   1  13  -6    8.81    2.96   2
   1 -13  -6    6.81    3.09   1
   1  13  -6    4.00    2.18   1
   0  13  -6    1.84    2.02   1
   0 -13  -6    3.64    2.83   1
   0  13  -6    0.83    2.21   2
   0  13   6   -2.96    3.16   3
   1  13   6   65.43    6.33   3
  -1  13  -6   62.56    5.96   2
  -1 -13  -6   66.51    5.92   1
  -1  13  -6   74.78    5.08   1
   2  13   6  112.95    8.46   3
  -2 -13  -6  115.06    7.46   1
  -2  13  -6  112.33    6.63   1
  -3 -13  -6    6.87    3.16   1
  -3  13  -6    3.51    2.63   1
   3  13   6    8.09    3.96   3
  -4  13  -6  215.46    9.82   1
   4  13   6  200.47   12.00   3
  -4 -13  -6  203.78    9.93   1
  -5 -13  -6   29.25    4.71   1
   5  13   6   34.84    6.84   3
  -5  13  -6   21.13    4.22   1
  -6  13  -6  214.78   10.86   1
   6  13   6  211.07   14.21   3
  -7  13  -6   -3.36    3.00   1
   7  13   6   -4.18    5.80   3
  -8  13  -6   63.50    7.50   1
   8  13   6   48.99    9.72   3
  -9  13  -6    3.58    4.71   1
   9  13   6   -8.00    7.52   3
 -11  14   6    0.52    4.74   1
  11  14  -6    2.57    5.36   3
  10  14  -6   36.85    6.39   2
  10  14  -6   43.29    8.08   3
 -10  14   6   36.06    6.63   1
   9  14  -6   -3.66    4.12   3
   9  14  -6    1.41    4.01   2
  -9  14   6   -2.14    3.29   1
   8 -14  -6    3.60    3.27   1
   8  14  -6   -3.69    3.26   2
   7 -14  -6    1.48    3.47   1
   7  14  -6    1.05    3.15   2
   6  14  -6    4.88    3.34   2
   6 -14  -6    3.68    3.06   1
   5 -14  -6   42.62    5.45   1
   5  14  -6   41.26    5.15   2
   4  14  -6   97.04    7.10   2
   4 -14  -6   87.57    7.38   1
   3  14  -6    0.73    2.54   2
   3 -14  -6    1.00    2.66   1
   2 -14  -6   64.43    6.17   1
   2  14  -6   60.41    5.74   2
   1  14  -6   20.30    3.93   2
   1  14  -6   16.94    2.88   1
   1 -14  -6   14.76    3.77   1
   0  14  -6   14.67    2.94   1
   0 -14  -6    7.70    3.35   1
   0  14  -6   18.62    3.83   2
  -1  14  -6    4.17    3.10   2
   1  14   6   10.01    4.01   3
  -1  14  -6    4.88    2.48   1
  -1 -14  -6    2.98    2.99   1
  -2  14  -6  107.80    6.57   1
  -2 -14  -6  111.33    7.51   1
   2  14   6  113.47    8.68   3
   3  14   6    9.42    4.55   3
  -3  14  -6   10.65    3.35   1
  -3 -14  -6   14.62    3.91   1
   4  14   6   16.64    5.56   3
  -4  14  -6   29.77    4.91   1
  -4 -14  -6   28.74    4.77   1
   5  14   6    3.71    4.97   3
  -5  14  -6    0.99    3.12   1
  -6  14  -6    1.25    3.19   1
   6  14   6   -4.09    5.13   3
  -7  14  -6    1.13    3.80   1
   7  14   6   -8.76    5.44   3
  -8  14  -6   -1.23    3.70   1
   8  14   6    3.54    7.38   3
   9  14   6    6.89    8.83   3
 -10  15   6   49.11    7.46   1
  10  15  -6   29.43    7.58   3
   9  15  -6   -3.45    4.26   2
  -9  15   6    1.49    4.38   1
   9  15  -6    0.10    4.67   3
   8 -15  -6   65.16    7.45   1
  -8  15   6   63.94    7.64   1
   8  15  -6   63.85    6.98   2
   7  15  -6    1.98    3.45   2
   7 -15  -6    4.23    3.73   1
   6  15  -6  117.85    7.94   2
   6 -15  -6   99.72    8.30   1
   5 -15  -6    1.65    3.19   1
   5  15  -6    3.66    2.96   2
   4 -15  -6   54.30    6.15   1
   4  15  -6   45.32    5.30   2
   3 -15  -6   13.18    4.02   1
   3  15  -6    6.00    3.12   2
   2  15  -6   22.74    4.30   2
   2 -15  -6   22.23    4.47   1
   1 -15  -6   -2.49    2.55   1
   1  15  -6   -0.83    2.14   2
   0 -15  -6    1.17    2.94   1
   0  15  -6    1.61    2.22   1
   0  15  -6    1.34    2.55   2
  -1  15  -6    1.07    2.80   2
  -1  15  -6   -2.38    2.02   1
  -1 -15  -6    1.91    3.03   1
  -2 -15  -6   91.01    7.57   1
   2  15   6   93.72    8.06   3
  -2  15  -6   99.27    6.51   1
   3  15   6   -0.22    3.98   3
  -3 -15  -6   16.71    4.26   1
  -3  15  -6   15.71    3.86   1
   4  15   6  201.00   12.90   3
  -4 -15  -6  203.83   10.62   1
  -4  15  -6  216.51   10.49   1
   5  15   6   -1.39    4.87   3
  -5  15  -6    0.70    3.24   1
   6  15   6  209.64   14.85   3
   7  15   6   -1.86    6.23   3
  -7  15  -6   -1.17    4.02   1
   8  15   6   48.58   10.43   3
   9  16  -6    7.54    5.33   3
  -9  16   6    1.83    4.91   1
   8  16  -6   -1.68    4.45   3
  -8  16   6    3.70    4.14   1
   8 -16  -6   -1.37    3.29   1
   8  16  -6   -2.08    3.82   2
   7  16  -6   14.28    4.46   2
   7 -16  -6    9.56    4.40   1
   6  16  -6    3.11    3.03   2
   6 -16  -6   -0.45    2.98   1
   5 -16  -6    8.80    4.10   1
   5  16  -6   11.25    3.91   2
   4  16  -6   27.15    4.71   2
   4 -16  -6   22.04    4.92   1
   3  16  -6   15.98    4.14   2
   3 -16  -6   20.71    4.65   1
   2 -16  -6   29.75    5.28   1
   2  16  -6   26.05    4.60   2
   1 -16  -6   24.06    4.76   1
   1  16  -6   26.00    4.77   2
   0  16  -6  340.45   11.43   1
   0 -16  -6  349.38   14.15   1
   0  16  -6  324.65   13.77   2
  -1  16  -6   10.22    3.22   1
  -1  16  -6   10.09    3.85   2
  -1 -16  -6    5.35    3.47   1
  -2 -16  -6  168.45    9.90   1
   2  16   6  147.20   10.14   3
  -2  16  -6  161.85    8.51   1
  -3  16  -6   12.24    3.80   1
  -3 -16  -6   14.21    4.31   1
   3  16   6    9.03    4.75   3
  -4  16  -6   89.08    7.22   1
   4  16   6   73.71    8.74   3
  -5  16  -6   26.24    5.32   1
   5  16   6   35.99    7.23   3
   6  16   6   -7.31    5.15   3
  -6  16  -6    1.37    4.08   1
  -7  16  -6    4.31    4.84   1
   7  16   6   -2.13    6.34   3
   8  16   6   12.00    8.74   3
   9  17  -6   12.15    6.46   3
   8  17  -6   69.35    9.69   3
  -8  17   6   62.65    8.39   1
   8  17  -6   69.94    7.64   2
   7 -17  -6   14.40    4.99   1
   7  17  -6   18.89    5.05   2
   6 -17  -6   93.93    8.67   1
   6  17  -6   77.41    7.23   2
   5  17  -6    0.12    3.07   2
   5 -17  -6   -2.85    3.27   1
   4 -17  -6   72.78    7.52   1
   4  17  -6   68.84    6.88   2
   3 -17  -6    0.15    3.18   1
   3  17  -6    1.39    3.00   2
   2  17  -6   15.20    4.13   2
   2 -17  -6   10.65    4.12   1
   1 -17  -6    3.10    3.55   1
   1  17  -6   -1.54    2.37   2
   0 -17  -6    2.57    3.51   1
   0  17  -6    2.11    3.13   2
  -1  17  -6    4.27    3.08   1
  -1 -17  -6    1.17    3.52   1
  -1  17  -6    3.42    3.16   2
  -2 -17  -6   40.73    6.06   1
  -2  17  -6   66.33    6.17   1
  -3 -17  -6    4.82    3.71   1
   3  17   6   -4.17    4.15   3
  -3  17  -6    2.49    3.31   1
   4  17   6   77.31    9.01   3
  -4  17  -6   96.28    7.90   1
   5  17   6    4.76    5.49   3
  -5  17  -6    0.59    3.64   1
  -6  17  -6   87.32    8.47   1
   6  17   6   80.05   10.19   3
   7  17   6  -16.22    5.79   3
   8  18  -6    7.89    5.61   3
   7 -18  -6    5.08    4.22   1
   7  18  -6    1.17    3.80   2
   6 -18  -6    5.38    4.11   1
   6  18  -6    2.82    3.59   2
   5 -18  -6   23.99    5.77   1
   5  18  -6   12.65    4.38   2
   4  18  -6   67.82    7.08   2
   4 -18  -6   82.63    8.12   1
   3  18  -6    6.11    3.65   2
   3 -18  -6    2.66    3.66   1
   2  18  -6  162.84   10.15   2
   2 -18  -6  173.82   10.81   1
   1 -18  -6    1.44    3.50   1
   1  18  -6    0.26    2.91   2
   0 -18  -6  150.70   10.18   1
   0  18  -6  148.96    9.80   2
  -1  18  -6    9.35    3.53   1
  -1  18  -6    9.84    4.01   2
  -1 -18  -6    4.98    4.13   1
  -2  18  -6   83.70    8.29   2
  -2  18  -6   82.16    6.94   1
  -2 -18  -6   85.10    7.97   1
   3  18   6    6.49    4.99   3
  -3  18  -6    4.54    3.53   1
  -4  18  -6   27.34    5.34   1
   4  18   6   28.04    7.02   3
  -5  18  -6    5.85    4.60   1
   5  18   6    8.03    6.34   3
   6  18   6    1.89    5.95   3
  -6  18  -6   -0.71    4.46   1
   7  19  -6    8.90    5.55   3
   6 -19  -6   51.80    7.59   1
   6  19  -6   21.42    5.23   2
   5  19  -6   -0.75    3.49   2
   5 -19  -6    6.02    4.39   1
   4  19  -6   37.04    5.84   2
   4 -19  -6   39.73    6.49   1
   3 -19  -6    2.25    4.02   1
   3  19  -6    9.06    3.96   2
   2 -19  -6   18.40    5.05   1
   2  19  -6   15.44    4.70   2
   1  19  -6    3.41    3.58   2
   1 -19  -6    8.92    4.49   1
   0  19  -6    0.62    3.04   2
   0 -19  -6   -1.82    3.70   1
  -1 -19  -6    9.48    4.54   1
  -1  19  -6    1.02    3.38   2
  -2  19  -6   28.34    5.05   1
  -2 -19  -6   24.00    5.56   1
  -2  19  -6   17.68    5.19   2
  -3  19  -6    0.96    3.55   1
  -4  19  -6   48.10    6.49   1
   4  19   6   34.87    7.75   3
   5  19   6    0.35    5.81   3
  -5  19  -6    2.27    4.25   1
   6  20  -6   -0.85    3.82   2
   5  20  -6    0.01    3.45   2
   4 -20  -6   11.33    5.26   1
   4  20  -6   16.72    4.78   2
   3 -20  -6   16.41    5.20   1
   3  20  -6   18.39    4.81   2
   2 -20  -6   52.00    7.06   1
   2  20  -6   58.35    6.98   2
   1  20  -6    5.19    3.72   2
   1 -20  -6    0.52    3.94   1
   0  20  -6   89.65    8.67   2
   0 -20  -6  107.12    9.37   1
  -1  20  -6    5.10    4.26   2
  -1 -20  -6    4.85    4.21   1
  -2  20  -6   57.72    7.92   2
  -3  20  -6    1.64    3.93   1
  -3  20  -6    8.42    5.21   2
  -4  20  -6   11.55    4.94   1
   4  21  -6   35.82    6.14   2
   3  21  -6    8.59    4.33   2
   3 -21  -6    5.65    4.88   1
   2 -21  -6   11.18    5.30   1
   2  21  -6   14.58    4.91   2
   1 -21  -6   27.35    6.03   1
   1  21  -6   17.58    5.29   2
   0 -21  -6    2.04    4.27   1
   0  21  -6    3.28    3.86   2
  -1 -21  -6    9.13    5.07   1
  -1  21  -6    5.84    4.31   2
  -2  21  -6   14.79    5.61   2
  -3  21  -6    5.66    4.33   1
  14   0  -7   10.63    6.22   2
  13   0  -7    2.17    4.68   2
  12   0  -7    3.86    4.58   2
  11   0  -7    5.66    4.88   2
  10   0  -7   13.05    4.98   2
   9   0  -7   -1.20    3.86   2
   8   0  -7   69.93    6.86   2
   7   0  -7   -2.07    2.88   2
   6   0  -7   73.42    4.02   1
   6   0  -7   76.33    5.82   2
   5   0  -7   -1.48    1.19   1
   5   0  -7   -2.55    2.13   2
   4   0  -7  123.57    6.24   2
   4   0  -7  118.50    4.82   1
   3   0  -7    0.58    1.19   1
   3   0  -7   -0.38    1.85   2
   2   0  -7    7.66    1.70   1
   2   0  -7   10.55    2.16   2
   1   0  -7    1.57    1.34   2
   1   0  -7   -0.01    1.25   1
   0   0  -7   30.99    2.50   2
   0   0  -7   26.55    2.76   1
  -1   0  -7    0.17    0.98   2
  -1   0  -7   -2.02    1.16   1
  -2   0  -7  275.11    7.30   2
  -2   0  -7  274.27    8.96   1
  -3   0  -7   -0.07    1.11   2
  -3   0  -7   -1.41    1.72   1
  -4   0  -7  410.75   12.43   1
  -5   0  -7   -1.04    2.29   1
   6   0   7  700.80   25.39   3
  -6   0  -7  709.96   18.48   1
  -7   0  -7    0.99    3.19   1
   7   0   7    0.08    6.67   3
   8   0   7   94.53   12.08   3
  -8   0  -7   79.30    6.70   1
  -9   0  -7   -3.03    3.44   1
   9   0   7   -0.44    7.14   3
 -10   0  -7   24.78    5.71   1
 -11   0  -7   -0.45    3.99   1
  14   1  -7   18.88    6.94   2
  14  -1  -7   17.82    6.61   2
  13  -1  -7    1.96    4.94   2
  13   1  -7    6.04    4.98   2
  12  -1  -7   33.80    6.85   2
  12   1  -7   40.13    6.93   2
  11   1  -7   -0.05    4.19   2
  11  -1  -7    9.18    4.72   2
  10  -1  -7   63.30    7.03   2
  10   1  -7   45.81    6.39   2
   9  -1  -7  113.05    8.35   2
   9   1  -7  104.22    8.21   2
   8   1  -7  128.02    8.41   2
   8  -1  -7  125.61    8.39   2
   7  -1  -7   -5.96    2.69   2
   7   1  -7    0.87    3.16   2
   7  -1  -7   -0.42    1.53   1
   6  -1  -7   21.88    3.93   2
   6  -1  -7   16.23    2.44   1
   6   1  -7   19.90    2.24   1
   6   1  -7   20.72    3.76   2
   5   1  -7   71.35    3.72   1
   5   1  -7   77.84    5.50   2
   5  -1  -7   77.98    4.28   1
   5  -1  -7   79.58    5.95   2
   4   1  -7    6.49    2.36   2
   4  -1  -7    9.69    1.86   1
   4   1  -7    8.52    1.64   1
   4  -1  -7    6.33    2.65   2
   3  -1  -7   -1.37    1.88   2
   3   1  -7   -1.37    1.00   1
   3   1  -7    0.83    1.77   2
   3  -1  -7    0.51    1.22   1
   2   1  -7   10.95    2.12   2
   2  -1  -7   10.29    1.83   1
   2  -1  -7   14.65    2.47   2
   2   1  -7   11.62    1.92   1
   1   1  -7    4.96    1.52   2
   1  -1  -7    3.88    1.56   1
   1  -1  -7    2.15    1.54   2
   1   1  -7    2.84    1.46   1
   0   1  -7 1277.68   24.03   1
   0   1  -7 1289.75   23.54   2
   0  -1  -7 1329.04   22.90   2
   0  -1  -7 1301.14   24.19   1
  -1  -1  -7   51.27    3.81   1
  -1  -1  -7   59.74    2.99   2
  -1   1  -7   60.62    3.44   2
  -1   1  -7   59.01    4.19   1
  -2   1  -7 1053.89   20.12   2
  -2  -1  -7 1080.87   18.97   2
  -2  -1  -7 1067.36   21.75   1
  -2   1  -7 1074.05   21.88   1
  -3  -1  -7  205.63    8.01   1
  -3   1  -7  230.98    8.59   1
  -3  -1  -7  212.69    5.95   2
  -4  -1  -7  196.00    8.16   1
   4   1   7  176.19   12.09   3
  -4   1  -7  202.01    8.49   1
  -5   1  -7   13.30    3.37   1
   5   1   7    5.20    6.22   3
  -5  -1  -7    6.11    2.76   1
  -6   1  -7    3.60    3.14   1
   6   1   7    7.02    6.99   3
  -6  -1  -7    2.93    3.36   1
  -7  -1  -7  169.77    8.73   1
   7   1   7  163.79   13.36   3
  -7   1  -7  167.69    9.03   1
  -8   1  -7   10.18    4.15   1
  -8  -1  -7   11.39    4.11   1
   8   1   7    8.44    8.00   3
   9   1   7   -0.68    7.90   3
  -9   1  -7   -0.43    3.54   1
  -9  -1  -7    0.45    3.21   1
 -10  -1  -7   34.42    5.87   1
  10   1   7   27.11   10.34   3
 -10   1  -7   31.81    5.88   1
  11   1   7    3.78    9.16   3
 -11   1  -7    9.78    5.01   1
  14   2  -7    3.74    5.25   2
  14  -2  -7    4.80    5.43   2
  13   2  -7   -0.98    4.21   2
  13  -2  -7    3.62    4.74   2
  12   2  -7   -0.33    4.27   2
  12  -2  -7    0.77    4.20   2
  11  -2  -7   19.83    5.61   2
  11   2  -7   13.43    5.29   2
  10  -2  -7   14.40    4.82   2
  10   2  -7   11.86    4.83   2
   9  -2  -7   75.56    7.26   2
   9   2  -7   90.76    7.73   2
   8  -2  -7   58.88    6.22   2
   8   2  -7   63.08    6.66   2
   7  -2  -7  108.08    7.32   2
   7   2  -7  118.23    7.71   2
   7  -2  -7  107.20    5.48   1
   6   2  -7  276.60   10.41   2
   6  -2  -7  256.02    8.40   1
   6  -2  -7  279.55   10.76   2
   5  -2  -7    9.24    2.08   1
   5  -2  -7   14.28    3.48   2
   5   2  -7    6.41    2.74   2
   5   2  -7    7.81    1.56   1
   4  -2  -7  174.69    6.50   1
   4   2  -7  173.95    7.36   2
   4  -2  -7  154.58    7.10   2
   4   2  -7  175.86    5.39   1
   3  -2  -7    5.13    1.67   1
   3   2  -7    8.32    2.29   2
   3   2  -7    7.45    1.55   1
   3  -2  -7    6.22    2.38   2
   2   2  -7   45.06    3.05   1
   2  -2  -7   40.36    3.42   2
   2   2  -7   42.26    3.41   2
   2  -2  -7   39.05    3.23   1
   1   2  -7   63.42    3.79   1
   1  -2  -7   61.25    3.77   2
   1   2  -7   60.70    3.73   2
   1  -2  -7   50.49    3.59   1
   0  -2  -7    1.16    1.34   2
   0   2  -7    1.45    1.32   2
   0  -2  -7    1.68    1.56   1
   0   2  -7   -0.94    1.27   1
  -1   2  -7   13.37    2.00   2
  -1  -2  -7   13.73    2.39   1
  -1   2  -7   11.16    2.26   1
  -1  -2  -7   15.75    1.68   2
  -2   2  -7  237.37    7.46   2
  -2   2  -7  233.28    8.37   1
  -2  -2  -7  241.30    5.81   2
  -2  -2  -7  238.49    8.30   1
   3   2   7   44.91    6.77   3
  -3  -2  -7   48.92    4.27   1
  -3   2  -7   45.46    4.11   1
   4   2   7  653.98   22.66   3
  -4  -2  -7  701.32   17.04   1
  -4   2  -7  694.73   16.95   1
   5   2   7    6.32    5.80   3
  -5  -2  -7    3.81    2.78   1
  -5   2  -7    1.25    2.64   1
   6   2   7  312.25   17.46   3
  -6  -2  -7  322.12   11.67   1
  -6   2  -7  320.66   11.70   1
   7   2   7  183.59   15.02   3
  -7  -2  -7  179.73    9.17   1
  -7   2  -7  164.82    8.76   1
   8   2   7  165.77   14.40   3
  -8   2  -7  148.03    8.96   1
  -8  -2  -7  145.38    8.76   1
   9   2   7   22.27    9.22   3
  -9   2  -7   19.31    4.78   1
  -9  -2  -7   21.01    4.85   1
  10   2   7   15.20    9.53   3
 -10  -2  -7   19.89    4.89   1
 -10   2  -7   20.37    5.29   1
 -11   2  -7    8.69    4.95   1
  11   2   7   -0.40    8.59   3
  12   2   7   -8.14    9.10   3
  13   3  -7   -0.06    4.62   2
  13  -3  -7    1.40    4.42   2
  12  -3  -7    3.62    4.50   2
  12   3  -7   -3.69    4.35   2
  11  -3  -7    8.22    4.77   2
  11   3  -7    9.33    4.81   2
  10   3  -7   68.70    7.31   2
  10  -3  -7   69.05    7.63   2
   9   3  -7   11.75    4.83   2
   9   3  -7   14.45    3.97   3
   9  -3  -7    8.47    4.45   2
   8  -3  -7   69.01    6.64   2
   8   3  -7   70.61    6.90   2
   8  -3  -7   85.33    5.44   1
   7  -3  -7   31.94    3.46   1
   7   3  -7   21.20    4.20   2
   7  -3  -7   26.93    4.49   2
   6   3  -7    1.22    2.55   2
   6  -3  -7   -2.08    2.60   2
   6  -3  -7    0.31    1.56   1
   5   3  -7  102.68    3.90   1
   5  -3  -7  105.26    6.59   2
   5   3  -7  107.38    6.22   2
   5  -3  -7  101.94    5.32   1
   4   3  -7 1329.27   22.48   1
   4  -3  -7 1331.42   25.26   1
   4  -3  -7 1314.87   26.28   2
   4   3  -7 1326.64   26.49   2
   3   3  -7  187.59    7.14   2
   3  -3  -7  176.45    7.14   2
   3  -3  -7  185.34    6.89   1
   3   3  -7  183.13    5.48   1
   2  -3  -7 1136.06   22.12   1
   2   3  -7 1138.93   22.43   2
   2  -3  -7 1127.30   21.52   2
   2   3  -7 1124.08   20.36   1
   1  -3  -7    1.67    1.46   1
   1   3  -7   -0.27    1.40   1
   1  -3  -7   -0.13    1.68   2
   1   3  -7    2.52    1.41   2
   0  -3  -7 1536.18   25.67   2
   0  -3  -7 1513.62   27.94   1
   0   3  -7 1545.70   27.64   1
   0   3  -7 1522.71   27.95   2
  -1  -3  -7    1.31    1.63   1
  -1   3  -7    0.97    1.26   2
  -1  -3  -7    0.77    1.16   2
  -1   3  -7    1.98    1.78   1
  -2   3  -7  208.62    7.71   1
   2   3   7  230.01   12.14   3
  -2   3  -7  209.56    7.37   2
  -2  -3  -7  218.24    7.94   1
  -3  -3  -7  106.26    5.74   1
  -3   3  -7  100.64    5.80   1
   3   3   7   97.44    8.92   3
  -4   3  -7  242.77    9.36   1
  -4  -3  -7  233.84    9.09   1
   4   3   7  253.85   14.37   3
  -5  -3  -7  106.06    6.34   1
  -5   3  -7   97.72    6.28   1
   5   3   7  110.61   10.30   3
   6   3   7  225.88   14.85   3
  -6   3  -7  230.63    9.88   1
  -6  -3  -7  233.35    9.75   1
   7   3   7    9.90    7.44   3
  -7  -3  -7   19.24    4.18   1
  -7   3  -7   22.27    4.32   1
  -8   3  -7    2.68    3.35   1
   8   3   7   -0.41    7.49   3
  -8  -3  -7    7.03    3.54   1
  -9  -3  -7   -1.04    3.36   1
  -9   3  -7   -3.57    3.34   1
   9   3   7    2.19    7.00   3
 -10   3  -7   23.49    5.16   1
  10   3   7   23.70    9.32   3
  11   3   7   -9.29    8.95   3
 -11   3  -7    0.77    4.37   1
 -12   3  -7    1.08    4.80   1
  13  -4  -7    2.54    4.64   2
  13   4  -7    5.94    5.35   2
  12   4  -7   14.90    5.70   2
  12  -4  -7   14.99    5.37   2
  11   4  -7    1.54    4.59   2
  11  -4  -7   -0.30    3.82   2
  10   4  -7   34.90    6.05   2
  10  -4  -7   50.00    7.06   2
   9  -4  -7   41.98    6.00   2
   9   4  -7   58.94    6.91   2
   8  -4  -7  304.12   10.40   1
   8  -4  -7  322.93   12.87   2
   8   4  -7  300.84   12.30   2
   7  -4  -7   34.76    4.89   2
   7  -4  -7   41.85    4.06   1
   7   4  -7   45.57    5.18   2
   6  -4  -7  342.40   11.86   2
   6   4  -7  334.56   11.60   2
   6  -4  -7  324.21   10.42   1
   5   4  -7    5.38    2.48   2
   5  -4  -7    3.31    2.04   1
   5  -4  -7    1.22    2.35   2
   4  -4  -7  538.12   13.62   1
   4   4  -7  530.47   13.99   2
   4   4  -7  534.89   10.47   1
   4  -4  -7  494.63   13.61   2
   3   4  -7    8.89    1.55   1
   3  -4  -7   15.45    2.61   1
   3   4  -7   16.04    2.54   2
   3  -4  -7   15.55    2.84   2
   2   4  -7  125.10    4.77   1
   2  -4  -7  125.94    5.60   2
   2  -4  -7  118.99    5.72   1
   1   4  -7   45.13    3.53   2
   1  -4  -7   45.96    3.18   2
   1  -4  -7   52.09    3.82   1
   1   4  -7   45.77    3.33   1
   0  -4  -7    1.77    1.52   2
   0   4  -7    5.29    1.73   2
   0  -4  -7    0.36    1.48   1
   0   4  -7    3.67    1.66   1
   1   4   7   -0.36    3.44   3
  -1  -4  -7   -0.46    1.44   1
  -1   4  -7   -1.04    1.15   2
  -1   4  -7   -1.04    1.27   1
  -2   4  -7  313.86    9.73   1
   2   4   7  313.76   13.80   3
  -2  -4  -7  316.59    9.96   1
  -3   4  -7    0.39    1.91   1
   3   4   7   -7.34    4.51   3
  -3  -4  -7    1.28    1.78   1
   4   4   7  281.84   14.94   3
  -4   4  -7  266.97    9.67   1
  -4  -4  -7  271.53    9.81   1
   5   4   7  129.29   10.94   3
  -5  -4  -7  155.32    7.67   1
  -5   4  -7  136.40    7.20   1
   6   4   7   71.76    9.49   3
  -6   4  -7   70.20    6.01   1
  -6  -4  -7   59.77    5.30   1
  -7  -4  -7   62.09    5.79   1
  -7   4  -7   59.75    5.78   1
   7   4   7   66.22   10.39   3
  -8  -4  -7   25.21    4.69   1
   8   4   7   43.03    9.73   3
  -8   4  -7   29.11    4.87   1
  -9  -4  -7   17.87    4.40   1
   9   4   7   23.99    9.59   3
  -9   4  -7   30.52    5.54   1
  10   4   7    8.78    8.63   3
 -10   4  -7    5.12    4.48   1
  11   4   7   -1.62    9.84   3
 -11   4  -7    2.60    4.52   1
  13  -5  -7    3.66    5.01   2
  13   5  -7    6.70    5.42   2
  12   5  -7   35.84    6.96   2
  12  -5  -7   43.34    7.16   2
  11  -5  -7    0.12    4.28   2
  11   5  -7    0.72    4.60   2
  10  -5  -7   62.73    7.52   2
  10   5  -7   53.70    7.13   2
  10   5  -7   53.16    6.48   3
   9   5  -7   -1.15    4.04   2
   9  -5  -7    3.77    3.71   2
   8   5  -7   31.95    5.03   2
   8  -5  -7   32.24    4.18   1
   8  -5  -7   27.68    5.41   2
   7   5  -7   38.06    4.87   2
   7  -5  -7   37.23    5.03   2
   7  -5  -7   32.53    3.86   1
   6  -5  -7    0.42    1.91   1
   6  -5  -7    6.09    3.03   2
   6   5  -7    3.02    2.76   2
   5   5  -7    1.16    2.17   2
   5  -5  -7    2.89    2.00   1
   5  -5  -7    2.00    2.52   2
   4   5  -7  257.76    6.22   1
   4  -5  -7  276.25    9.42   1
   4  -5  -7  255.02    9.32   2
   4   5  -7  266.16    9.36   2
   3  -5  -7  107.95    5.62   2
   3   5  -7  100.05    5.46   2
   3  -5  -7  100.05    5.47   1
   3   5  -7  106.99    4.03   1
   2   5  -7  425.88   11.69   2
   2  -5  -7  412.73   11.68   1
   2   5  -7  423.43    9.89   1
   2  -5  -7  413.72   10.54   2
   1  -5  -7   10.14    1.97   2
   1   5  -7   19.21    2.35   1
   1  -5  -7   14.45    2.52   1
   1   5  -7   18.74    2.74   2
   0   5  -7 1050.06   21.86   2
   0   5  -7 1057.03   20.61   1
   0   5   7 1051.60   25.94   3
   0  -5  -7 1057.53   18.37   2
   0  -5  -7 1049.94   21.76   1
  -1   5  -7   48.31    3.83   1
   1   5   7   41.51    6.01   3
  -1   5  -7   38.20    3.52   2
  -1  -5  -7   48.46    4.00   1
   2   5   7  240.95   12.56   3
  -2  -5  -7  234.91    8.42   1
  -2   5  -7  223.68    8.07   1
  -3   5  -7    3.90    1.93   1
  -3  -5  -7    4.42    2.34   1
   3   5   7    4.07    5.05   3
   4   5   7  111.67    9.49   3
  -4   5  -7  107.02    6.16   1
  -4  -5  -7   99.23    6.11   1
  -5   5  -7    2.39    2.46   1
   5   5   7    6.90    5.52   3
  -5  -5  -7   -1.01    2.43   1
   6   5   7   11.43    6.18   3
  -6   5  -7    7.78    3.33   1
  -6  -5  -7    4.38    2.98   1
  -7  -5  -7   -4.40    2.65   1
   7   5   7   -8.07    5.45   3
  -7   5  -7    5.00    3.04   1
  -8   5  -7   86.12    7.17   1
  -8  -5  -7   88.52    6.87   1
   8   5   7  124.22   13.01   3
  -9  -5  -7   18.53    4.48   1
  -9   5  -7   14.09    4.42   1
   9   5   7    8.48    8.74   3
 -10   5  -7   41.01    6.22   1
  10   5   7   65.00   11.47   3
  11   5   7  -13.23    8.00   3
 -11   5  -7    9.69    5.43   1
  13  -6  -7   -0.48    4.34   2
  13   6  -7    0.11    5.07   2
  12   6  -7    1.50    4.69   2
  12  -6  -7    4.40    4.67   2
  11   6  -7   -0.18    3.98   3
  11   6  -7   -6.50    4.27   2
  11  -6  -7    0.81    4.14   2
  10  -6  -7  108.67    9.37   2
  10   6  -7   94.88    8.63   2
  10   6  -7  122.83    9.18   3
   9  -6  -7    2.77    3.77   2
   9   6  -7    9.01    4.27   2
   9  -6  -7    2.27    2.83   1
   8  -6  -7  365.35   14.44   2
   8   6  -7  355.41   13.48   2
   8  -6  -7  377.76   12.51   1
   7  -6  -7    4.95    2.37   1
   7  -6  -7    8.58    3.99   2
   7   6  -7    8.04    3.47   2
   6  -6  -7  528.66   14.90   1
   6  -6  -7  552.91   16.10   2
   6   6  -7  535.48   15.58   2
   5   6  -7    9.53    2.76   2
   5  -6  -7   13.70    2.95   1
   5  -6  -7   15.56    3.34   2
   4   6  -7  574.62   15.01   2
   4  -6  -7  565.95   14.74   2
   4  -6  -7  555.35   14.90   1
   3   6  -7   20.40    2.93   2
   3  -6  -7   20.32    2.99   1
   3   6  -7   18.69    2.09   1
   3  -6  -7   22.58    3.24   2
   2   6  -7  124.60    6.03   2
   2  -6  -7  118.21    5.51   2
   2  -6  -7  116.41    6.01   1
   2   6  -7  114.73    4.82   1
   1   6  -7    4.86    1.82   2
   1  -6  -7    3.06    1.70   2
   1  -6  -7    2.07    1.76   1
   1   6  -7    3.24    1.61   1
  -1   6   7   -2.60    2.98   3
   0  -6  -7    6.78    1.47   2
   0   6  -7    4.10    1.92   2
   0   6   7    1.33    3.68   3
   0  -6  -7    5.94    2.24   1
   0   6  -7    7.60    1.95   1
  -1   6  -7    2.62    1.83   2
  -1  -6  -7    2.46    1.97   1
   1   6   7   -1.33    3.95   3
  -1   6  -7    0.44    1.57   1
  -2   6  -7  247.90    8.68   1
   2   6   7  280.72   12.83   3
  -2  -6  -7  250.01    9.09   1
  -3  -6  -7   15.40    2.93   1
   3   6   7   11.34    5.08   3
  -3   6  -7   12.51    2.61   1
   4   6   7  213.15   12.54   3
  -4  -6  -7  191.19    8.23   1
  -4   6  -7  226.80    8.99   1
   5   6   7    1.83    5.86   3
  -5   6  -7    2.89    2.39   1
  -5  -6  -7    3.40    2.59   1
  -6   6  -7  281.87   11.17   1
   6   6   7  274.68   15.53   3
  -6  -6  -7  277.34   10.62   1
   7   6   7   26.47    7.53   3
  -7  -6  -7   15.13    3.71   1
  -7   6  -7    6.66    3.64   1
  -8   6  -7    8.29    3.78   1
   8   6   7   13.36    7.88   3
  -8  -6  -7    6.49    3.50   1
   9   6   7    5.67    7.68   3
  -9   6  -7    5.87    4.20   1
  10   6   7   -4.85    8.66   3
 -10   6  -7   -1.70    3.63   1
  11   6   7   -5.18    9.25   3
 -11   6  -7    1.15    4.80   1
  13  -7  -7    3.56    4.88   2
  13   7  -7    3.54    5.41   2
  12   7  -7   15.67    6.05   2
  12  -7  -7   24.05    6.51   2
  11   7  -7    0.75    3.95   3
  11  -7  -7    2.77    4.54   2
  11   7  -7    0.29    4.74   2
  10   7  -7   16.51    4.95   3
  10  -7  -7   17.91    5.28   2
  10   7  -7    9.08    5.02   2
   9  -7  -7   14.83    3.61   1
   9  -7  -7   11.09    4.84   2
   9   7  -7   15.21    4.97   2
   8  -7  -7   42.14    4.89   1
   8   7  -7   34.10    5.42   2
   8  -7  -7   32.38    5.40   2
   7  -7  -7    3.36    2.45   1
   7   7  -7    2.70    3.15   2
   7  -7  -7   -1.59    3.13   2
   6  -7  -7  265.87   10.85   2
   6   7  -7  249.41   10.23   2
   6  -7  -7  262.83   10.14   1
   5  -7  -7   -0.89    2.27   2
   5   7  -7   -1.77    2.14   2
   5  -7  -7    2.03    2.12   1
   4   7  -7  584.25   15.84   2
   4  -7  -7  661.41   16.81   1
   4  -7  -7  626.17   15.99   2
   3  -7  -7  118.60    6.53   1
   3   7  -7  143.88    4.98   1
   3  -7  -7  132.84    6.37   2
   3   7  -7  131.02    6.52   2
   2  -7  -7  594.86   13.98   2
   2  -7  -7  619.87   15.91   1
   2   7  -7  610.38   12.96   1
   2   7  -7  601.60   15.55   2
   1  -7  -7   55.50    3.61   2
   1  -7  -7   60.43    4.72   1
   1   7  -7   52.25    3.62   1
   1   7  -7   56.30    4.54   2
  -1   7   7   61.47    6.05   3
   0   7  -7  351.48    9.74   1
   0   7   7  331.32   13.24   3
   0   7  -7  342.36   11.03   2
   0  -7  -7  377.32   11.57   1
  -1   7  -7    1.07    1.56   1
  -1  -7  -7    3.07    2.24   1
   1   7   7    2.09    4.00   3
  -1   7  -7    0.48    1.72   2
  -2  -7  -7  259.55    9.57   1
  -2   7  -7  277.23    9.32   1
   2   7   7  284.51   13.29   3
  -3  -7  -7   11.37    2.84   1
   3   7   7   10.87    4.79   3
  -3   7  -7    6.66    2.59   1
  -4  -7  -7  496.85   14.30   1
  -4   7  -7  516.55   14.49   1
   4   7   7  480.90   18.98   3
  -5   7  -7   56.89    5.35   1
   5   7   7   43.19    7.70   3
  -5  -7  -7   57.08    5.01   1
  -6  -7  -7   76.35    5.97   1
  -6   7  -7   60.92    5.84   1
   6   7   7   88.99    9.82   3
  -7  -7  -7   18.98    3.90   1
  -7   7  -7   22.52    4.41   1
   7   7   7   16.93    7.43   3
  -8  -7  -7   12.58    3.73   1
  -8   7  -7   12.98    4.16   1
   8   7   7    5.43    7.44   3
  -9   7  -7   -0.52    3.49   1
   9   7   7   -0.34    7.89   3
  10   7   7   54.15   12.29   3
 -10   7  -7   65.85    7.75   1
  11   7   7   -7.73    9.50   3
 -11   7  -7    8.30    5.21   1
  13   8  -7    1.96    5.39   2
  13  -8  -7    4.88    5.41   2
  12   8  -7   -1.37    5.27   2
  12  -8  -7    2.38    4.47   2
  12   8  -7   -0.02    4.49   3
  11   8  -7    4.77    4.91   2
  11   8  -7    1.11    4.20   3
  11  -8  -7   -1.33    3.92   2
  10   8  -7   13.15    5.13   2
  10  -8  -7   20.95    5.62   2
  10   8  -7   30.94    5.78   3
   9   8  -7    2.05    3.83   2
   9  -8  -7    3.19    3.80   2
   9  -8  -7   -0.19    2.62   1
   8  -8  -7   94.71    7.96   2
   8  -8  -7   97.70    6.97   1
   8   8  -7   92.63    7.25   2
   7   8  -7   19.62    4.13   2
   7  -8  -7   30.62    5.13   2
   7  -8  -7   27.86    4.18   1
   6   8  -7  268.10   10.72   2
   6  -8  -7  258.20   10.50   1
   6  -8  -7  246.16   11.08   2
   5  -8  -7   17.32    3.33   1
   5  -8  -7   16.59    3.58   2
   5   8  -7   16.46    3.31   2
   4  -8  -7  580.08   15.49   2
   4  -8  -7  547.98   15.67   1
   4   8  -7  555.25   15.41   2
   3   8  -7   11.60    2.67   2
   3  -8  -7   11.63    2.86   2
   3  -8  -7   15.19    3.11   1
   3   8  -7   14.30    2.07   1
   2  -8  -7  158.58    7.55   1
   2  -8  -7  174.78    6.86   2
   2   8  -7  170.30    5.96   1
   2   8  -7  169.54    7.81   2
  -1   8   7   91.76    7.32   3
   1   8  -7  102.20    5.96   2
   1  -8  -7  101.04    6.22   1
   1   8  -7   95.57    4.73   1
   1  -8  -7  103.79    4.64   2
   0   8   7   82.64    6.97   3
   0   8  -7   71.90    4.54   1
   0   8  -7   86.14    5.56   2
   0  -8  -7   79.92    5.50   1
  -1   8  -7    0.21    1.65   1
  -1   8  -7    1.77    1.95   2
   1   8   7   -0.06    3.81   3
  -1  -8  -7   -0.73    1.68   1
   2   8   7  168.25   10.66   3
  -2  -8  -7  159.85    7.73   1
  -2   8  -7  170.86    7.40   1
   3   8   7    7.96    5.00   3
  -3   8  -7    4.88    2.30   1
  -3  -8  -7    4.17    2.53   1
  -4  -8  -7  187.43    8.48   1
   4   8   7  156.47   11.69   3
  -4   8  -7  156.63    7.85   1
   5   8   7   82.95    9.45   3
  -5   8  -7  100.32    6.88   1
  -5  -8  -7   87.50    6.35   1
  -6  -8  -7  126.73    7.38   1
   6   8   7  156.05   12.91   3
  -6   8  -7  137.92    8.07   1
   7   8   7   28.10    7.60   3
  -7   8  -7   32.90    5.31   1
  -7  -8  -7   32.72    4.75   1
   8   8   7   29.62    8.24   3
  -8   8  -7   25.36    5.27   1
   9   8   7   -9.27    7.48   3
  -9   8  -7   -0.48    4.07   1
  10   8   7   -8.83    8.64   3
 -10   8  -7    2.01    4.32   1
  11   8   7   -5.26    8.71   3
  12  -9  -7   -0.44    4.55   2
  12   9  -7    4.22    5.43   2
  12   9  -7    0.15    4.51   3
  11  -9  -7    6.27    5.03   2
  11   9  -7    3.11    4.43   3
  11   9  -7    1.48    4.65   2
  10   9  -7   55.66    7.50   3
  10   9  -7   58.16    7.30   2
  10  -9  -7   64.31    7.81   2
 -10   9   7   70.87    6.92   1
   9  -9  -7    1.86    3.02   1
   9   9  -7   -0.77    3.55   2
   9  -9  -7    3.40    3.86   2
   8  -9  -7   92.63    7.97   2
   8  -9  -7   98.96    7.21   1
   8   9  -7   86.17    7.56   2
   7  -9  -7   37.99    5.48   2
   7   9  -7   35.37    5.09   2
   7  -9  -7   38.69    4.70   1
   6   9  -7  121.96    7.57   2
   6  -9  -7  103.29    7.08   1
   6  -9  -7  109.90    7.61   2
   5   9  -7   -0.68    2.31   2
   5  -9  -7   -0.98    2.57   2
   5  -9  -7    2.50    2.32   1
   4   9  -7  266.15   10.18   2
   4  -9  -7  274.91   10.68   1
   4  -9  -7  271.40   10.32   2
   3  -9  -7   15.67    3.34   1
   3  -9  -7   21.58    3.36   2
   3   9  -7    9.63    2.72   2
   2   9  -7  291.51    8.24   1
   2  -9  -7  288.14    9.24   2
   2   9  -7  293.61   10.70   2
   2  -9  -7  296.37   11.01   1
   1   9  -7   32.96    3.98   2
  -1   9   7   20.00    4.83   3
   1  -9  -7   21.00    3.51   1
   1   9  -7   27.33    3.07   1
   0   9  -7 1301.53   27.66   2
   0   9  -7 1200.44   24.28   1
   0  -9  -7 1328.37   27.48   1
   0   9   7 1281.47   29.84   3
   1   9   7   24.47    5.09   3
  -1  -9  -7   30.14    4.05   1
  -1   9  -7   21.90    3.53   2
  -1   9  -7   22.16    3.18   1
   2   9   7   16.57    5.06   3
  -2  -9  -7   19.73    3.61   1
  -2   9  -7   17.24    3.06   1
  -3   9  -7   59.49    5.02   1
   3   9   7   85.22    8.35   3
  -3  -9  -7   72.22    5.82   1
   4   9   7   -0.18    4.48   3
  -4  -9  -7    2.96    2.43   1
  -4   9  -7   -0.30    2.15   1
  -5   9  -7   94.67    6.83   1
   5   9   7   88.23    9.72   3
  -5  -9  -7   93.01    6.57   1
  -6   9  -7   36.26    4.93   1
   6   9   7   40.31    8.26   3
  -6  -9  -7   29.66    4.44   1
   7   9   7    2.59    6.44   3
  -7   9  -7   16.74    4.49   1
  -7  -9  -7    8.57    3.42   1
  -8   9  -7   12.43    4.46   1
   8   9   7   16.88    8.08   3
   9   9   7   -3.32    7.07   3
  -9   9  -7   -0.30    4.07   1
  10   9   7   76.16   12.59   3
 -10   9  -7   43.30    6.80   1
  12  10  -7    4.56    5.26   3
  12 -10  -7    5.69    5.22   2
  12  10  -7   -0.87    5.41   2
  11 -10  -7   -0.93    4.18   2
  11  10  -7    0.70    4.52   2
  11  10  -7   -2.40    4.08   3
  10  10  -7    3.26    4.55   2
  10 -10  -7    0.95    4.10   2
  10  10  -7    3.08    4.32   3
 -10  10   7    3.28    3.81   1
   9 -10  -7    4.53    4.51   2
   9  10  -7   -1.47    3.75   2
   9 -10  -7    8.64    3.75   1
   8 -10  -7   45.97    6.37   2
   8  10  -7   35.72    5.36   2
   8 -10  -7   42.90    5.40   1
   7 -10  -7   26.21    4.44   1
   7  10  -7   28.61    4.60   2
   7 -10  -7   30.83    5.36   2
   6  10  -7  138.27    8.10   2
   6 -10  -7  129.89    7.85   1
   6 -10  -7  124.04    8.27   2
   5 -10  -7   -0.44    2.24   1
   5 -10  -7    0.80    2.87   2
   5  10  -7    2.66    2.29   2
   4 -10  -7  198.47    8.97   2
   4  10  -7  189.87    8.82   2
   4 -10  -7  190.85    9.25   1
   3 -10  -7   59.73    4.89   2
   3  10  -7   57.82    5.08   2
   3 -10  -7   53.70    5.19   1
   2 -10  -7  104.74    6.78   1
   2  10  -7  128.65    5.42   1
   2  10  -7  114.18    6.82   2
   2 -10  -7  124.02    6.08   2
   1  10  -7   -0.50    1.99   2
   1 -10  -7    3.90    2.63   1
   1  10  -7    5.78    2.00   1
  -1  10   7   -3.81    3.56   3
   0  10  -7   -0.12    1.80   1
   0  10   7   -4.10    3.57   3
   0  10  -7    3.42    2.25   2
   0 -10  -7    1.09    2.10   1
  -1  10  -7   40.89    3.91   1
  -1 -10  -7   46.69    4.81   1
   1  10   7   58.66    6.52   3
  -1  10  -7   48.02    4.86   2
  -2  10  -7   70.41    5.10   1
   2  10   7   57.87    6.83   3
  -2 -10  -7   50.31    5.17   1
  -3  10  -7    7.71    2.62   1
  -3 -10  -7    8.65    3.22   1
   3  10   7   19.54    5.55   3
  -4 -10  -7   33.06    4.41   1
   4  10   7   34.44    6.48   3
  -4  10  -7   35.70    4.50   1
   5  10   7   -0.97    5.16   3
  -5 -10  -7   -0.80    2.49   1
  -5  10  -7   -2.45    2.56   1
  -6 -10  -7   64.52    5.98   1
   6  10   7   59.21    8.75   3
  -6  10  -7   61.78    6.29   1
   7  10   7    2.02    6.00   3
  -7  10  -7    4.00    3.81   1
  -7 -10  -7   -0.36    2.95   1
   8  10   7   80.11   10.91   3
   9  10   7    5.92    8.46   3
  -9  10  -7    1.38    4.08   1
  10  10   7   18.38    9.75   3
 -10  10  -7   24.07    6.42   1
  12  11  -7   16.93    6.16   2
  12 -11  -7   10.11    6.17   2
  12  11  -7    5.04    5.24   3
  11  11  -7    1.63    4.42   3
  11 -11  -7    0.76    4.86   2
  11  11  -7    2.61    5.05   2
  10 -11  -7   35.25    6.57   2
  10  11  -7   29.22    6.18   2
 -10  11   7   44.25    6.19   1
  10  11  -7   34.13    6.52   3
   9 -11  -7   10.06    4.55   2
   9 -11  -7   10.68    3.90   1
   9  11  -7    8.47    4.24   2
   8 -11  -7    1.23    3.00   1
   8 -11  -7    2.62    3.88   2
   8  11  -7    4.57    3.85   2
   7 -11  -7   -1.23    3.15   2
   7 -11  -7   -2.98    2.56   1
   7  11  -7    0.30    2.99   2
   6 -11  -7   19.48    4.37   2
   6 -11  -7   17.19    3.97   1
   6  11  -7   15.63    3.91   2
   5 -11  -7    4.03    2.88   1
   5  11  -7    3.48    2.57   2
   5 -11  -7    2.21    2.75   2
   4 -11  -7  193.56    9.67   1
   4 -11  -7  197.85    9.19   2
   4  11  -7  207.13    9.40   2
   3 -11  -7   -0.83    2.03   2
   3  11  -7    3.13    2.43   2
   3 -11  -7    1.65    2.31   1
   2 -11  -7  957.83   23.61   1
   2  11  -7  973.14   23.41   2
   1  11  -7   39.74    4.80   2
   1  11  -7   34.76    3.38   1
   1 -11  -7   40.19    4.76   1
   0  11  -7  322.69   12.09   2
   0  11   7  286.13   12.46   3
   0 -11  -7  317.79   11.81   1
   0  11  -7  306.44    9.71   1
  -1 -11  -7    1.27    2.35   1
   1  11   7   -0.26    3.83   3
  -1  11  -7    2.90    2.40   2
  -1  11  -7    0.05    2.05   1
   2  11   7  225.88   12.11   3
  -2  11  -7  223.84    8.98   1
  -2 -11  -7  228.69   10.00   1
  -3  11  -7   21.77    3.79   1
   3  11   7   19.80    5.84   3
  -3 -11  -7   16.56    3.78   1
   4  11   7   14.91    5.89   3
  -4 -11  -7   21.81    3.91   1
  -4  11  -7   16.38    3.58   1
  -5 -11  -7    3.46    3.08   1
  -5  11  -7    2.39    3.05   1
   5  11   7   -3.04    4.97   3
  -6 -11  -7   12.06    3.97   1
   6  11   7   12.79    6.76   3
  -6  11  -7   17.67    4.18   1
  -7  11  -7    6.97    4.01   1
   7  11   7   10.87    7.06   3
   8  11   7    5.59    7.35   3
  -8  11  -7    1.46    4.13   1
  -9  11  -7    8.41    5.20   1
   9  11   7    3.35    8.30   3
  10  11   7    7.08    9.03   3
  11  12  -7   -1.63    4.60   3
 -11  12   7    0.45    4.11   1
  11  12  -7   -2.11    4.52   2
  11 -12  -7    1.09    4.61   2
  10 -12  -7   -0.39    4.16   2
 -10  12   7    0.82    3.89   1
  10  12  -7   -1.39    4.10   2
  10  12  -7    3.95    4.69   3
   9  12  -7   -2.67    3.87   2
   9 -12  -7   -1.07    3.56   2
  -9  12   7   -4.62    3.19   1
   9 -12  -7   -0.61    3.11   1
   8  12  -7   63.11    6.91   2
   8 -12  -7   82.66    7.95   2
   8 -12  -7   65.11    6.70   1
   7 -12  -7    7.70    3.58   1
   7  12  -7    3.96    3.44   2
   7 -12  -7    0.06    3.11   2
   6 -12  -7  119.31    8.30   2
   6  12  -7  121.67    7.75   2
   6 -12  -7  129.70    8.27   1
   5 -12  -7    8.70    3.56   1
   5  12  -7   17.94    3.86   2
   5 -12  -7    7.80    3.39   2
   4  12  -7   96.51    6.76   2
   4 -12  -7   87.30    6.86   1
   4 -12  -7   90.44    6.58   2
   3 -12  -7    9.49    3.22   1
   3  12  -7   24.89    3.97   2
   2  12  -7   -0.45    1.97   2
   2 -12  -7    0.33    2.61   1
   1  12  -7   20.68    2.89   1
   1  12  -7   16.15    3.63   2
   1 -12  -7   25.25    4.19   1
   0  12  -7    5.96    3.02   2
   0  12  -7   11.78    2.66   1
   0  12   7    3.82    3.94   3
   0 -12  -7    8.73    3.21   1
  -1  12  -7    2.16    2.31   1
  -1  12  -7    4.47    2.84   2
  -1 -12  -7    6.29    3.11   1
   1  12   7    5.67    4.20   3
   2  12   7  100.89    8.45   3
  -2  12  -7   94.33    6.16   1
  -2 -12  -7   93.00    6.76   1
  -3  12  -7   18.91    3.60   1
  -3 -12  -7   23.30    4.15   1
   3  12   7    5.54    4.74   3
  -4  12  -7  163.56    8.73   1
  -4 -12  -7  147.28    8.67   1
   4  12   7  159.79   11.89   3
  -5  12  -7   11.32    3.83   1
   5  12   7    3.56    5.69   3
  -5 -12  -7    5.56    3.33   1
  -6  12  -7  158.25    9.32   1
   6  12   7  146.46   12.71   3
  -6 -12  -7  138.24    8.69   1
  -7  12  -7    4.53    4.10   1
   7  12   7    0.93    6.04   3
  -8  12  -7   74.64    8.01   1
   8  12   7   56.44   10.77   3
  -9  12  -7    2.12    4.92   1
   9  12   7   10.05    8.45   3
 -11  13   7   12.88    5.37   1
  11  13  -7   11.21    5.94   3
  11  13  -7    8.34    5.45   2
  11 -13  -7    2.84    5.02   2
  10  13  -7   28.01    6.83   3
 -10  13   7   34.37    6.26   1
  10 -13  -7   31.79    6.89   2
  10  13  -7   26.02    6.29   2
  -9  13   7    2.43    3.84   1
   9 -13  -7    1.44    3.56   1
   9 -13  -7    2.48    4.07   2
   9  13  -7    1.96    4.13   2
   8 -13  -7    7.12    4.15   2
   8 -13  -7   -0.53    3.17   1
   8  13  -7    4.43    3.94   2
   7 -13  -7   21.39    4.70   1
   7  13  -7   24.82    4.85   2
   7 -13  -7   24.01    5.07   2
   6 -13  -7    7.97    3.83   2
   6 -13  -7    5.96    3.55   1
   6  13  -7    8.11    3.43   2
   5 -13  -7  133.56    8.68   1
   5  13  -7  135.33    8.33   2
   4  13  -7   78.99    6.33   2
   4 -13  -7   62.24    6.22   1
   3 -13  -7   49.27    5.78   1
   3  13  -7   51.58    5.46   2
   2 -13  -7    3.51    2.84   1
   2  13  -7    1.58    2.57   2
   1 -13  -7  523.20   16.96   1
   1  13  -7  514.60   16.62   2
   1  13  -7  526.29   13.44   1
   0 -13  -7  236.43   10.93   1
   0  13  -7  248.18   11.09   2
   0  13  -7  248.64    8.96   1
  -1 -13  -7   -1.45    2.41   1
  -1  13  -7    1.12    2.25   1
   1  13   7   -2.20    3.99   3
  -1  13  -7    1.10    2.77   2
  -2  13  -7   97.42    6.47   1
   2  13   7  120.30    9.54   3
  -2 -13  -7  131.06    8.13   1
  -3  13  -7   46.74    4.91   1
  -3 -13  -7   43.66    5.34   1
   3  13   7   42.15    6.86   3
  -4  13  -7  107.27    7.42   1
  -4 -13  -7   91.57    7.34   1
   4  13   7   96.19    9.75   3
   5  13   7    4.97    5.92   3
  -5  13  -7    8.44    3.89   1
  -5 -13  -7    8.35    3.73   1
   6  13   7   14.60    7.11   3
  -6  13  -7    1.08    3.25   1
  -7  13  -7    0.55    3.81   1
   7  13   7   -4.38    6.30   3
  -8  13  -7    0.82    4.15   1
   8  13   7    7.36    7.50   3
   9  13   7  -11.53    8.26   3
  10  14  -7    7.43    5.44   3
 -10  14   7    6.13    4.71   1
  10 -14  -7   11.25    5.30   2
  10  14  -7   -2.33    4.81   2
   9  14  -7    5.40    4.78   3
   9 -14  -7    3.58    4.02   1
  -9  14   7    6.94    4.54   1
   9 -14  -7   -2.19    3.89   2
   9  14  -7    0.24    4.36   2
   8  14  -7   51.80    6.63   2
   8 -14  -7   44.20    6.15   1
   8 -14  -7   34.91    6.32   2
   7 -14  -7    2.12    3.54   1
   7  14  -7    5.16    3.75   2
   6  14  -7   78.01    6.86   2
   6 -14  -7   73.07    7.00   1
   5 -14  -7   20.53    4.44   1
   5  14  -7   19.23    4.24   2
   4  14  -7   37.37    4.91   2
   4 -14  -7   37.68    5.48   1
   3 -14  -7   12.73    3.96   1
   3  14  -7   20.85    4.07   2
   2  14  -7   16.77    3.91   2
   2 -14  -7   13.75    3.93   1
   1 -14  -7   -0.54    2.93   1
   1  14  -7    0.57    2.41   2
   0 -14  -7   40.14    5.47   1
   0  14  -7   44.08    5.46   2
   0  14  -7   39.77    4.23   1
  -1  14  -7   38.59    5.34   2
   1  14   7   30.46    5.94   3
  -1 -14  -7   32.64    4.96   1
  -1  14  -7   38.21    4.35   1
   2  14   7  139.24   10.37   3
  -2  14  -7  132.98    7.56   1
  -2 -14  -7  138.92    8.75   1
  -3 -14  -7   29.31    4.78   1
  -3  14  -7   43.38    5.20   1
   3  14   7   29.29    6.30   3
  -4  14  -7  242.68   10.96   1
   4  14   7  237.50   14.29   3
  -4 -14  -7  225.84   11.25   1
  -5  14  -7    9.08    4.13   1
  -5 -14  -7   17.83    4.55   1
   5  14   7   16.71    6.82   3
   6  14   7  116.67   11.69   3
  -6  14  -7  121.88    8.71   1
  -7  14  -7    0.55    3.83   1
   7  14   7    1.51    6.83   3
  -8  14  -7   32.60    6.57   1
   8  14   7   26.14    9.59   3
  10  15  -7   18.53    6.98   3
  10  15  -7    1.69    5.06   2
 -10  15   7   10.45    5.41   1
   9  15  -7    3.49    4.81   2
  -9  15   7    4.90    4.17   1
   9  15  -7   11.90    5.78   3
   8  15  -7   15.08    4.74   2
   8 -15  -7    4.01    3.63   1
   7 -15  -7    0.42    3.28   1
   7  15  -7    1.67    3.57   2
   6  15  -7    5.25    3.52   2
   6 -15  -7    1.04    2.95   1
   5  15  -7   10.60    3.72   2
   5 -15  -7    5.44    3.36   1
   4 -15  -7   32.37    5.26   1
   4  15  -7   34.95    5.07   2
   3 -15  -7   77.07    7.35   1
   3  15  -7   72.17    6.61   2
   2  15  -7  124.69    8.41   2
   2 -15  -7  123.10    8.77   1
   1 -15  -7   20.25    4.70   1
   1  15  -7   14.92    4.16   2
   0 -15  -7  438.14   16.05   1
   0  15  -7  462.23   13.39   1
   0  15  -7  442.51   16.15   2
  -1  15  -7   28.83    5.03   2
  -1  15  -7   40.47    4.66   1
  -1 -15  -7   27.30    4.94   1
  -2  15  -7  267.31   10.66   1
  -2  15  -7  264.84   12.73   2
   2  15   7  247.78   13.28   3
  -2 -15  -7  282.98   12.70   1
  -3  15  -7    0.95    2.77   1
  -3 -15  -7    1.57    3.37   1
   3  15   7   -2.47    4.53   3
  -4  15  -7   48.88    6.00   1
   4  15   7   59.86    8.49   3
  -4 -15  -7   50.68    6.19   1
   5  15   7    7.56    6.26   3
  -5  15  -7   14.95    4.63   1
  -6  15  -7    1.15    3.57   1
   6  15   7  -10.38    5.11   3
   7  15   7   -5.86    6.74   3
  -7  15  -7   -3.23    3.81   1
   8  15   7   -3.39    7.95   3
  -9  16   7    5.69    5.33   1
   9  16  -7    6.14    5.21   2
   9  16  -7    8.66    5.37   3
   8  16  -7   56.71    7.23   2
   8 -16  -7   48.54    7.02   1
   7 -16  -7    3.04    3.65   1
   7  16  -7    0.04    3.35   2
   6  16  -7   57.91    6.48   2
   6 -16  -7   53.54    6.88   1
   5  16  -7   -2.44    2.61   2
   5 -16  -7    0.02    3.00   1
   4 -16  -7   73.74    7.38   1
   4  16  -7   65.90    6.52   2
   3  16  -7    1.47    3.04   2
   3 -16  -7    4.22    3.64   1
   2 -16  -7   15.94    4.43   1
   2  16  -7   17.09    4.33   2
   1  16  -7   -0.96    2.49   2
   1 -16  -7    0.84    3.39   1
   0 -16  -7    2.61    3.64   1
   0  16  -7    2.02    2.69   2
  -1  16  -7   14.50    4.31   2
  -1  16  -7   29.81    4.31   1
  -1 -16  -7   26.81    5.31   1
  -2  16  -7   89.50    8.25   2
  -2 -16  -7   95.16    8.23   1
  -2  16  -7   80.99    6.42   1
   3  16   7    0.07    4.90   3
  -3 -16  -7    4.44    3.58   1
  -3  16  -7    3.52    3.05   1
  -4 -16  -7  154.50    9.74   1
  -4  16  -7  151.41    9.47   1
   4  16   7  170.88   12.82   3
   5  16   7   -0.45    5.93   3
  -5  16  -7    2.00    3.82   1
  -6  16  -7   96.89    8.47   1
   6  16   7  117.13   12.51   3
   7  16   7    0.01    7.77   3
   8  17  -7   -2.47    3.98   2
   8 -17  -7   -3.69    3.68   1
   7  17  -7   -5.03    3.32   2
   7 -17  -7   -1.35    3.65   1
   6 -17  -7    5.43    3.89   1
   6  17  -7    3.00    3.68   2
   5 -17  -7    0.18    3.39   1
   5  17  -7   -0.02    3.13   2
   4 -17  -7   50.02    6.67   1
   4  17  -7   68.58    6.83   2
   3  17  -7    2.15    3.02   2
   3 -17  -7    6.14    4.06   1
   2 -17  -7  173.92   10.58   1
   2  17  -7  151.38    9.56   2
   1  17  -7    0.52    2.87   2
   1 -17  -7    3.38    3.50   1
   0  17  -7  227.81   12.04   2
   0 -17  -7  215.94   11.92   1
  -1 -17  -7   26.04    5.43   1
  -1  17  -7   21.89    4.24   1
  -1  17  -7   29.69    5.53   2
  -2 -17  -7  171.12   10.64   1
  -2  17  -7  156.42   10.61   2
  -2  17  -7  152.19    8.75   1
  -3 -17  -7   13.52    4.68   1
   3  17   7   10.26    5.96   3
  -3  17  -7   19.93    4.51   1
   4  17   7   69.39    9.53   3
  -4  17  -7   83.51    7.67   1
  -5  17  -7    5.60    4.11   1
   5  17   7   -2.09    6.15   3
  -6  17  -7    2.99    4.41   1
   6  17   7   -2.44    6.39   3
   8  18  -7   38.29    6.71   2
   7  18  -7   -0.73    3.93   2
   6  18  -7   36.74    5.90   2
   6 -18  -7   32.26    6.15   1
   5 -18  -7    5.31    4.04   1
   5  18  -7    0.94    3.63   2
   4 -18  -7   59.64    7.50   1
   4  18  -7   60.17    6.68   2
   3  18  -7    4.47    3.65   2
   3 -18  -7    8.33    4.53   1
   2 -18  -7   21.56    5.24   1
   2  18  -7   16.11    4.54   2
   1 -18  -7    4.17    3.89   1
   1  18  -7    2.67    3.14   2
   0  18  -7    4.41    3.40   2
   0 -18  -7   -0.37    3.74   1
  -1 -18  -7   -2.75    3.45   1
  -1  18  -7   -0.81    2.78   2
  -2  18  -7   35.78    5.42   1
  -2 -18  -7   61.98    7.23   1
  -2  18  -7   67.59    7.62   2
  -3  18  -7   -0.86    2.85   1
  -3  18  -7   -2.74    3.00   2
  -3 -18  -7    3.34    3.96   1
  -4  18  -7   48.69    6.53   1
   4  18   7   39.64    8.25   3
   5  18   7   -3.55    6.08   3
  -5  18  -7    7.28    4.76   1
   6  18   7   30.81    9.31   3
   6  19  -7   -0.62    3.77   2
   5  19  -7    1.06    3.60   2
   5 -19  -7    3.31    4.57   1
   4 -19  -7   10.70    4.80   1
   4  19  -7   17.84    4.88   2
   3 -19  -7   13.55    5.14   1
   3  19  -7   15.86    4.62   2
   2 -19  -7   55.32    7.41   1
   2  19  -7   50.79    6.61   2
   1 -19  -7   10.43    4.91   1
   1  19  -7    8.27    4.15   2
   0 -19  -7   83.22    8.56   1
   0  19  -7   69.49    7.82   2
  -1  19  -7   17.70    5.12   2
  -1 -19  -7   11.81    5.00   1
  -2  19  -7   25.14    5.79   2
  -2 -19  -7   28.88    6.03   1
  -2  19  -7   33.15    5.39   1
  -3  19  -7   -0.07    3.71   2
  -3  19  -7    1.75    3.84   1
  -4  19  -7    3.03    4.18   1
   5  20  -7    5.33    4.23   2
   4  20  -7   25.68    5.51   2
   3  20  -7   23.09    5.29   2
   3 -20  -7   16.48    5.38   1
   2  20  -7    6.06    4.01   2
   2 -20  -7   11.86    4.79   1
   1 -20  -7   12.09    5.24   1
   1  20  -7   15.95    4.91   2
   0 -20  -7   -1.31    3.98   1
   0  20  -7   -0.98    3.06   2
  -1 -20  -7    4.34    4.31   1
  -1  20  -7    0.28    3.30   2
  -2  20  -7   11.75    5.26   2
  -2 -20  -7    8.60    5.03   1
  -3  20  -7    1.44    4.33   2
  -3  20  -7    1.78    3.71   1
   3  21  -7    7.64    4.25   2
   2  21  -7   86.77    8.89   2
   1 -21  -7   -1.94    4.06   1
   1  21  -7    6.42    4.35   2
   0 -21  -7   62.40    7.96   1
   0  21  -7   60.69    8.03   2
  -1 -21  -7    8.41    4.86   1
  -1  21  -7    4.70    4.14   2
  13   0  -8    0.63    4.65   2
  12   0  -8   -0.45    4.69   2
  11   0  -8   -0.06    4.07   2
  10   0  -8  151.42   10.50   2
   9   0  -8   -3.07    3.97   2
   8   0  -8    0.42    3.60   2
   7   0  -8    0.90    3.24   2
   6   0  -8   37.99    3.31   1
   6   0  -8   34.92    4.89   2
   5   0  -8   -1.91    1.24   1
   5   0  -8   -2.60    2.30   2
   4   0  -8  184.25    7.86   2
   4   0  -8  178.80    6.35   1
   3   0  -8   -1.50    1.71   2
   3   0  -8   -1.13    1.27   1
   2   0  -8  476.03   11.48   1
   2   0  -8  476.21   12.02   2
   1   0  -8   -0.11    1.46   1
   1   0  -8    1.03    1.46   2
   0   0  -8 1898.01   32.37   2
   0   0  -8 1846.48   33.19   1
  -1   0  -8    0.75    1.24   2
  -1   0  -8   -0.95    1.52   1
  -2   0  -8   33.11    2.67   2
  -2   0  -8   38.44    3.83   1
  -3   0  -8   -0.78    1.20   2
  -3   0  -8    1.92    2.10   1
  -4   0  -8  282.98   10.40   1
  -5   0  -8   -2.34    2.43   1
  -6   0  -8  610.27   17.37   1
  -7   0  -8   -1.19    3.31   1
  -8   0  -8   73.11    6.88   1
  -9   0  -8   -2.10    3.62   1
 -10   0  -8   43.68    6.45   1
 -11   0  -8   -2.81    4.29   1
  13   1  -8    0.65    4.69   2
  13  -1  -8   -0.35    4.37   2
  12   1  -8   -1.47    4.44   2
  12  -1  -8   -1.32    4.20   2
  11   1  -8    8.59    4.71   2
  11  -1  -8    2.12    4.28   2
  10   1  -8   -3.85    3.70   2
  10  -1  -8    6.75    4.40   2
   9   1  -8    8.73    4.42   2
   9  -1  -8    7.67    4.63   2
   8  -1  -8   11.97    4.44   2
   8   1  -8   10.65    4.32   2
   7   1  -8    5.24    3.41   2
   7  -1  -8    6.40    3.65   2
   6  -1  -8  208.61    7.34   1
   6   1  -8  192.71    9.15   2
   6  -1  -8  202.94    9.59   2
   5  -1  -8    1.73    2.79   2
   5   1  -8   -3.00    2.24   2
   5  -1  -8   -1.15    1.34   1
   5   1  -8    1.07    1.37   1
   4  -1  -8  303.11    8.99   1
   4   1  -8  313.59    8.48   1
   4  -1  -8  289.95   10.07   2
   4   1  -8  302.21   10.19   2
   3   1  -8   10.77    1.95   1
   3   1  -8    4.28    2.07   2
   3  -1  -8    5.85    1.84   1
   3  -1  -8    4.41    2.45   2
   2   1  -8    3.83    1.74   2
   2   1  -8    6.46    1.81   1
   2  -1  -8    7.42    2.26   2
   2  -1  -8    8.94    2.02   1
   1   1  -8    6.56    1.89   1
   1  -1  -8    3.56    1.72   1
   1   1  -8    8.90    1.97   2
   1  -1  -8    9.89    2.10   2
   0  -1  -8   62.44    3.56   2
   0  -1  -8   68.41    4.40   1
   0   1  -8   64.74    4.25   1
   0   1  -8   65.35    3.79   2
  -1  -1  -8   29.22    2.46   2
  -1   1  -8   25.19    3.20   1
  -1  -1  -8   25.22    3.13   1
  -1   1  -8   28.29    2.70   2
  -2  -1  -8  246.31    8.91   1
  -2   1  -8  235.14    7.34   2
  -2   1  -8  238.11    8.85   1
  -2  -1  -8  243.72    6.66   2
  -3   1  -8   -0.64    2.01   1
  -3   1  -8    3.43    1.57   2
  -3  -1  -8    1.91    2.26   1
  -4  -1  -8  484.51   13.96   1
  -4   1  -8  465.65   13.89   1
  -5   1  -8   67.64    5.81   1
  -5  -1  -8   77.82    6.14   1
  -6   1  -8  200.58    9.69   1
  -6  -1  -8  204.00    9.84   1
  -7  -1  -8   23.23    4.56   1
  -7   1  -8   17.97    4.25   1
   7   1   8   14.41    8.07   3
  -8  -1  -8   46.47    5.93   1
   8   1   8   58.57   11.03   3
  -8   1  -8   40.90    5.67   1
  -9   1  -8   11.71    4.82   1
  -9  -1  -8   15.53    4.76   1
 -10   1  -8    9.75    4.62   1
 -10  -1  -8   18.32    5.20   1
 -11   1  -8   13.14    5.50   1
  13   2  -8    2.91    4.93   2
  13  -2  -8    9.68    5.80   2
  12   2  -8   15.12    5.52   2
  12  -2  -8   22.30    6.04   2
  11  -2  -8   -3.96    3.66   2
  11   2  -8    3.18    4.69   2
  10  -2  -8   21.59    5.70   2
  10   2  -8   20.10    5.49   2
   9   2  -8   30.67    5.65   2
   9  -2  -8   33.63    6.05   2
   8  -2  -8   33.84    5.73   2
   8   2  -8   25.19    5.18   2
   7  -2  -8    4.56    2.09   1
   7   2  -8    1.55    3.33   2
   7  -2  -8    3.99    3.88   2
   6  -2  -8   11.67    2.53   1
   6   2  -8   14.66    3.65   2
   6  -2  -8    7.39    3.49   2
   5  -2  -8    9.87    3.18   2
   5  -2  -8   12.09    2.49   1
   5   2  -8   11.72    3.26   2
   5   2  -8    8.63    1.86   1
   4   2  -8  496.95   11.13   1
   4  -2  -8  493.10   12.56   1
   4   2  -8  504.30   13.85   2
   4  -2  -8  501.60   13.76   2
   3  -2  -8   63.76    4.25   1
   3   2  -8   50.89    3.27   1
   3   2  -8   53.86    4.27   2
   3  -2  -8   57.16    4.47   2
   2   2  -8  211.85    6.87   1
   2   2  -8  216.82    7.73   2
   2  -2  -8  228.39    7.77   1
   2  -2  -8  222.08    7.59   2
   1  -2  -8  212.25    6.83   2
   1  -2  -8  206.20    7.43   1
   1   2  -8  215.70    7.36   2
   1   2  -8  207.82    7.12   1
   0   2  -8  609.57   14.03   2
   0  -2  -8  600.94   14.57   1
   0   2  -8  637.63   14.50   1
   0  -2  -8  621.74   12.92   2
  -1  -2  -8  634.69   12.48   2
  -1   2  -8  605.83   13.96   2
  -1  -2  -8  602.44   14.86   1
  -1   2  -8  622.21   14.94   1
  -2   2  -8  847.43   17.80   2
  -2   2  -8  881.74   19.44   1
  -2  -2  -8  836.25   19.04   1
  -3   2  -8  109.62    6.49   1
  -3  -2  -8  116.93    6.37   1
  -3   2  -8  113.04    5.34   2
  -4  -2  -8  164.92    7.83   1
  -4   2  -8  164.06    7.93   1
   4   2   8  170.19   12.50   3
   5   2   8   66.18    9.33   3
  -5   2  -8   56.71    5.46   1
  -5  -2  -8   63.16    5.86   1
  -6   2  -8   50.97    5.52   1
   6   2   8   44.30    9.03   3
  -6  -2  -8   69.42    5.99   1
  -7  -2  -8   24.29    4.45   1
   7   2   8   24.95    8.81   3
  -7   2  -8   13.26    4.28   1
   8   2   8   -2.15    7.71   3
  -8  -2  -8   -0.33    3.03   1
  -8   2  -8   -0.51    3.81   1
   9   2   8   12.62    8.89   3
  -9   2  -8   -3.10    3.63   1
  -9  -2  -8   -3.13    3.64   1
  10   2   8   25.38   10.76   3
 -10  -2  -8   22.81    5.27   1
 -10   2  -8   21.44    5.71   1
 -11   2  -8   -4.66    4.37   1
  11   2   8   -2.13    9.36   3
  13   3  -8   -1.05    4.63   2
  13  -3  -8    3.81    5.15   2
  12   3  -8    8.49    5.43   2
  12  -3  -8    6.08    4.68   2
  11   3  -8    6.02    4.92   2
  11  -3  -8    3.58    4.82   2
  10   3  -8   27.70    5.78   2
  10  -3  -8   30.68    5.80   2
   9   3  -8   10.92    4.56   2
   9  -3  -8    6.12    4.30   2
   8   3  -8  150.13    9.15   2
   8  -3  -8  181.67   10.18   2
   7   3  -8   51.87    5.71   2
   7  -3  -8   51.07    5.76   2
   7  -3  -8   52.51    4.36   1
   6   3  -8  229.85    9.86   2
   6  -3  -8  233.04    8.51   1
   6  -3  -8  237.51   10.39   2
   5  -3  -8    1.56    2.69   2
   5   3  -8    8.68    2.97   2
   5  -3  -8    8.49    2.30   1
   4   3  -8  463.47   10.25   1
   4  -3  -8  472.04   13.20   2
   4   3  -8  451.15   13.11   2
   4  -3  -8  428.15   12.09   1
   3   3  -8   45.02    3.16   1
   3  -3  -8   41.27    4.00   2
   3   3  -8   39.93    3.72   2
   3  -3  -8   40.89    3.66   1
   2   3  -8  139.92    6.17   2
   2  -3  -8  150.57    6.48   1
   2   3  -8  138.77    5.42   1
   2  -3  -8  140.60    6.04   2
   1  -3  -8    1.14    1.75   1
   1   3  -8    0.48    1.63   1
   1  -3  -8    2.32    1.80   2
   1   3  -8   -1.33    1.25   2
   0   3  -8    0.24    1.64   1
   0  -3  -8   -1.95    1.45   2
   0   3  -8    3.30    1.68   2
   0  -3  -8    2.64    1.85   1
  -1  -3  -8    2.41    1.84   1
  -1   3  -8    1.32    1.99   1
  -1  -3  -8   -1.11    1.26   2
  -1   3  -8   -0.21    1.23   2
  -2   3  -8  444.05   11.79   2
  -2  -3  -8  411.72   12.19   1
  -2   3  -8  454.40   12.59   1
   3   3   8   55.81    8.36   3
  -3   3  -8   63.51    5.04   1
  -3  -3  -8   66.81    5.26   1
   4   3   8  232.92   14.26   3
  -4   3  -8  231.75    9.42   1
  -4  -3  -8  242.75    9.48   1
   5   3   8  125.89   12.15   3
  -5   3  -8  129.46    7.47   1
  -5  -3  -8  115.61    7.30   1
  -6  -3  -8  274.74   11.05   1
  -6   3  -8  306.91   11.77   1
   6   3   8  305.28   18.06   3
   7   3   8   65.34   10.94   3
  -7   3  -8   67.00    6.30   1
  -7  -3  -8   70.82    6.27   1
   8   3   8   34.01    9.17   3
  -8   3  -8   39.87    5.65   1
  -8  -3  -8   63.07    6.44   1
   9   3   8   24.43    9.73   3
  -9  -3  -8   14.28    4.58   1
  -9   3  -8    8.38    4.26   1
  10   3   8    3.63    8.97   3
 -10   3  -8    1.41    4.54   1
 -10  -3  -8    3.24    4.19   1
 -11   3  -8   -6.56    4.35   1
  11   3   8  -10.61    9.10   3
  13  -4  -8    2.09    4.87   2
  13   4  -8   -6.45    4.85   2
  12   4  -8   27.69    6.72   2
  12  -4  -8   24.74    6.41   2
  11  -4  -8    6.16    4.70   2
  11   4  -8   -4.57    4.43   2
  10   4  -8   36.98    6.55   2
  10  -4  -8   18.64    5.67   2
   9   4  -8    7.07    4.56   2
   9  -4  -8    2.96    4.23   2
   8   4  -8    2.47    3.83   2
   8  -4  -8    0.18    2.12   1
   8  -4  -8   -8.22    3.24   2
   7  -4  -8    1.24    3.40   2
   7   4  -8    9.64    3.72   2
   7  -4  -8   11.00    2.82   1
   6  -4  -8    1.59    3.22   2
   6  -4  -8    3.15    2.17   1
   6   4  -8   10.02    3.35   2
   5  -4  -8    7.58    3.15   2
   5  -4  -8    4.24    2.16   1
   5   4  -8    6.88    2.73   2
   4   4  -8  268.12    7.00   1
   4  -4  -8  262.75    9.66   2
   4  -4  -8  267.05    9.12   1
   4   4  -8  253.38    9.45   2
   3  -4  -8   48.06    4.15   1
   3  -4  -8   47.31    4.13   2
   3   4  -8   55.37    3.40   1
   3   4  -8   50.92    4.17   2
   2   4  -8  662.17   15.76   2
   2   4  -8  649.35   13.93   1
   2  -4  -8  667.58   15.89   1
   2  -4  -8  637.82   14.62   2
   1  -4  -8  118.64    5.14   2
   1  -4  -8  119.46    5.97   1
   1   4  -8  116.07    5.66   2
   1   4  -8  122.67    5.44   1
   0   4  -8 1137.29   22.74   1
   0   4  -8 1191.28   23.54   2
   0  -4  -8 1155.49   23.67   1
   0  -4  -8 1149.65   20.41   2
  -1   4  -8    2.14    1.71   2
  -1  -4  -8    1.77    1.83   1
  -1   4  -8   -0.52    1.83   1
  -2  -4  -8  393.44   12.01   1
  -2   4  -8  406.56   11.80   1
   2   4   8  416.83   16.91   3
  -2   4  -8  397.90   11.50   2
  -3  -4  -8   52.17    4.61   1
  -3   4  -8   43.44    4.41   1
   3   4   8   52.41    8.10   3
  -4  -4  -8  165.75    7.90   1
   4   4   8  155.59   12.18   3
  -4   4  -8  158.42    7.79   1
  -5  -4  -8   -0.16    2.67   1
  -5   4  -8   14.07    3.51   1
   5   4   8    3.59    6.53   3
  -6  -4  -8   22.72    4.41   1
  -6   4  -8   18.35    4.39   1
   6   4   8   17.30    7.82   3
   7   4   8    8.54    7.28   3
  -7  -4  -8    2.45    3.16   1
  -7   4  -8    3.88    3.70   1
   8   4   8   -0.60    7.50   3
  -8  -4  -8    9.07    3.95   1
  -8   4  -8    6.35    4.28   1
  -9   4  -8    1.00    4.07   1
   9   4   8  -10.55    6.83   3
  -9  -4  -8   -0.02    3.44   1
 -10   4  -8   16.82    5.39   1
  10   4   8   19.82   10.62   3
  11   4   8    0.01    9.75   3
 -11   4  -8    2.39    5.15   1
  13  -5  -8   -0.44    4.61   2
  13   5  -8   -3.30    4.96   2
  12   5  -8    6.40    5.08   2
  12  -5  -8   10.42    5.65   2
  11   5  -8    0.06    5.10   2
  11  -5  -8    4.63    4.57   2
  10   5  -8  128.07    9.22   3
  10   5  -8  133.96    9.85   2
  10  -5  -8  135.27   10.02   2
   9   5  -8   50.56    6.32   2
   9  -5  -8   46.70    6.45   2
   8   5  -8  285.46   12.18   2
   8  -5  -8  290.05   12.67   2
   8  -5  -8  281.88   10.50   1
   7  -5  -8   49.84    4.70   1
   7   5  -8   46.66    5.39   2
   7  -5  -8   35.73    5.13   2
   6  -5  -8  221.78    9.90   2
   6  -5  -8  234.79    9.20   1
   6   5  -8  222.38    9.82   2
   5   5  -8    0.50    2.15   2
   5  -5  -8   -0.09    1.71   1
   5  -5  -8    2.01    2.84   2
   4  -5  -8  309.00   10.43   2
   4   5  -8  327.73   10.95   2
   4  -5  -8  317.47   10.51   1
   3   5  -8   40.68    3.86   2
   3  -5  -8   40.76    3.87   2
   3   5  -8   49.50    3.21   1
   3  -5  -8   40.58    4.03   1
   2   5  -8   97.11    4.62   1
   2   5  -8  101.03    5.59   2
   2  -5  -8   86.56    5.31   1
   2  -5  -8  100.21    5.06   2
   1   5  -8    2.25    1.84   1
   1  -5  -8    1.98    1.79   1
   1  -5  -8    3.45    1.73   2
   1   5  -8    2.65    1.84   2
   0   5  -8    1.64    1.87   1
   0  -5  -8    5.92    2.19   1
   0   5  -8    3.87    1.93   2
  -1   5  -8    8.82    2.41   1
  -1  -5  -8   10.40    2.62   1
   1   5   8    7.71    5.00   3
  -1   5  -8   10.87    2.36   2
  -2   5  -8  289.31    9.84   1
  -2   5  -8  289.78    9.88   2
  -2  -5  -8  283.36    9.92   1
   2   5   8  292.75   14.28   3
  -3   5  -8   60.52    5.04   1
  -3  -5  -8   66.19    5.29   1
   3   5   8   56.52    8.40   3
  -4  -5  -8  246.43    9.68   1
   4   5   8  271.80   15.13   3
  -4   5  -8  235.45    9.63   1
   5   5   8   30.94    8.21   3
  -5  -5  -8   30.25    4.37   1
  -5   5  -8   29.12    4.32   1
  -6  -5  -8  153.88    8.41   1
   6   5   8  127.37   12.16   3
  -6   5  -8  134.03    8.33   1
  -7  -5  -8   19.55    4.34   1
  -7   5  -8   10.05    3.77   1
   7   5   8   24.09    8.67   3
   8   5   8   31.23    9.89   3
  -8   5  -8   37.71    5.55   1
  -8  -5  -8   36.28    5.17   1
   9   5   8    5.46    8.76   3
  -9  -5  -8    0.96    3.59   1
  -9   5  -8   -3.11    3.56   1
 -10   5  -8    3.59    4.40   1
  10   5   8    8.35    9.72   3
 -11   5  -8   -1.14    4.74   1
  11   5   8    6.10   10.38   3
  13  -6  -8    2.62    4.86   2
  13   6  -8   -1.35    5.00   2
  12  -6  -8   14.63    6.00   2
  12   6  -8    2.64    5.00   2
  11  -6  -8    1.18    4.29   2
  11   6  -8    1.45    5.06   2
  10  -6  -8   56.52    7.26   2
  10   6  -8   51.59    6.85   3
  10   6  -8   58.30    7.26   2
   9  -6  -8   19.56    3.94   1
   9  -6  -8   24.95    5.45   2
   9   6  -8   30.47    5.63   2
   8  -6  -8    6.90    4.09   2
   8  -6  -8    7.39    3.02   1
   8   6  -8   -0.70    3.51   2
   7  -6  -8   81.03    6.97   2
   7  -6  -8   82.39    5.95   1
   7   6  -8   68.22    6.31   2
   6  -6  -8    8.66    3.54   2
   6   6  -8   12.40    3.52   2
   6  -6  -8   16.49    3.27   1
   5   6  -8    2.76    2.53   2
   5  -6  -8    2.97    2.81   2
   5  -6  -8    1.86    1.96   1
   4  -6  -8  268.47    9.86   1
   4   6  -8  252.48    9.60   2
   4  -6  -8  247.56    9.39   2
   3   6  -8   23.38    2.49   1
   3  -6  -8   24.46    3.55   1
   3  -6  -8   19.97    3.14   2
   3   6  -8   22.97    3.37   2
   2  -6  -8  375.19   11.64   1
   2  -6  -8  347.80    9.82   2
   2   6  -8  355.07    9.50   1
   2   6  -8  348.62   11.19   2
   1  -6  -8    0.53    1.68   2
   1   6  -8   -0.19    1.54   1
   1   6  -8   -1.06    1.43   2
   1  -6  -8   -1.03    1.66   1
   0  -6  -8  974.54   21.54   1
   0   6  -8  962.57   21.42   2
   0   6   8  962.24   25.75   3
   0   6  -8  956.60   19.88   1
   1   6   8    0.91    4.63   3
  -1  -6  -8    5.14    2.36   1
  -1   6  -8    7.54    2.24   2
  -1   6  -8    4.80    2.30   1
   2   6   8   78.55    8.66   3
  -2  -6  -8   89.78    6.01   1
  -2   6  -8   88.50    5.45   1
  -2   6  -8   84.31    5.68   2
   3   6   8   69.74    8.81   3
  -3  -6  -8   79.32    5.60   1
  -3   6  -8   74.39    5.33   1
  -4   6  -8   49.31    4.88   1
  -4  -6  -8   46.73    4.93   1
   4   6   8   40.41    7.73   3
   5   6   8   12.67    6.57   3
  -5  -6  -8   13.90    3.73   1
  -5   6  -8   13.29    3.50   1
  -6  -6  -8    3.08    3.06   1
  -6   6  -8   12.15    3.82   1
   6   6   8   11.40    6.92   3
  -7  -6  -8    5.54    3.38   1
   7   6   8    3.14    7.30   3
  -7   6  -8   -2.14    3.33   1
   8   6   8   74.52   11.20   3
  -8  -6  -8   39.38    5.47   1
  -8   6  -8   54.33    6.74   1
   9   6   8   14.94    8.96   3
  -9   6  -8    4.99    4.23   1
  10   6   8   78.37   14.02   3
 -10   6  -8   82.85    8.38   1
  11   6   8   -3.84    9.23   3
  13  -7  -8    6.06    5.48   2
  13   7  -8   -3.27    5.26   2
  12  -7  -8    7.55    5.12   2
  12   7  -8    1.53    4.87   2
  11   7  -8    4.72    4.08   3
  11   7  -8    0.29    4.48   2
  11  -7  -8    4.49    4.42   2
  10  -7  -8   49.51    7.12   2
  10   7  -8   46.31    6.62   3
  10   7  -8   32.24    6.07   2
   9  -7  -8   14.11    4.65   2
   9  -7  -8    1.34    3.00   1
   9   7  -8    4.64    4.51   2
   8  -7  -8  287.06   12.83   2
   8  -7  -8  291.10   11.40   1
   8   7  -8  291.55   12.42   2
   7   7  -8   13.80    4.19   2
   7  -7  -8   11.01    3.22   1
   7  -7  -8    8.14    3.91   2
   6  -7  -8  380.80   12.77   1
   6   7  -8  363.59   12.97   2
   6  -7  -8  386.31   13.44   2
   5  -7  -8   -5.99    2.30   2
   5  -7  -8   -1.85    2.03   1
   5   7  -8    2.48    2.44   2
   4   7  -8  265.48   10.06   2
   4  -7  -8  278.51   10.09   2
   4  -7  -8  283.62   10.59   1
   3  -7  -8    6.09    2.46   1
   3   7  -8    5.48    1.86   1
   3  -7  -8    6.08    2.62   2
   3   7  -8    6.91    2.42   2
   2  -7  -8  152.66    7.58   1
   2   7  -8  145.83    5.96   1
   2  -7  -8  150.96    6.23   2
   2   7  -8  165.90    7.62   2
   1   7  -8   31.24    3.76   2
   1   7  -8   24.98    2.97   1
   1  -7  -8   21.09    3.41   1
   0   7  -8    6.68    2.31   2
   0   7  -8    3.99    1.98   1
   0   7   8    3.90    4.61   3
   0  -7  -8    6.15    2.51   1
  -1  -7  -8   13.81    3.06   1
   1   7   8   15.32    5.48   3
  -1   7  -8   20.68    3.12   1
  -1   7  -8   17.74    3.11   2
  -2  -7  -8   66.31    5.42   1
  -2   7  -8   65.90    5.00   1
  -2   7  -8   68.16    5.22   2
   2   7   8   81.39    8.30   3
   3   7   8   14.74    6.12   3
  -3  -7  -8   19.54    3.49   1
  -3   7  -8   13.56    2.88   1
  -4  -7  -8  102.66    6.85   1
  -4   7  -8  104.29    6.59   1
   4   7   8  101.45   10.08   3
  -5   7  -8   33.66    4.46   1
  -5  -7  -8   36.56    4.76   1
   5   7   8   31.01    7.78   3
   6   7   8  123.08   12.09   3
  -6  -7  -8   98.61    7.14   1
  -6   7  -8  108.35    7.42   1
  -7  -7  -8   15.20    3.95   1
   7   7   8   23.36    8.16   3
  -7   7  -8   23.79    5.17   1
  -8  -7  -8   34.00    5.15   1
   8   7   8   32.78    9.81   3
  -8   7  -8   42.94    5.96   1
  -9   7  -8    0.18    4.30   1
   9   7   8    8.74    9.10   3
 -10   7  -8    1.18    5.08   1
  10   7   8   -4.45    8.37   3
  12   8  -8   23.25    6.85   2
  12  -8  -8   11.93    5.44   2
  11   8  -8    6.40    4.85   2
  11  -8  -8    6.34    4.82   2
  11   8  -8   10.19    5.00   3
  10  -8  -8   75.72    8.35   2
  10   8  -8   96.16    8.83   2
   9   8  -8   33.21    5.68   2
   9  -8  -8   30.21    6.05   2
   9  -8  -8   36.24    5.01   1
   8   8  -8   32.78    5.21   2
   8  -8  -8   21.52    4.13   1
   8  -8  -8   34.30    5.75   2
   7   8  -8  126.25    8.19   2
   7  -8  -8  116.41    8.51   2
   7  -8  -8  122.26    7.61   1
   6   8  -8   42.18    4.92   2
   6  -8  -8   47.25    4.94   1
   6  -8  -8   42.36    5.53   2
   5  -8  -8   19.81    3.61   1
   5   8  -8   13.73    3.31   2
   5  -8  -8   17.19    3.82   2
   4  -8  -8  396.32   12.51   2
   4  -8  -8  379.44   12.92   1
   4   8  -8  397.49   12.86   2
   3  -8  -8   20.01    3.60   1
   3   8  -8   28.58    3.84   2
   3  -8  -8   21.31    3.36   2
   2  -8  -8  726.54   16.29   2
   2  -8  -8  732.64   18.80   1
   2   8  -8  729.34   15.45   1
   2   8  -8  700.78   18.25   2
   1   8  -8   62.39    4.35   1
  -1   8   8   79.75    7.25   3
   1  -8  -8   58.52    5.18   1
   1   8  -8   69.84    5.25   2
   0  -8  -8  675.82   17.66   1
   0   8  -8  611.54   15.10   1
   0   8  -8  685.20   17.71   2
   0   8   8  692.21   21.03   3
  -1   8  -8  290.11   10.83   2
  -1   8  -8  276.50    9.39   1
  -1  -8  -8  294.59   10.91   1
   1   8   8  298.34   14.15   3
   2   8   8   20.05    6.13   3
  -2   8  -8    5.81    2.57   1
  -2  -8  -8   12.89    3.25   1
  -2   8  -8    2.50    2.20   2
  -3   8  -8  482.67   14.14   1
  -3  -8  -8  506.39   15.03   1
   3   8   8  507.94   19.85   3
   4   8   8   71.54    8.85   3
  -4  -8  -8   79.53    6.26   1
  -4   8  -8   66.49    5.64   1
  -5  -8  -8  308.87   11.85   1
   5   8   8  319.21   17.24   3
  -5   8  -8  305.90   11.71   1
  -6   8  -8    1.69    3.00   1
   6   8   8    2.19    6.22   3
  -6  -8  -8    3.69    3.17   1
  -7  -8  -8   14.56    3.88   1
  -7   8  -8   15.04    4.41   1
   7   8   8   20.91    8.08   3
  -8  -8  -8    4.34    3.42   1
  -8   8  -8    0.07    4.05   1
   8   8   8   -3.59    7.67   3
   9   8   8   -0.19    8.81   3
  -9   8  -8    6.52    4.66   1
  10   8   8   53.76   13.00   3
 -10   8  -8   51.86    7.77   1
  12   9  -8    5.21    4.97   3
  12  -9  -8    6.34    5.26   2
  12   9  -8    5.76    5.77   2
  11   9  -8    3.68    4.37   3
  11  -9  -8    0.40    4.49   2
  11   9  -8   -0.49    4.83   2
  10  -9  -8    2.54    4.36   2
  10  -9  -8    6.96    3.75   1
  10   9  -8    4.47    4.74   2
   9   9  -8   25.88    5.66   2
   9  -9  -8   12.22    4.78   2
   9  -9  -8   11.84    3.95   1
   8  -9  -8   83.59    7.01   1
   8  -9  -8   95.04    8.22   2
   8   9  -8   90.49    7.74   2
   7  -9  -8   59.48    5.70   1
   7  -9  -8   47.32    6.08   2
   7   9  -8   53.55    6.03   2
   6   9  -8  214.50   10.19   2
   6  -9  -8  209.89    9.83   1
   6  -9  -8  217.53   10.32   2
   5   9  -8    4.51    2.76   2
   5  -9  -8    6.80    3.06   1
   5  -9  -8   10.28    3.39   2
   4   9  -8  350.30   12.37   2
   4  -9  -8  349.99   11.88   2
   4  -9  -8  348.10   12.69   1
   3  -9  -8    7.95    2.80   2
   3  -9  -8   14.42    3.43   1
   3   9  -8   10.14    3.02   2
   2   9  -8   23.25    3.84   2
   2  -9  -8   24.56    3.86   1
   2   9  -8   26.59    2.98   1
   1   9  -8   15.94    3.21   2
   1  -9  -8   16.68    3.55   1
   1   9  -8   16.47    2.67   1
  -1   9   8   16.10    5.12   3
   0   9   8   27.60    5.66   3
   0  -9  -8   20.56    3.82   1
   0   9  -8   24.10    3.80   2
   0   9  -8   21.84    3.14   1
  -1  -9  -8    5.33    2.69   1
   1   9   8    5.53    4.89   3
  -1   9  -8    3.07    2.38   2
  -1   9  -8    1.48    1.95   1
   2   9   8   59.22    7.69   3
  -2   9  -8   68.89    5.70   2
  -2  -9  -8   57.90    5.44   1
  -2   9  -8   59.21    4.87   1
  -3  -9  -8   56.09    5.58   1
   3   9   8   54.75    8.15   3
  -3   9  -8   63.74    5.29   1
  -4   9  -8  136.31    7.82   1
  -4  -9  -8  134.57    8.09   1
   4   9   8  132.15   11.38   3
   5   9   8   29.18    7.70   3
  -5   9  -8   26.81    4.43   1
  -5  -9  -8   21.41    4.23   1
  -6   9  -8  137.37    8.50   1
  -6  -9  -8  148.41    8.42   1
   6   9   8  145.97   12.54   3
  -7  -9  -8    9.55    3.85   1
  -7   9  -8   20.85    4.73   1
   7   9   8   10.70    7.30   3
   8   9   8   73.07   11.34   3
  -8   9  -8   56.74    7.13   1
  -9   9  -8    3.43    4.49   1
   9   9   8    9.71    8.98   3
  10   9   8   16.50   10.91   3
  12 -10  -8   11.75    6.06   2
  12  10  -8    7.11    5.50   3
  12  10  -8   13.98    5.98   2
  11 -10  -8    4.69    4.75   2
  11  10  -8    9.79    5.22   3
  11  10  -8    2.90    4.71   2
  10 -10  -8   29.81    6.27   2
  10  10  -8   21.08    5.84   3
  10 -10  -8   22.91    4.66   1
 -10  10   8   13.29    4.44   1
  10  10  -8   15.17    5.67   2
   9 -10  -8    4.44    3.39   1
   9 -10  -8    2.70    4.08   2
   9  10  -8   -3.71    3.89   2
   8 -10  -8    0.90    3.70   2
   8 -10  -8    7.21    3.51   1
   8  10  -8    4.30    3.88   2
   7 -10  -8    1.25    2.45   1
   7 -10  -8    5.81    3.58   2
   7  10  -8    4.91    3.57   2
   6  10  -8    2.04    3.10   2
   6 -10  -8   -0.36    3.21   2
   6 -10  -8    2.75    2.82   1
   5  10  -8   88.47    6.42   2
   5 -10  -8   93.91    6.78   1
   5 -10  -8   75.18    6.38   2
   4 -10  -8  208.42   10.00   1
   4 -10  -8  215.68    9.36   2
   4  10  -8  217.26    9.78   2
   3 -10  -8    7.19    2.71   2
   3 -10  -8   10.28    3.26   1
   3  10  -8    5.97    2.67   2
   2 -10  -8  261.42   10.98   1
   2  10  -8  277.48   11.10   2
   1 -10  -8  155.19    8.42   1
  -1  10   8  158.77   10.16   3
   1  10  -8  158.26    6.60   1
   1  10  -8  137.20    7.72   2
   0  10  -8  262.55   10.73   2
   0  10   8  276.20   13.35   3
   0 -10  -8  247.02   10.56   1
   0  10  -8  245.26    8.84   1
  -1 -10  -8    0.01    2.41   1
   1  10   8    4.89    4.76   3
  -1  10  -8   -2.31    1.73   2
  -1  10  -8   -0.96    2.04   1
  -2  10  -8  106.08    6.42   1
  -2  10  -8  125.21    7.65   2
   2  10   8  126.65   10.13   3
  -2 -10  -8  130.49    7.67   1
  -3  10  -8   20.92    3.96   1
   3  10   8   14.38    6.15   3
  -3 -10  -8   20.02    3.95   1
  -4  10  -8   12.78    3.51   1
  -4 -10  -8   13.41    3.71   1
   4  10   8   12.71    6.21   3
  -5  10  -8   11.79    3.65   1
  -5 -10  -8    3.70    3.13   1
   5  10   8   15.11    6.91   3
   6  10   8    9.35    6.94   3
  -6 -10  -8   10.69    3.89   1
  -6  10  -8   13.89    4.29   1
  -7 -10  -8    7.28    3.80   1
  -7  10  -8   10.39    4.20   1
   7  10   8    8.12    7.97   3
   8  10   8   -5.21    7.68   3
  -8  10  -8   13.06    5.22   1
  -9  10  -8   21.49    6.13   1
   9  10   8   10.36    8.84   3
  10  10   8   -9.38    9.42   3
  11  11  -8   -1.96    5.06   2
  11  11  -8   -2.77    4.19   3
  11 -11  -8    3.17    5.05   2
  10  11  -8   14.61    5.46   3
  10  11  -8    2.81    5.00   2
  10 -11  -8    9.74    5.33   2
 -10  11   8    8.82    4.30   1
   9  11  -8    7.45    4.71   2
   9 -11  -8   11.28    4.06   1
   9 -11  -8   10.08    4.81   2
   8 -11  -8   68.81    7.34   2
   8 -11  -8   50.48    6.16   1
   8  11  -8   55.05    6.70   2
   7 -11  -8    9.81    3.71   1
   7 -11  -8    5.82    3.97   2
   7  11  -8    6.50    3.63   2
   6 -11  -8  137.32    8.89   2
   6 -11  -8  141.48    8.78   1
   6  11  -8  137.05    8.33   2
   5 -11  -8    2.20    2.71   1
   5 -11  -8    0.64    2.84   2
   5  11  -8   -2.25    2.25   2
   4 -11  -8   33.09    4.52   2
   4  11  -8   44.59    5.13   2
   4 -11  -8   44.28    5.27   1
   3 -11  -8    6.49    2.99   1
   3  11  -8   10.72    3.21   2
   2 -11  -8    8.69    3.20   1
   2  11  -8    8.34    3.00   2
   1  11  -8    6.99    2.91   2
   1  11  -8    3.88    2.32   1
   1 -11  -8    7.53    3.21   1
   0  11   8   22.63    5.88   3
   0  11  -8   30.53    3.68   1
   0 -11  -8   31.88    4.69   1
   0  11  -8   24.92    4.13   2
  -1  11  -8    0.18    2.31   2
   1  11   8    5.39    4.66   3
  -1 -11  -8    5.74    2.99   1
  -1  11  -8    4.95    2.40   1
   2  11   8   76.01    8.31   3
  -2 -11  -8   75.04    6.60   1
  -2  11  -8   80.53    6.58   2
  -2  11  -8   72.71    5.72   1
  -3 -11  -8    3.87    3.05   1
   3  11   8    6.64    5.53   3
  -3  11  -8    4.03    2.88   1
  -4  11  -8  119.79    7.59   1
  -4 -11  -8  133.66    8.43   1
   4  11   8  125.25   10.79   3
   5  11   8    1.18    5.46   3
  -5 -11  -8    4.96    3.56   1
  -5  11  -8    0.97    2.90   1
  -6 -11  -8  156.83    9.34   1
   6  11   8  167.89   13.63   3
   7  11   8    3.45    7.47   3
  -7  11  -8    3.84    4.06   1
   8  11   8   58.43   11.43   3
   9  11   8   17.04    9.41   3
  -9  11  -8   21.25    5.86   1
  11 -12  -8    4.32    4.92   2
  11  12  -8    3.89    5.10   3
  11  12  -8    3.61    5.27   2
  10  12  -8    4.26    4.88   2
  10 -12  -8    7.62    5.17   2
 -10  12   8   13.45    4.71   1
  10  12  -8    8.95    5.24   3
   9 -12  -8    8.99    4.24   1
   9  12  -8    2.75    3.97   2
   9 -12  -8    6.45    4.37   2
   8  12  -8   -2.50    3.24   2
   8 -12  -8    1.43    3.69   2
   8 -12  -8    1.09    3.07   1
   7 -12  -8   47.87    6.44   2
   7 -12  -8   50.45    6.06   1
   7  12  -8   36.20    5.57   2
   6 -12  -8    4.73    3.52   2
   6  12  -8    4.19    3.42   2
   6 -12  -8    2.65    2.92   1
   5 -12  -8    8.95    3.53   2
   5  12  -8    6.35    3.21   2
   5 -12  -8   12.44    3.72   1
   4  12  -8   92.22    6.93   2
   4 -12  -8   87.44    7.24   1
   4 -12  -8  105.52    6.90   2
   3 -12  -8   80.37    6.79   1
   3  12  -8   76.02    6.46   2
   2  12  -8    1.89    2.47   2
   2 -12  -8    2.03    2.72   1
   1  12  -8    0.00    2.13   1
   1 -12  -8   -1.11    2.50   1
   1  12  -8   -0.76    2.19   2
   0 -12  -8  163.71    9.19   1
   0  12  -8  161.63    7.46   1
   0  12  -8  159.55    9.09   2
  -1  12  -8    0.18    2.32   1
   1  12   8   -2.22    4.47   3
  -1 -12  -8    0.43    2.78   1
  -1  12  -8   -0.20    2.21   2
  -2 -12  -8  108.76    7.68   1
   2  12   8   90.49    9.00   3
  -2  12  -8   94.22    7.35   2
  -2  12  -8   97.31    6.54   1
  -3 -12  -8    4.41    3.40   1
   3  12   8    8.76    5.52   3
  -3  12  -8    4.55    3.07   1
   4  12   8   31.19    7.55   3
  -4  12  -8   45.77    5.50   1
  -4 -12  -8   56.43    6.00   1
  -5  12  -8    0.65    3.33   1
  -5 -12  -8    1.78    2.98   1
   5  12   8    4.33    5.97   3
  -6 -12  -8    0.55    3.38   1
  -6  12  -8   -2.74    3.04   1
   6  12   8    1.11    6.22   3
  -7  12  -8    0.33    3.72   1
   7  12   8    3.15    7.74   3
  -8  12  -8    2.84    4.53   1
   8  12   8   11.02    8.78   3
   9  12   8  -15.09    7.89   3
  11  13  -8    4.31    5.26   3
 -11  13   8   -3.11    4.26   1
  11 -13  -8    4.45    5.22   2
  11  13  -8   -8.21    4.62   2
  10  13  -8    0.97    4.72   3
  10 -13  -8    8.25    5.30   2
  10  13  -8    5.13    4.94   2
 -10  13   8    3.38    4.17   1
   9 -13  -8    4.77    4.41   2
   9 -13  -8    5.99    3.87   1
   9  13  -8    2.07    4.32   2
   8 -13  -8   38.42    6.48   2
   8  13  -8   37.29    6.06   2
   8 -13  -8   45.13    6.27   1
   7 -13  -8   15.89    4.25   1
   7 -13  -8   20.16    5.05   2
   7  13  -8   13.63    4.56   2
   6 -13  -8   60.22    6.57   2
   6 -13  -8   69.08    6.86   1
   6  13  -8   81.00    7.08   2
   5  13  -8   49.07    5.63   2
   5 -13  -8   42.40    5.61   1
   5 -13  -8   61.99    6.33   2
   4 -13  -8  106.65    8.08   1
   4  13  -8  104.74    7.36   2
   3  13  -8   -2.98    2.27   2
   3 -13  -8    0.86    2.51   1
   2 -13  -8    6.19    3.30   1
   2  13  -8    1.56    2.61   2
   1 -13  -8    0.97    2.99   1
   1  13  -8    3.00    2.66   2
   0  13  -8    2.85    2.39   1
   0  13  -8    3.23    2.98   2
   0 -13  -8   -0.25    2.80   1
   1  13   8   39.82    6.67   3
  -1  13  -8   45.87    5.56   2
  -1 -13  -8   37.04    5.13   1
  -1  13  -8   55.39    4.84   1
   2  13   8   92.07    9.12   3
  -2  13  -8   95.39    6.55   1
  -2 -13  -8  104.30    7.87   1
  -2  13  -8   97.67    7.73   2
   3  13   8   27.78    6.95   3
  -3 -13  -8   27.66    5.00   1
  -3  13  -8   29.60    4.53   1
   4  13   8  146.58   11.91   3
  -4  13  -8  145.02    8.48   1
  -4 -13  -8  141.73    8.95   1
  -5 -13  -8    0.54    3.32   1
   5  13   8   -3.17    5.75   3
  -5  13  -8   -3.43    3.18   1
  -6  13  -8  108.94    8.80   1
   6  13   8   83.53   11.61   3
  -7  13  -8    2.35    4.09   1
   7  13   8  -10.67    6.23   3
   8  13   8   22.43    9.99   3
  -8  13  -8   19.17    5.68   1
  10 -14  -8   12.95    6.07   2
 -10  14   8   18.64    5.46   1
  10  14  -8   18.91    6.49   3
  10  14  -8   10.36    5.61   2
   9 -14  -8    7.78    4.82   2
   9  14  -8    0.64    4.39   2
   9 -14  -8    1.69    3.72   1
   8  14  -8    1.45    3.98   2
   8 -14  -8    1.23    3.70   1
   8 -14  -8    3.61    4.05   2
   7 -14  -8   -0.59    3.49   2
   7  14  -8   -4.74    2.99   2
   7 -14  -8   -1.95    2.84   1
   6 -14  -8    6.63    3.76   1
   6  14  -8    4.03    3.31   2
   5 -14  -8   40.14    5.79   1
   5  14  -8   36.60    5.33   2
   4  14  -8   43.30    5.38   2
   4 -14  -8   68.82    6.90   1
   3  14  -8   56.77    6.01   2
   3 -14  -8   63.01    6.78   1
   2  14  -8  445.28   16.05   2
   2 -14  -8  445.06   16.28   1
   1 -14  -8  119.10    8.73   1
   1  14  -8  133.13    8.52   2
   0  14  -8  448.99   16.15   2
   0  14  -8  434.94   13.01   1
   0 -14  -8  418.50   15.78   1
  -1  14  -8    4.69    2.89   1
  -1 -14  -8    0.20    2.84   1
  -1  14  -8    3.44    3.35   2
   2  14   8  176.96   12.64   3
  -2  14  -8  196.23    9.20   1
  -2 -14  -8  203.79   10.81   1
  -2  14  -8  179.28   10.39   2
  -3  14  -8    3.49    3.35   1
   3  14   8   -2.99    5.02   3
  -3 -14  -8    5.00    3.54   1
   4  14   8   80.56    9.87   3
  -4 -14  -8   74.65    7.16   1
  -4  14  -8   60.73    6.41   1
  -5 -14  -8    4.03    3.96   1
  -5  14  -8   -0.38    3.07   1
   5  14   8   -4.05    5.42   3
  -6  14  -8   22.77    5.20   1
   6  14   8   12.77    7.90   3
   7  14   8    2.46    7.51   3
  -7  14  -8   15.65    5.58   1
   8  14   8    0.15    8.43   3
   9  15  -8    0.45    4.83   2
   9 -15  -8    6.57    4.38   1
   8  15  -8   34.71    6.29   2
   8 -15  -8   19.88    5.45   1
   7 -15  -8    4.16    4.10   1
   7  15  -8    0.14    3.56   2
   6  15  -8   66.86    6.86   2
   6 -15  -8   85.65    8.05   1
   5 -15  -8   -2.18    2.98   1
   5  15  -8   -0.98    2.88   2
   4  15  -8   95.80    7.74   2
   4 -15  -8   72.82    7.31   1
   3 -15  -8   -2.50    2.99   1
   3  15  -8   -1.21    2.44   2
   2 -15  -8    7.91    4.02   1
   2  15  -8   15.10    4.24   2
   1  15  -8   10.61    3.61   2
   1 -15  -8   14.16    4.22   1
   0  15  -8   11.98    4.07   2
   0 -15  -8   12.47    4.38   1
  -1  15  -8   19.47    3.64   1
  -1  15  -8   15.63    4.54   2
  -1 -15  -8   12.94    4.43   1
  -2  15  -8   76.95    6.47   1
   2  15   8   78.68    8.97   3
  -2 -15  -8   79.85    7.61   1
  -2  15  -8   65.65    7.05   2
   3  15   8   11.04    6.17   3
  -3 -15  -8   12.98    4.33   1
  -3  15  -8   10.34    3.55   1
   4  15   8  123.81   11.71   3
  -4  15  -8  122.38    8.32   1
  -4 -15  -8  144.70    9.61   1
  -5  15  -8   13.68    4.65   1
   5  15   8    1.85    6.32   3
   6  15   8   48.46   10.16   3
  -6  15  -8   61.96    7.55   1
   7  15   8    6.05    8.04   3
   9  16  -8   -2.94    4.81   2
   8  16  -8    4.01    4.60   2
   8 -16  -8    2.31    4.12   1
   7  16  -8    1.34    3.85   2
   7 -16  -8   -4.08    3.07   1
   6 -16  -8    5.42    4.02   1
   6  16  -8    8.50    3.80   2
   5  16  -8   17.07    4.50   2
   5 -16  -8   18.73    4.81   1
   4  16  -8  100.38    8.00   2
   4 -16  -8   80.74    8.17   1
   3 -16  -8    3.31    3.76   1
   3  16  -8    4.33    3.15   2
   2  16  -8  137.64    9.18   2
   2 -16  -8  125.50    9.24   1
   1 -16  -8   33.12    5.81   1
   1  16  -8   24.55    4.89   2
   0 -16  -8  326.23   14.67   1
   0  16  -8  343.95   14.79   2
  -1  16  -8   14.84    4.44   2
  -1  16  -8   14.06    3.80   1
  -1 -16  -8   18.13    5.01   1
  -2  16  -8  171.94    9.26   1
  -2  16  -8  188.13   11.33   2
  -2 -16  -8  186.08   11.09   1
  -3 -16  -8    1.60    3.44   1
  -3  16  -8    0.48    3.25   1
  -3  16  -8   -0.27    3.16   2
   3  16   8   -0.17    5.72   3
  -4  16  -8   36.86    5.54   1
  -4 -16  -8   44.94    6.47   1
   4  16   8   39.78    8.59   3
   5  16   8   13.36    7.42   3
  -5  16  -8   -3.50    3.76   1
  -6  16  -8    1.47    4.39   1
   6  16   8   -1.86    7.48   3
   8  17  -8   24.46    6.08   2
   7 -17  -8   -2.44    3.64   1
   7  17  -8   -1.58    3.79   2
   6  17  -8   45.23    6.35   2
   6 -17  -8   31.91    6.19   1
   5  17  -8   -2.42    3.15   2
   5 -17  -8    5.32    3.66   1
   4 -17  -8   59.68    7.44   1
   4  17  -8   58.84    6.68   2
   3 -17  -8   10.46    4.34   1
   3  17  -8   11.11    4.13   2
   2  17  -8   23.91    4.98   2
   2 -17  -8   25.39    5.50   1
   1 -17  -8   -0.38    3.65   1
   1  17  -8    3.41    3.52   2
   0 -17  -8    2.62    3.69   1
   0  17  -8   -0.31    3.19   2
  -1  17  -8    7.07    3.85   2
  -1 -17  -8   14.43    5.00   1
  -2  17  -8   90.92    7.31   1
  -2 -17  -8   96.08    8.74   1
  -2  17  -8   76.05    8.04   2
  -3  17  -8    5.84    4.21   2
  -3  17  -8    4.25    3.44   1
  -3 -17  -8   13.15    4.83   1
   4  17   8   74.15   10.80   3
  -4  17  -8   87.51    7.77   1
   5  17   8   -8.63    6.41   3
  -5  17  -8   -5.73    3.88   1
   6  17   8   26.34    9.60   3
   7  18  -8    5.52    4.28   2
   6  18  -8   -1.93    3.20   2
   6 -18  -8    2.32    4.15   1
   5 -18  -8    2.73    4.39   1
   5  18  -8    0.76    3.83   2
   4 -18  -8   22.28    5.57   1
   4  18  -8   28.24    5.44   2
   3 -18  -8   17.71    5.19   1
   3  18  -8   17.25    4.87   2
   2 -18  -8   94.09    8.73   1
   2  18  -8   98.45    8.55   2
   1  18  -8    7.95    4.15   2
   1 -18  -8   19.87    5.42   1
   0  18  -8  173.36   11.20   2
   0 -18  -8  149.39   10.56   1
  -1  18  -8   16.20    5.05   2
  -1 -18  -8   24.25    5.65   1
  -2  18  -8   62.66    6.56   1
  -2 -18  -8   80.64    8.34   1
  -2  18  -8   65.61    7.67   2
  -3 -18  -8    0.18    4.14   1
  -3  18  -8    0.53    3.90   2
  -3  18  -8    1.78    3.84   1
   4  18   8   17.23    7.88   3
  -4  18  -8   28.30    5.71   1
   5  18   8   25.13    9.07   3
   6  19  -8   51.27    6.92   2
   5  19  -8    6.06    4.51   2
   4  19  -8   35.85    6.14   2
   4 -19  -8   29.55    6.37   1
   3 -19  -8    9.81    5.00   1
   3  19  -8   18.32    5.00   2
   2 -19  -8    8.17    4.77   1
   2  19  -8   19.68    5.24   2
   1  19  -8    5.99    4.11   2
   1 -19  -8    1.89    4.05   1
   0 -19  -8    3.13    4.13   1
   0  19  -8   -0.13    3.08   2
  -1 -19  -8    1.11    4.44   1
  -1  19  -8   -2.44    3.21   2
  -2 -19  -8   14.15    5.44   1
  -2  19  -8   14.87    5.42   2
  -3  19  -8    4.22    4.13   2
  -3  19  -8    1.82    3.81   1
  -4  19  -8   31.34    6.09   1
  -4  19  -8   32.17    7.08   2
   4  20  -8   28.95    5.79   2
   3  20  -8   -0.59    3.23   2
   2  20  -8   28.50    5.80   2
   2 -20  -8   29.62    6.58   1
   1  20  -8   -1.68    3.17   2
   1 -20  -8    0.52    4.42   1
   0 -20  -8   55.87    7.82   1
   0  20  -8   52.75    7.49   2
  -1 -20  -8   -0.65    4.42   1
  -1  20  -8    5.76    4.50   2
  -2  20  -8   37.08    7.17   2
  -2 -20  -8   32.93    6.88   1
  13   0  -9    4.94    5.07   2
  12   0  -9    2.81    4.74   2
  11   0  -9    8.87    4.95   2
  10   0  -9   11.29    4.99   2
   9   0  -9   10.25    4.72   2
   8   0  -9  103.85    8.20   2
   7   0  -9    7.33    4.12   2
   6   0  -9  321.62   12.37   2
   6   0  -9  334.15    9.78   1
   5   0  -9    0.32    2.69   2
   5   0  -9    0.71    1.67   1
   4   0  -9  644.72   16.60   2
   4   0  -9  654.93   14.92   1
   3   0  -9   -0.30    1.46   1
   3   0  -9    0.82    2.09   2
   2   0  -9   60.32    4.17   1
   2   0  -9   55.61    4.25   2
   1   0  -9   -0.97    1.61   1
   1   0  -9   -1.80    1.47   2
   0   0  -9   37.22    3.14   2
   0   0  -9   49.89    4.05   1
  -1   0  -9   -0.73    1.30   2
  -1   0  -9   -1.53    1.71   1
  -2   0  -9  372.67   11.68   1
  -2   0  -9  379.13    9.71   2
  -3   0  -9   -1.22    1.99   1
  -4   0  -9  243.06   10.28   1
  -5   0  -9   -4.80    2.64   1
  -6   0  -9   99.76    7.36   1
  -7   0  -9   -3.54    3.32   1
  -8   0  -9   80.71    7.34   1
  -9   0  -9    1.60    4.15   1
 -10   0  -9   -3.84    3.89   1
 -11   0  -9    0.46    4.72   1
  13  -1  -9    6.71    5.63   2
  13   1  -9    1.45    4.85   2
  12  -1  -9    7.57    5.31   2
  12   1  -9    9.13    5.65   2
  11  -1  -9    0.22    4.66   2
  11   1  -9    1.80    4.72   2
  10   1  -9   28.03    6.24   2
  10  -1  -9   21.95    5.50   2
   9  -1  -9    1.48    4.16   2
   9   1  -9   -0.80    4.34   2
   8  -1  -9   13.53    4.61   2
   8   1  -9   19.94    4.96   2
   7  -1  -9   31.36    5.55   2
   7   1  -9   37.36    5.37   2
   6  -1  -9   23.24    4.79   2
   6  -1  -9   16.32    2.82   1
   6   1  -9   19.14    4.42   2
   5   1  -9   19.27    2.58   1
   5  -1  -9   17.27    2.85   1
   5   1  -9   20.79    3.83   2
   5  -1  -9   16.13    3.94   2
   4  -1  -9  908.36   19.15   1
   4   1  -9  880.42   20.72   2
   4  -1  -9  918.87   20.85   2
   4   1  -9  904.00   18.38   1
   3  -1  -9   71.66    5.20   2
   3   1  -9   81.51    5.46   2
   3  -1  -9   77.07    4.74   1
   3   1  -9   73.76    4.39   1
   2  -1  -9  851.07   18.74   1
   2   1  -9  911.60   18.54   1
   2  -1  -9  893.17   19.04   2
   2   1  -9  897.16   19.39   2
   1  -1  -9    1.76    1.65   1
   1   1  -9   -0.20    1.57   1
   1   1  -9    3.12    1.77   2
   1  -1  -9   -1.30    1.70   2
   0  -1  -9  589.44   13.23   2
   0   1  -9  589.94   14.53   1
   0  -1  -9  572.81   14.50   1
   0   1  -9  597.96   13.79   2
  -1  -1  -9   12.44    2.00   2
  -1  -1  -9    9.66    2.56   1
  -1   1  -9   11.64    2.81   1
  -1   1  -9   18.18    2.45   2
  -2   1  -9  338.30    9.40   2
  -2  -1  -9  330.87   11.05   1
  -2   1  -9  326.55   10.91   1
  -3  -1  -9   25.89    3.72   1
  -3   1  -9   26.11    2.87   2
  -3   1  -9   26.44    3.77   1
  -4   1  -9  168.65    8.66   1
  -4  -1  -9  161.74    8.53   1
  -5   1  -9   39.91    5.17   1
  -5  -1  -9   50.08    5.31   1
  -6   1  -9   15.56    4.07   1
  -6  -1  -9   13.70    4.16   1
  -7   1  -9    4.46    3.71   1
  -7  -1  -9    0.48    3.61   1
  -8  -1  -9    7.04    3.99   1
  -8   1  -9    6.52    4.59   1
  -9   1  -9   -1.84    3.70   1
  -9  -1  -9   -2.31    3.53   1
 -10  -1  -9   23.58    5.76   1
 -10   1  -9   19.61    5.63   1
 -11  -1  -9    7.81    5.16   1
 -11   1  -9   -1.64    4.86   1
  13  -2  -9   -4.24    4.66   2
  13   2  -9    6.50    5.40   2
  12   2  -9    5.26    4.99   2
  12  -2  -9    6.31    4.98   2
  11   2  -9   -4.91    4.12   2
  11  -2  -9   -8.42    3.81   2
  10  -2  -9   10.20    5.07   2
  10   2  -9   19.39    5.83   2
   9   2  -9    2.07    4.27   2
   9  -2  -9    7.50    4.56   2
   8   2  -9   48.17    6.20   2
   8  -2  -9   50.21    6.27   2
   7   2  -9    4.69    4.09   2
   7  -2  -9    2.01    3.60   2
   6  -2  -9  161.23    7.13   1
   6  -2  -9  180.34    9.53   2
   6   2  -9  192.70    9.60   2
   5   2  -9    2.53    2.73   2
   5   2  -9    1.13    1.53   1
   5  -2  -9   -6.11    2.73   2
   5  -2  -9   -0.77    1.69   1
   4   2  -9  418.07   10.42   1
   4  -2  -9  396.00   11.51   1
   4   2  -9  413.38   12.82   2
   4  -2  -9  407.09   12.60   2
   3   2  -9   64.47    4.83   2
   3  -2  -9   62.69    4.41   1
   3  -2  -9   64.38    4.99   2
   3   2  -9   70.34    4.08   1
   2  -2  -9   23.19    3.37   2
   2   2  -9   19.20    2.65   1
   2  -2  -9   22.56    3.07   1
   2   2  -9   20.18    2.96   2
   1   2  -9   15.20    2.56   2
   1  -2  -9   17.98    2.83   1
   1  -2  -9   13.41    2.52   2
   1   2  -9   16.89    2.66   1
   0  -2  -9   54.15    3.76   2
   0   2  -9   46.60    3.69   2
   0  -2  -9   45.88    4.09   1
   0   2  -9   47.16    4.19   1
  -1   2  -9   -1.00    1.31   2
  -1   2  -9    1.19    1.90   1
  -1  -2  -9   -1.21    1.66   1
  -2   2  -9  193.55    7.18   2
  -2  -2  -9  214.54    8.64   1
  -2   2  -9  193.62    8.24   1
  -3   2  -9   51.71    3.97   2
  -3   2  -9   53.87    4.99   1
  -3  -2  -9   57.31    5.02   1
  -4  -2  -9  305.14   11.40   1
  -4   2  -9  300.51   11.34   1
  -5   2  -9   39.76    5.33   1
  -5  -2  -9   36.25    4.80   1
  -6  -2  -9  186.30    9.43   1
  -6   2  -9  199.08   10.01   1
  -7  -2  -9    0.53    3.29   1
  -7   2  -9   -2.11    3.25   1
  -8   2  -9    2.50    4.03   1
  -8  -2  -9   10.87    4.18   1
  -9   2  -9    4.40    4.69   1
  -9  -2  -9   10.48    4.75   1
 -10   2  -9   -1.41    4.34   1
 -10  -2  -9    8.69    4.62   1
 -11   2  -9   -2.05    5.07   1
  13  -3  -9   10.19    5.69   2
  13   3  -9    0.72    5.20   2
  12   3  -9   25.20    6.31   2
  12  -3  -9   25.77    6.57   2
  11  -3  -9   -3.46    4.00   2
  11   3  -9    4.68    5.05   2
  10   3  -9   79.76    8.27   2
  10  -3  -9   94.87    8.99   2
   9  -3  -9    7.63    4.46   2
   9   3  -9    7.92    4.60   2
   8   3  -9   66.37    7.15   2
   8  -3  -9   59.85    6.55   2
   7  -3  -9    8.49    4.22   2
   7  -3  -9   12.70    2.81   1
   7   3  -9   10.64    4.39   2
   6   3  -9    3.61    3.23   2
   6  -3  -9    6.62    2.35   1
   6  -3  -9    3.85    3.63   2
   5   3  -9   19.49    3.74   2
   5  -3  -9   27.87    3.50   1
   5  -3  -9   28.42    4.32   2
   4  -3  -9   31.36    3.51   1
   4   3  -9   35.37    4.10   2
   4  -3  -9   42.46    4.49   2
   4   3  -9   40.15    3.07   1
   3   3  -9   46.57    4.37   2
   3   3  -9   40.77    3.30   1
   3  -3  -9   54.28    4.40   1
   3  -3  -9   47.83    4.42   2
   2  -3  -9  208.37    7.71   2
   2   3  -9  199.42    7.74   2
   2  -3  -9  203.48    7.86   1
   2   3  -9  187.39    6.85   1
   1  -3  -9   80.65    5.27   1
   1   3  -9   71.38    4.59   2
   1   3  -9   73.49    4.71   1
   1  -3  -9   87.01    4.85   2
   0   3  -9  897.01   19.50   1
   0  -3  -9  894.15   19.95   1
   0  -3  -9  900.08   17.43   2
   0   3  -9  923.03   19.59   2
  -1   3  -9  569.95   14.16   2
  -1  -3  -9  587.95   15.20   1
  -1   3  -9  566.16   14.78   1
  -2   3  -9  201.29    8.45   1
  -2   3  -9  198.64    7.60   2
  -2  -3  -9  197.45    8.44   1
  -3   3  -9   58.73    5.28   1
  -3  -3  -9   43.93    4.67   1
  -3   3  -9   57.73    4.32   2
  -4  -3  -9  152.58    8.07   1
  -4   3  -9  158.13    8.23   1
   4   3   9  163.24   13.09   3
  -5   3  -9    0.85    2.85   1
   5   3   9   -1.64    6.04   3
  -5  -3  -9    1.59    2.87   1
   6   3   9   12.12    8.28   3
  -6   3  -9    9.25    4.27   1
  -6  -3  -9   15.41    3.90   1
  -7  -3  -9   14.68    4.39   1
  -7   3  -9   25.85    5.09   1
   7   3   9   28.16    8.76   3
   8   3   9   80.19   12.85   3
  -8   3  -9   75.49    7.44   1
  -8  -3  -9   86.74    7.48   1
  -9   3  -9   -2.00    3.72   1
   9   3   9    9.23    9.11   3
  -9  -3  -9    4.67    3.88   1
 -10   3  -9   62.74    7.66   1
 -10  -3  -9   60.80    7.05   1
  10   3   9   61.35   12.28   3
  13   4  -9    3.87    5.79   2
  13  -4  -9    6.83    5.18   2
  12  -4  -9    7.19    5.25   2
  12   4  -9    6.13    5.52   2
  11   4  -9    8.25    5.50   2
  11  -4  -9    2.20    4.46   2
  10  -4  -9   34.02    6.25   2
  10   4  -9   40.67    6.70   2
   9  -4  -9    3.54    4.53   2
   9   4  -9   13.80    4.91   2
   8  -4  -9  126.02    9.25   2
   8   4  -9  143.48    9.13   2
   7  -4  -9    2.30    3.56   2
   7   4  -9    5.66    3.83   2
   7  -4  -9    4.47    2.38   1
   6   4  -9  130.75    7.89   2
   6  -4  -9  138.41    8.46   2
   6  -4  -9  125.89    6.79   1
   5  -4  -9   13.62    3.82   2
   5   4  -9   13.73    3.43   2
   5  -4  -9   14.70    3.03   1
   4  -4  -9  183.35    8.00   1
   4  -4  -9  181.72    8.13   2
   4   4  -9  205.92    6.47   1
   4   4  -9  179.46    8.38   2
   3  -4  -9   40.66    4.14   2
   3   4  -9   37.85    3.16   1
   3   4  -9   29.64    3.57   2
   3  -4  -9   34.35    3.76   1
   2  -4  -9  103.23    5.72   2
   2   4  -9  107.42    5.92   2
   2  -4  -9   98.39    5.78   1
   2   4  -9  102.33    5.05   1
   1   4  -9   15.48    2.77   2
   1  -4  -9   14.10    2.85   1
   1   4  -9   11.01    2.51   1
   1  -4  -9   15.73    2.76   2
   0   4  -9    1.18    1.93   1
   0   4  -9    6.32    2.21   2
   0  -4  -9    3.72    2.18   1
  -1  -4  -9    3.26    2.14   1
  -1   4  -9    3.08    2.41   1
  -1   4  -9    2.84    1.90   2
  -2   4  -9  334.56   10.62   2
  -2   4  -9  340.90   11.34   1
  -2  -4  -9  347.56   11.55   1
  -3   4  -9   49.48    4.78   1
  -3  -4  -9   47.80    4.76   1
   3   4   9   33.44    7.96   3
  -3   4  -9   41.31    4.06   2
  -4   4  -9  244.22   10.24   1
  -4  -4  -9  274.04   10.78   1
   4   4   9  261.20   15.68   3
  -5   4  -9   27.34    4.76   1
   5   4   9   21.78    7.61   3
  -5  -4  -9   30.87    4.57   1
   6   4   9  221.01   15.79   3
  -6   4  -9  211.49   10.53   1
  -6  -4  -9  196.23    9.67   1
   7   4   9    6.70    7.96   3
  -7  -4  -9    5.78    3.85   1
  -7   4  -9    3.34    3.78   1
  -8   4  -9   12.20    4.92   1
   8   4   9    1.80    8.33   3
  -8  -4  -9    3.76    3.61   1
   9   4   9   -6.46    8.47   3
  -9  -4  -9   -3.03    3.59   1
  -9   4  -9   -1.81    4.27   1
 -10   4  -9    0.34    4.29   1
  10   4   9    3.87    9.83   3
  13   5  -9   10.63    5.94   2
  13  -5  -9   -0.11    5.41   2
  12   5  -9    1.90    5.32   2
  12  -5  -9    4.94    4.85   2
  11  -5  -9   -0.62    4.42   2
  11   5  -9   -6.22    4.49   2
  10  -5  -9   -2.36    3.93   2
  10   5  -9   12.33    5.08   2
   9   5  -9   55.44    7.11   2
   9  -5  -9   57.62    6.91   2
   8   5  -9    4.23    3.96   2
   8  -5  -9    1.65    2.56   1
   8  -5  -9    1.38    3.62   2
   7   5  -9    2.34    3.29   2
   7  -5  -9    4.12    3.44   2
   7  -5  -9   -0.59    2.21   1
   6   5  -9   -1.46    2.57   2
   6  -5  -9   -2.93    2.85   2
   6  -5  -9    1.20    2.10   1
   5  -5  -9   -1.91    1.87   1
   5   5  -9   -0.19    2.49   2
   5  -5  -9    2.57    3.01   2
   4  -5  -9  210.85    8.74   1
   4   5  -9  206.28    8.90   2
   4  -5  -9  208.52    8.69   2
   3   5  -9  109.98    6.22   2
   3  -5  -9  117.54    6.29   2
   3   5  -9  114.64    5.08   1
   3  -5  -9  116.64    6.44   1
   2   5  -9  175.31    7.68   2
   2  -5  -9  190.03    7.19   2
   2  -5  -9  173.75    7.84   1
   2   5  -9  182.24    6.73   1
   1  -5  -9   75.95    5.42   1
   1   5  -9   68.31    4.68   1
   1   5  -9   69.64    5.00   2
   0   5  -9 1750.02   33.66   2
   0   5  -9 1796.40   32.74   1
   0  -5  -9 1749.58   33.93   1
  -1   5  -9   38.97    4.16   1
  -1   5  -9   43.53    4.20   2
  -1  -5  -9   43.40    4.37   1
  -2   5  -9  455.52   13.27   2
  -2   5  -9  453.62   13.41   1
   2   5   9  457.40   19.21   3
  -2  -5  -9  483.04   14.06   1
  -3   5  -9  308.65   11.17   1
   3   5   9  319.41   16.50   3
  -3  -5  -9  299.33   11.08   1
  -3   5  -9  302.26   10.60   2
  -4  -5  -9  115.48    7.21   1
  -4   5  -9  136.25    7.67   1
   4   5   9  131.86   11.85   3
   5   5   9   -1.08    6.45   3
  -5   5  -9   -0.87    2.76   1
  -5  -5  -9   -3.53    2.54   1
   6   5   9   -4.18    6.65   3
  -6  -5  -9    1.09    2.89   1
  -6   5  -9    2.17    3.65   1
  -7   5  -9    5.20    4.21   1
  -7  -5  -9   10.03    4.00   1
   7   5   9   -9.20    6.99   3
  -8  -5  -9    1.85    3.73   1
   8   5   9    0.08    8.32   3
  -8   5  -9   -1.85    3.66   1
  -9   5  -9   -3.39    4.18   1
   9   5   9    7.32    8.72   3
  -9  -5  -9    5.82    4.01   1
 -10   5  -9   31.02    6.89   1
  10   5   9   41.57   12.14   3
  13   6  -9   -2.29    5.22   2
  13  -6  -9   -0.90    5.09   2
  12  -6  -9    4.13    5.08   2
  12   6  -9   -5.26    4.28   2
  11  -6  -9    4.53    4.65   2
  11   6  -9    1.83    5.11   2
  10  -6  -9   47.73    7.01   2
  10   6  -9   35.24    6.28   2
   9  -6  -9   -5.47    3.76   2
   9   6  -9    2.96    4.10   2
   8  -6  -9  173.97   10.31   2
   8   6  -9  177.18   10.10   2
   8  -6  -9  176.51    8.82   1
   7   6  -9   -0.15    3.21   2
   7  -6  -9   -0.14    3.43   2
   7  -6  -9    1.66    2.52   1
   6   6  -9  246.66   10.71   2
   6  -6  -9  254.96   10.14   1
   6  -6  -9  255.10   11.08   2
   5  -6  -9    3.17    3.03   2
   5   6  -9    2.13    2.57   2
   5  -6  -9   -0.46    2.07   1
   4   6  -9  141.88    7.46   2
   4  -6  -9  146.53    7.64   1
   4  -6  -9  152.11    7.61   2
   3   6  -9   41.81    4.32   2
   3  -6  -9   42.67    4.23   2
   3   6  -9   44.70    3.36   1
   3  -6  -9   39.85    4.27   1
   2  -6  -9   93.98    5.30   2
   2   6  -9  103.86    5.20   1
   2  -6  -9   95.62    6.12   1
   2   6  -9  107.26    6.09   2
   1   6  -9   -0.09    1.72   2
   1   6  -9    1.22    2.19   1
   1  -6  -9   -1.69    2.02   1
   0  -6  -9    4.90    2.40   1
   0   6  -9    2.77    2.13   1
   0   6  -9    8.34    2.45   2
  -1   6  -9   28.82    3.72   1
   1   6   9   18.25    5.69   3
  -1   6  -9   29.23    3.74   2
  -1  -6  -9   25.88    3.90   1
   2   6   9   46.09    7.97   3
  -2   6  -9   40.17    4.52   1
  -2  -6  -9   44.13    4.69   1
  -2   6  -9   50.43    4.60   2
  -3   6  -9    2.35    2.22   2
   3   6   9    7.39    6.08   3
  -3  -6  -9    4.07    2.76   1
  -3   6  -9    5.03    2.69   1
  -4  -6  -9  114.84    7.42   1
  -4   6  -9  112.65    7.18   1
   4   6   9  135.00   12.32   3
  -5   6  -9   18.57    4.01   1
   5   6   9   11.28    6.79   3
  -5  -6  -9   15.17    3.78   1
  -6   6  -9   78.62    6.94   1
  -6  -6  -9   92.41    7.27   1
   6   6   9   82.68   11.73   3
   7   6   9   11.49    8.01   3
  -7   6  -9   19.62    5.21   1
  -7  -6  -9   18.50    4.48   1
   8   6   9  139.62   14.68   3
  -8  -6  -9  131.52    8.96   1
  -8   6  -9  148.77    9.83   1
  -9  -6  -9    4.69    4.02   1
  -9   6  -9    3.48    4.96   1
   9   6   9    5.13    9.54   3
  10   6   9   31.83   12.32   3
 -10   6  -9   27.43    6.28   1
  12  -7  -9   30.09    6.93   2
  12   7  -9   27.22    7.39   2
  11   7  -9    3.86    4.76   2
  11  -7  -9   -0.89    4.72   2
  10   7  -9  176.64   11.46   2
  10  -7  -9  194.34   11.93   2
   9  -7  -9    3.30    3.08   1
   9  -7  -9   -1.88    3.59   2
   9   7  -9   -3.38    3.69   2
   8   7  -9   17.87    4.74   2
   8  -7  -9   22.03    5.06   2
   8  -7  -9   24.59    4.23   1
   7  -7  -9    1.75    2.56   1
   7  -7  -9   -0.25    3.65   2
   7   7  -9   -0.87    3.15   2
   6  -7  -9    5.64    3.76   2
   6  -7  -9   11.18    3.09   1
   6   7  -9   10.80    3.76   2
   5  -7  -9    9.70    3.62   2
   5   7  -9    5.65    2.92   2
   5  -7  -9    3.37    2.65   1
   4  -7  -9  327.44   11.82   1
   4   7  -9  319.14   11.65   2
   4  -7  -9  315.48   11.09   2
   3   7  -9   -1.08    1.87   2
   3  -7  -9   -0.42    2.26   2
   3  -7  -9    1.34    2.23   1
   2   7  -9  800.45   17.00   1
   2  -7  -9  797.71   19.96   1
   2   7  -9  769.23   19.41   2
   1   7  -9   98.71    5.48   1
   1  -7  -9   89.24    6.07   1
   1   7  -9  110.74    6.60   2
   0  -7  -9  183.54    8.59   1
   0   7  -9  173.99    8.09   2
   0   7  -9  170.67    7.43   1
   1   7   9  158.22   11.74   3
  -1  -7  -9  142.00    7.64   1
  -1   7  -9  158.67    7.78   2
  -1   7  -9  147.52    7.22   1
   2   7   9    7.17    6.12   3
  -2   7  -9   10.27    3.03   1
  -2   7  -9   13.05    2.94   2
  -2  -7  -9   10.88    3.15   1
   3   7   9  160.01   13.06   3
  -3   7  -9  128.72    7.50   1
  -3  -7  -9  136.26    7.74   1
  -3   7  -9  130.59    7.44   2
   4   7   9   17.20    7.54   3
  -4  -7  -9   16.70    3.77   1
  -4   7  -9   19.04    3.97   1
  -5  -7  -9   -0.19    2.88   1
   5   7   9    9.91    7.21   3
  -5   7  -9   -2.00    2.81   1
  -6   7  -9   30.07    5.03   1
  -6  -7  -9   42.57    5.42   1
   6   7   9   31.56    8.82   3
  -7  -7  -9   -0.59    3.30   1
  -7   7  -9   -1.31    3.96   1
   7   7   9   -6.39    7.38   3
  -8   7  -9    1.84    4.47   1
   8   7   9    0.41    8.86   3
  -8  -7  -9   14.23    4.55   1
   9   7   9    2.84    9.35   3
  -9   7  -9   -1.51    4.23   1
  10   7   9    9.23   11.12   3
  12  -8  -9    1.36    4.82   2
  12   8  -9   -5.44    5.23   2
  11   8  -9    7.66    5.14   2
  11  -8  -9    7.51    4.89   2
  11   8  -9   -0.36    3.82   3
  10   8  -9   12.29    5.20   2
  10  -8  -9   21.00    5.92   2
   9   8  -9    6.25    4.81   2
   9  -8  -9    3.01    3.14   1
   9  -8  -9   -0.48    4.21   2
   8   8  -9  171.76   10.08   2
   8  -8  -9  184.70    9.54   1
   8  -8  -9  177.07   10.48   2
   7   8  -9    6.61    3.76   2
   7  -8  -9   10.58    3.98   2
   7  -8  -9    0.72    2.54   1
   6  -8  -9  206.20   10.15   2
   6  -8  -9  223.49   10.05   1
   6   8  -9  221.11   10.45   2
   5   8  -9    1.26    2.57   2
   5  -8  -9    1.96    2.39   1
   5  -8  -9    0.11    2.85   2
   4   8  -9  128.67    7.40   2
   4  -8  -9  136.26    7.30   2
   4  -8  -9  145.20    7.94   1
   3  -8  -9   34.29    4.32   1
   3  -8  -9   34.79    4.07   2
   3   8  -9   25.91    4.03   2
   2  -8  -9    3.58    2.65   1
   2   8  -9    4.34    2.27   1
   2   8  -9    6.49    2.61   2
   1   8  -9   12.60    2.73   1
   1   8  -9    6.42    2.47   2
   1  -8  -9    4.99    2.52   1
   0  -8  -9   31.20    4.24   1
   0   8   9   36.67    6.92   3
   0   8  -9   38.59    3.85   1
   0   8  -9   31.45    3.99   2
  -1   8  -9    1.57    2.25   2
   1   8   9    1.11    5.33   3
  -1  -8  -9    0.78    2.53   1
  -1   8  -9   -2.62    1.91   1
  -2  -8  -9   53.84    5.40   1
   2   8   9   56.35    7.98   3
  -2   8  -9   48.68    5.00   2
  -2   8  -9   44.34    4.67   1
  -3   8  -9   11.37    3.21   2
   3   8   9   12.38    6.90   3
  -3  -8  -9    9.09    3.45   1
  -3   8  -9   10.83    3.21   1
   4   8   9   90.82   10.98   3
  -4  -8  -9  124.43    7.93   1
  -4   8  -9  132.12    7.95   1
  -5  -8  -9    7.48    3.53   1
   5   8   9    8.78    6.83   3
  -5   8  -9   11.26    3.79   1
   6   8   9  228.88   16.22   3
  -6   8  -9  223.36   11.01   1
  -6  -8  -9  195.87   10.23   1
   7   8   9    3.34    8.08   3
  -7   8  -9    7.60    4.31   1
  -7  -8  -9    8.30    4.03   1
  -8  -8  -9   83.09    7.55   1
   8   8   9   90.23   13.40   3
  -8   8  -9   76.81    7.95   1
   9   8   9  -18.20    8.50   3
  -9   8  -9    2.32    5.04   1
  10   8   9   14.76   11.65   3
  12   9  -9    0.66    5.66   2
  12  -9  -9    4.64    5.66   2
  11  -9  -9   -1.01    4.73   2
  11   9  -9    3.68    4.54   3
  11   9  -9    5.52    4.91   2
  10   9  -9    2.08    4.57   2
  10  -9  -9    4.21    4.81   2
   9  -9  -9   14.21    5.02   2
   9  -9  -9   14.01    4.22   1
   9   9  -9   11.97    5.13   2
   8   9  -9   12.26    4.64   2
   8  -9  -9    7.79    3.53   1
   8  -9  -9    6.49    4.22   2
   7   9  -9    0.40    3.39   2
   7  -9  -9    0.50    2.53   1
   7  -9  -9    1.95    3.43   2
   6   9  -9   23.21    4.36   2
   6  -9  -9   41.65    5.42   2
   6  -9  -9   22.36    4.00   1
   5   9  -9   12.92    3.55   2
   5  -9  -9   19.17    3.88   1
   5  -9  -9   20.13    4.10   2
   4   9  -9  203.84    9.63   2
   4  -9  -9  164.16    8.90   1
   4  -9  -9  200.70    8.91   2
   3   9  -9   47.70    5.02   2
   3  -9  -9   38.98    4.80   1
   2   9  -9    5.21    2.30   1
   2   9  -9   14.25    3.43   2
   2  -9  -9    9.48    3.03   1
   1   9  -9  233.36   10.12   2
   1  -9  -9  231.89   10.20   1
   1   9  -9  222.18    8.41   1
   0  -9  -9  223.73   10.35   1
   0   9  -9  232.83   10.08   2
   0   9  -9  236.61    8.84   1
   0   9   9  228.28   12.87   3
  -1   9  -9   26.06    3.77   1
  -1   9  -9   23.43    3.87   2
  -1  -9  -9   24.41    4.16   1
   1   9   9   26.26    6.72   3
  -2  -9  -9  257.84   11.10   1
   2   9   9  274.10   14.80   3
  -2   9  -9  280.01   11.26   2
  -2   9  -9  252.24    9.99   1
   3   9   9   47.31    8.02   3
  -3   9  -9   45.13    4.90   1
  -3  -9  -9   52.21    5.66   1
  -3   9  -9   46.44    5.24   2
  -4  -9  -9  100.92    7.26   1
  -4   9  -9  110.81    7.48   1
   4   9   9  111.37   11.49   3
  -5   9  -9   40.73    5.23   1
   5   9   9   31.91    8.70   3
  -5  -9  -9   42.54    5.34   1
   6   9   9   -2.08    6.44   3
  -6  -9  -9    3.60    3.22   1
  -6   9  -9    2.54    3.44   1
  -7   9  -9    4.20    3.93   1
   7   9   9    4.91    7.92   3
  -7  -9  -9    9.04    4.03   1
   8   9   9    8.06    8.49   3
  -8   9  -9    0.76    4.30   1
   9   9   9   -0.32    8.76   3
  -9   9  -9    2.19    5.40   1
  12 -10  -9    0.30    5.13   2
  11  10  -9    3.33    4.91   2
  11 -10  -9    5.48    4.92   2
  11  10  -9    4.39    4.84   3
  10 -10  -9   25.70    5.04   1
  10 -10  -9   24.76    6.26   2
  10  10  -9   23.08    5.92   2
   9 -10  -9   15.29    4.45   1
   9 -10  -9    3.60    4.35   2
   9  10  -9    2.69    4.61   2
   8  10  -9  136.00    9.50   2
   8 -10  -9  109.98    7.88   1
   8 -10  -9  113.19    9.19   2
   7 -10  -9    2.06    3.53   2
   7  10  -9    2.06    3.60   2
   7 -10  -9    3.96    3.11   1
   6 -10  -9  181.44    9.72   1
   6 -10  -9  192.01   10.19   2
   6  10  -9  216.11   10.44   2
   5 -10  -9    7.02    3.34   2
   5  10  -9    3.85    3.07   2
   5 -10  -9   12.94    3.71   1
   4  10  -9   68.30    5.94   2
   4 -10  -9   65.68    5.80   2
   4 -10  -9   75.90    6.61   1
   3 -10  -9    5.12    2.74   1
   3  10  -9    1.92    2.43   2
   2  10  -9    9.48    3.15   2
   2 -10  -9    6.68    3.13   1
   1  10  -9   18.39    3.11   1
   1 -10  -9   13.85    3.58   1
   1  10  -9   16.16    3.59   2
   0 -10  -9   24.19    4.24   1
   0  10  -9   31.91    3.84   1
   0  10  -9   24.68    4.10   2
   1  10   9    2.82    5.39   3
  -1  10  -9    2.14    2.45   1
  -1  10  -9   -0.13    2.27   2
  -1 -10  -9    1.24    2.76   1
  -2  10  -9  124.11    7.24   1
  -2  10  -9  122.51    7.91   2
  -2 -10  -9  122.33    7.94   1
   2  10   9  130.60   11.21   3
  -3 -10  -9   -2.05    2.89   1
  -3  10  -9    0.29    2.68   1
  -3  10  -9   -0.25    2.39   2
   3  10   9   11.30    6.30   3
  -4 -10  -9  221.53   10.61   1
   4  10   9  189.08   14.40   3
  -4  10  -9  211.66   10.11   1
  -5 -10  -9    6.26    3.57   1
  -5  10  -9    1.88    3.11   1
   5  10   9    6.58    6.51   3
  -6 -10  -9  142.06    9.13   1
  -6  10  -9  134.80    9.22   1
   6  10   9  129.25   13.33   3
  -7  10  -9   16.06    4.80   1
   7  10   9    7.06    8.19   3
  -7 -10  -9   14.30    4.50   1
  -8  10  -9   19.11    5.81   1
   8  10   9   13.13    9.74   3
   9  10   9   -3.63    9.57   3
  11  11  -9   -3.66    5.13   2
  11  11  -9    8.23    5.12   3
  11 -11  -9    2.75    4.91   2
  10 -11  -9   11.46    4.41   1
  10 -11  -9   18.38    5.74   2
  10  11  -9   14.93    6.02   2
   9  11  -9   16.03    5.07   2
   9 -11  -9   12.35    5.00   2
   9 -11  -9   16.11    4.37   1
   8  11  -9   10.93    4.43   2
   8 -11  -9    5.81    4.32   2
   8 -11  -9    6.98    3.79   1
   7 -11  -9   47.45    6.28   2
   7  11  -9   31.31    5.21   2
   7 -11  -9   30.09    5.07   1
   6  11  -9    2.08    3.29   2
   6 -11  -9    3.20    3.25   2
   6 -11  -9    0.78    2.77   1
   5 -11  -9   23.90    4.44   1
   5  11  -9   44.63    5.25   2
   5 -11  -9   26.79    4.46   2
   4 -11  -9   22.44    4.46   1
   4  11  -9   27.20    4.50   2
   3  11  -9   28.13    4.48   2
   3 -11  -9   33.70    5.11   1
   2 -11  -9   72.03    6.52   1
   2  11  -9   70.01    6.36   2
   1  11  -9   -1.25    2.12   1
   1 -11  -9    2.57    3.07   1
   1  11  -9    2.06    2.75   2
   0  11   9  334.69   15.88   3
   0 -11  -9  336.50   13.32   1
   0  11  -9  354.48   11.27   1
   0  11  -9  343.37   13.25   2
  -1  11  -9   -3.60    2.03   2
  -1  11  -9    0.68    2.24   1
  -1 -11  -9    3.30    2.94   1
   1  11   9   -3.85    4.82   3
  -2 -11  -9  125.34    8.25   1
  -2  11  -9  122.83    8.25   2
   2  11   9  110.47   10.38   3
  -2  11  -9  124.95    7.40   1
   3  11   9    9.14    6.34   3
  -3  11  -9    6.91    3.23   2
  -3 -11  -9    8.14    3.77   1
  -3  11  -9    4.19    3.28   1
  -4  11  -9  137.10    8.64   1
   4  11   9  130.69   11.77   3
  -4 -11  -9  135.57    8.73   1
  -5 -11  -9    6.37    3.82   1
  -5  11  -9    6.17    3.92   1
   5  11   9    3.24    7.12   3
   6  11   9   -2.96    6.71   3
  -6  11  -9    9.93    4.58   1
  -6 -11  -9    6.03    3.95   1
   7  11   9   -3.54    6.99   3
  -7 -11  -9   -2.75    3.48   1
  -7  11  -9    3.00    4.13   1
  -8  11  -9   40.41    6.77   1
   8  11   9   59.43   12.15   3
   9  11   9   -0.58   10.08   3
  11  12  -9   -7.26    5.13   2
  11 -12  -9    3.49    5.21   2
  11  12  -9   13.63    5.89   3
  10 -12  -9   15.59    4.79   1
  10  12  -9   11.92    5.57   2
  10 -12  -9   14.61    5.60   2
   9 -12  -9   18.93    5.00   1
   9 -12  -9   14.85    5.22   2
   9  12  -9   18.10    5.76   2
   8 -12  -9   45.02    6.28   1
   8  12  -9   42.71    6.42   2
   8 -12  -9   46.61    6.71   2
   7 -12  -9   17.61    4.47   1
   7 -12  -9    9.38    4.34   2
   7  12  -9   20.36    4.93   2
   6  12  -9   72.44    6.95   2
   6 -12  -9  105.68    8.20   2
   6 -12  -9   86.70    7.49   1
   5 -12  -9    1.81    3.06   1
   5  12  -9    0.65    2.77   2
   4  12  -9  169.18    9.37   2
   4 -12  -9  160.75    9.44   1
   3 -12  -9    0.46    2.47   1
   3  12  -9   -0.57    2.62   2
   2  12  -9    5.35    3.40   2
   2 -12  -9   10.25    3.63   1
   1 -12  -9    6.94    3.51   1
   1  12  -9    7.44    3.25   2
   0 -12  -9   26.91    4.69   1
   0  12  -9   35.20    4.15   1
   0  12  -9   31.90    4.97   2
  -1 -12  -9   27.84    5.08   1
  -1  12  -9   29.99    4.28   1
  -1  12  -9   27.48    4.64   2
   1  12   9   45.24    7.48   3
   2  12   9   94.65    9.87   3
  -2  12  -9   86.98    7.27   2
  -2 -12  -9   96.59    7.79   1
  -2  12  -9   91.96    6.70   1
  -3  12  -9    4.47    3.37   2
  -3 -12  -9   -0.65    3.28   1
   3  12   9    3.04    6.02   3
  -3  12  -9    4.26    3.13   1
  -4  12  -9  120.37    8.06   1
  -4 -12  -9  131.49    8.70   1
   4  12   9  122.43   12.13   3
  -5  12  -9   -1.65    3.11   1
  -5 -12  -9   -0.76    3.38   1
   5  12   9    5.44    6.85   3
   6  12   9   72.88   11.08   3
  -6 -12  -9   74.45    7.62   1
  -6  12  -9   62.91    7.34   1
  -7  12  -9    1.36    4.37   1
   7  12   9    9.54    8.94   3
   8  12   9    7.86    9.27   3
  10 -13  -9    8.82    4.55   1
  10  13  -9   13.49    5.69   2
 -10  13   9    5.46    4.62   1
  10 -13  -9    3.21    4.79   2
   9 -13  -9    4.29    4.70   2
   9 -13  -9    4.73    4.23   1
   9  13  -9    4.05    4.63   2
   8  13  -9    2.92    4.19   2
   8 -13  -9    1.62    3.55   1
   8 -13  -9   -2.94    3.29   2
   7 -13  -9    4.83    3.55   1
   7  13  -9   -1.50    3.64   2
   7 -13  -9    8.69    4.19   2
   6  13  -9    2.86    3.49   2
   6 -13  -9    6.93    3.97   2
   6 -13  -9    5.03    3.37   1
   5 -13  -9   16.74    4.38   1
   5  13  -9   18.12    4.48   2
   4 -13  -9  236.55   11.77   1
   4  13  -9  250.84   11.63   2
   3  13  -9   -1.33    2.53   2
   3 -13  -9   -1.07    2.91   1
   2 -13  -9  367.59   14.75   1
   2  13  -9  369.38   14.54   2
   1 -13  -9    9.29    4.05   1
   1  13  -9    6.99    3.49   2
   0 -13  -9  395.93   15.32   1
   0  13  -9  366.43   12.20   1
   0  13  -9  405.93   15.32   2
  -1  13  -9    6.63    3.02   1
  -1  13  -9    3.79    3.12   2
  -1 -13  -9    3.89    3.61   1
  -2  13  -9   87.04    6.77   1
   2  13   9   75.60    9.41   3
  -2 -13  -9   87.18    7.64   1
  -2  13  -9   88.06    7.67   2
  -3  13  -9   10.76    3.93   1
  -3 -13  -9    8.64    3.97   1
   3  13   9   -0.03    6.08   3
  -3  13  -9   11.80    4.24   2
  -4 -13  -9   23.70    5.22   1
  -4  13  -9   27.52    4.86   1
   4  13   9   13.52    7.29   3
   5  13   9  -12.60    6.12   3
  -5  13  -9   -1.40    3.09   1
  -5 -13  -9   -1.84    3.33   1
  -6 -13  -9    2.25    3.86   1
  -6  13  -9    0.53    4.23   1
   6  13   9  -11.76    6.72   3
   7  13   9   -7.56    7.93   3
  -7  13  -9    4.51    4.93   1
   8  13   9  -10.17    8.60   3
  10 -14  -9    6.62    5.06   2
  10  14  -9   -5.84    4.74   2
  10 -14  -9    6.68    4.62   1
 -10  14   9    3.13    4.77   1
   9 -14  -9    8.17    4.81   2
   9  14  -9    2.51    4.81   2
   9 -14  -9   13.37    5.14   1
   8 -14  -9   26.67    5.37   1
   8 -14  -9   29.33    6.11   2
   8  14  -9   30.54    5.82   2
   7 -14  -9   13.61    4.62   2
   7  14  -9    5.34    3.91   2
   7 -14  -9    8.97    4.22   1
   6  14  -9   78.55    7.23   2
   6 -14  -9   57.15    6.78   1
   5  14  -9    0.00    3.05   2
   5 -14  -9    5.49    3.73   1
   4 -14  -9   80.57    7.67   1
   4  14  -9   81.14    7.14   2
   3 -14  -9    8.57    3.88   1
   3  14  -9    3.25    3.24   2
   2  14  -9   35.27    5.30   2
   2 -14  -9   38.77    5.92   1
   1  14  -9    2.62    3.11   2
   1 -14  -9    9.83    4.18   1
   0 -14  -9    4.99    3.42   1
   0  14  -9    6.95    3.71   2
  -1  14  -9   13.20    3.88   1
  -1  14  -9   20.31    4.72   2
  -1 -14  -9   17.64    4.68   1
   2  14   9  118.66   10.84   3
  -2  14  -9  103.15    7.48   1
  -2  14  -9   99.54    8.39   2
  -2 -14  -9   89.47    7.85   1
   3  14   9   -1.57    5.88   3
  -3  14  -9    0.26    3.15   2
  -3 -14  -9    2.51    3.68   1
  -3  14  -9   -1.05    3.08   1
  -4  14  -9   76.64    7.17   1
   4  14   9   67.37   10.00   3
  -4 -14  -9   72.00    7.49   1
  -5  14  -9    5.32    4.07   1
   5  14   9   -3.60    6.74   3
  -5 -14  -9    1.05    3.89   1
   6  14   9   50.01   10.17   3
  -6  14  -9   64.64    7.68   1
   7  14   9    2.39    8.94   3
   9 -15  -9    3.89    4.53   1
   9  15  -9    1.89    4.48   2
   9 -15  -9   11.23    5.17   2
   8 -15  -9    0.54    3.51   1
   8  15  -9   -0.18    4.20   2
   7  15  -9   11.65    4.71   2
   7 -15  -9    5.80    3.81   1
   6 -15  -9   -0.07    3.11   1
   6  15  -9    1.58    3.37   2
   5 -15  -9   30.94    5.60   1
   5  15  -9   26.24    5.04   2
   4 -15  -9   72.07    7.62   1
   4  15  -9   55.20    6.58   2
   3 -15  -9   22.09    5.04   1
   3  15  -9   45.04    5.85   2
   2 -15  -9  234.14   12.51   1
   1 -15  -9   24.51    5.21   1
   1  15  -9   15.99    4.41   2
   0 -15  -9  183.40   11.07   1
   0  15  -9  160.29   10.12   2
  -1  15  -9    0.33    3.06   2
  -1  15  -9    6.28    3.31   1
  -1 -15  -9    3.99    3.57   1
  -2  15  -9  111.66    9.07   2
  -2  15  -9  110.44    7.83   1
  -2 -15  -9  121.06    9.28   1
  -3  15  -9    6.78    3.95   1
   3  15   9   -6.09    5.74   3
  -3  15  -9    5.63    3.80   2
  -3 -15  -9    5.01    4.00   1
  -4 -15  -9   14.12    4.51   1
  -4  15  -9    5.54    4.39   1
   4  15   9   -0.90    6.51   3
  -5 -15  -9    7.97    4.37   1
   5  15   9   -1.91    7.04   3
  -5  15  -9    9.67    4.89   1
   6  15   9    0.13    7.50   3
  -6  15  -9   -0.90    4.52   1
   8  16  -9   14.89    5.58   2
   8 -16  -9   18.64    5.62   1
   7 -16  -9   -0.36    3.85   1
   7  16  -9   -1.16    3.90   2
   6  16  -9   27.89    5.40   2
   6 -16  -9   33.03    5.80   1
   5 -16  -9    0.04    3.37   1
   5  16  -9   -2.93    2.95   2
   4 -16  -9   89.82    8.55   1
   4  16  -9   74.07    7.30   2
   3 -16  -9   -0.63    3.56   1
   3  16  -9    2.94    3.14   2
   2  16  -9   16.53    4.57   2
   2 -16  -9   20.53    5.12   1
   1  16  -9   16.26    4.59   2
   1 -16  -9   17.37    5.28   1
   0  16  -9   -1.76    3.12   2
   0 -16  -9    3.81    3.94   1
  -1  16  -9    3.08    3.50   2
  -1 -16  -9    5.93    4.14   1
  -2 -16  -9   55.75    6.96   1
  -2  16  -9   57.22    7.24   2
  -2  16  -9   54.76    6.11   1
  -3 -16  -9   -1.49    3.89   1
   3  16   9   -4.45    5.88   3
  -3  16  -9    4.76    3.96   1
  -3  16  -9    6.19    4.26   2
  -4 -16  -9   67.23    7.70   1
  -4  16  -9   45.03    6.23   1
   4  16   9   50.01    9.66   3
  -4  16  -9   47.84    7.00   2
  -5  16  -9   -5.41    4.01   1
   5  16   9  -12.32    6.77   3
   6  16   9   10.99    9.04   3
   7  17  -9    1.96    4.36   2
   6 -17  -9    5.91    4.20   1
   6  17  -9   -1.51    3.86   2
   5  17  -9   -0.37    3.25   2
   5 -17  -9   -3.37    3.11   1
   4 -17  -9   59.35    7.54   1
   4  17  -9   59.67    6.88   2
   3 -17  -9   -3.02    3.62   1
   3  17  -9    0.91    3.21   2
   2  17  -9  117.95    9.34   2
   2 -17  -9  123.38   10.16   1
   1  17  -9   10.76    4.32   2
   1 -17  -9    9.06    4.79   1
   0  17  -9  251.50   13.37   2
   0 -17  -9  239.22   13.11   1
  -1 -17  -9    3.55    4.10   1
  -1  17  -9   -2.23    3.36   2
  -2  17  -9   33.01    5.32   1
  -2  17  -9   29.92    5.95   2
  -2 -17  -9   41.37    6.80   1
  -3  17  -9    2.37    3.94   1
  -3  17  -9    4.74    3.99   2
  -3 -17  -9    2.25    4.32   1
  -4  17  -9   14.26    5.33   2
  -4 -17  -9   15.39    5.44   1
  -4  17  -9   11.83    4.79   1
   4  17   9    4.79    7.77   3
   5  17   9    6.53    8.34   3
   6  18  -9   42.09    6.57   2
   5  18  -9    2.35    3.82   2
   5 -18  -9   10.89    4.81   1
   4  18  -9   39.24    6.11   2
   4 -18  -9   24.97    5.86   1
   3 -18  -9    8.94    5.07   1
   3  18  -9   14.69    4.69   2
   2  18  -9   17.88    4.95   2
   2 -18  -9   12.30    4.93   1
   1 -18  -9    7.72    4.75   1
   1  18  -9    4.85    3.74   2
   0 -18  -9    3.17    4.43   1
   0  18  -9    3.14    3.86   2
  -1  18  -9   11.12    4.61   2
  -1 -18  -9    6.91    4.79   1
  -2 -18  -9   41.61    6.91   1
  -2  18  -9   31.39    6.43   2
  -3  18  -9   -2.82    3.72   1
  -3 -18  -9    6.11    4.73   1
  -3  18  -9    5.55    4.69   2
  -4  18  -9   36.64    6.37   1
  -4  18  -9   42.38    7.50   2
   5  19  -9    1.12    3.94   2
   4  19  -9   18.75    5.30   2
   3 -19  -9   -2.97    4.22   1
   3  19  -9   -0.04    3.29   2
   2  19  -9   60.18    7.66   2
   2 -19  -9   64.92    8.23   1
   1 -19  -9    7.09    4.76   1
   1  19  -9   -1.78    3.31   2
   0  19  -9  135.34   10.70   2
   0 -19  -9  125.11   10.64   1
  -1  19  -9   12.90    4.98   2
  -1 -19  -9    0.61    4.51   1
  -2 -19  -9   93.99    9.68   1
  -2  19  -9   87.36    9.20   2
   2  20  -9   -1.06    3.86   2
   1  20  -9    5.30    4.21   2
   0  20  -9    1.57    3.70   2
  13   0 -10   -3.58    4.74   2
  12   0 -10   32.93    7.17   2
  11   0 -10    0.82    4.50   2
  10   0 -10   11.27    5.27   2
   9   0 -10   -4.64    3.92   2
   8   0 -10   -1.28    4.04   2
   7   0 -10    0.09    3.78   2
   6   0 -10  158.15    9.28   2
   5   0 -10    0.19    3.27   2
   5   0 -10    0.29    1.78   1
   4   0 -10  710.86   16.56   1
   4   0 -10  733.39   18.43   2
   3   0 -10   -1.19    1.61   1
   3   0 -10   -1.83    2.33   2
   2   0 -10  890.50   19.54   2
   2   0 -10  852.25   18.89   1
   1   0 -10    1.20    2.10   1
   1   0 -10   -1.36    1.80   2
   0   0 -10 1375.01   25.61   2
   0   0 -10 1301.14   26.72   1
  -1   0 -10   -0.63    1.50   2
  -1   0 -10    0.93    2.29   1
  -2   0 -10  216.86    9.12   1
  -3   0 -10   -2.10    2.05   1
  -4   0 -10  375.19   13.25   1
  -5   0 -10    1.49    3.23   1
  -6   0 -10   39.60    5.63   1
  -7   0 -10    0.99    3.96   1
  -8   0 -10    5.80    4.29   1
  -9   0 -10   -0.60    3.88   1
 -10   0 -10   26.68    6.33   1
  13   1 -10   -4.50    4.68   2
  13  -1 -10   -1.04    4.87   2
  12  -1 -10    0.70    4.91   2
  12   1 -10    1.31    4.61   2
  11   1 -10    0.13    4.71   2
  11  -1 -10   -0.78    4.24   2
  10   1 -10   37.73    7.11   2
  10  -1 -10   44.18    6.88   2
   9   1 -10    1.98    4.67   2
   9  -1 -10   -1.70    4.13   2
   8   1 -10  209.19   11.31   2
   8  -1 -10  211.65   11.69   2
   7  -1 -10    0.54    3.74   2
   7   1 -10    0.48    4.06   2
   6  -1 -10  257.18    9.27   1
   6  -1 -10  251.57   11.29   2
   6   1 -10  291.58   11.99   2
   5  -1 -10    4.51    2.17   1
   5  -1 -10    3.26    3.55   2
   5   1 -10    4.81    2.01   1
   5   1 -10    3.80    3.24   2
   4  -1 -10  506.54   13.59   1
   4  -1 -10  520.26   14.95   2
   4   1 -10  535.82   15.20   2
   4   1 -10  501.18   12.84   1
   3  -1 -10    0.60    1.84   1
   3   1 -10    3.24    1.89   1
   3   1 -10    2.42    2.52   2
   3  -1 -10   -0.82    2.46   2
   2  -1 -10  129.25    6.43   1
   2   1 -10  115.36    5.73   1
   2   1 -10  104.45    5.89   2
   2  -1 -10  115.37    6.30   2
   1   1 -10    5.54    2.30   1
   1   1 -10    7.94    2.37   2
   1  -1 -10    7.18    2.57   2
   1  -1 -10    6.80    2.33   1
   0  -1 -10   42.17    4.32   1
   0  -1 -10   36.90    3.51   2
   0   1 -10   42.21    4.21   1
   0   1 -10   40.52    3.60   2
  -1   1 -10    0.88    2.18   1
  -1   1 -10    5.02    1.86   2
  -1  -1 -10    2.35    2.50   1
  -2   1 -10  384.78   12.61   1
  -2  -1 -10  397.58   12.67   1
  -3  -1 -10    3.92    2.85   1
  -3   1 -10    0.09    2.41   1
  -4   1 -10  120.03    7.59   1
  -4  -1 -10  127.45    7.70   1
  -5   1 -10   15.47    4.14   1
  -5  -1 -10    8.77    3.88   1
  -6   1 -10  196.19   10.32   1
  -6  -1 -10  188.16    9.96   1
  -7  -1 -10    7.80    4.23   1
  -7   1 -10   -2.51    3.48   1
  -8  -1 -10   34.02    6.06   1
  -8   1 -10   14.14    5.32   1
  -9   1 -10    5.37    4.38   1
  -9  -1 -10    3.01    4.33   1
 -10   1 -10    6.66    5.35   1
 -10  -1 -10   -1.48    4.52   1
  13  -2 -10    3.29    5.73   2
  13   2 -10    4.86    5.46   2
  12  -2 -10   18.19    6.27   2
  12   2 -10    4.17    5.33   2
  11  -2 -10    0.67    4.73   2
  11   2 -10    2.10    4.75   2
  10  -2 -10   33.46    6.73   2
  10   2 -10   49.22    7.31   2
   9   2 -10   22.61    6.02   2
   9  -2 -10   15.71    5.13   2
   8   2 -10   -3.18    4.09   2
   8  -2 -10   -4.32    3.57   2
   7  -2 -10   -2.18    3.50   2
   7   2 -10    1.57    4.08   2
   6  -2 -10   -2.22    1.85   1
   6  -2 -10   -3.53    3.62   2
   6   2 -10   -0.18    3.14   2
   5  -2 -10   -1.19    1.83   1
   5   2 -10   -0.51    2.67   2
   5  -2 -10   -1.36    2.99   2
   4  -2 -10  421.47   13.36   2
   4   2 -10  433.17   11.30   1
   4  -2 -10  432.50   12.57   1
   4   2 -10  430.62   13.50   2
   3   2 -10   -0.89    1.66   1
   3  -2 -10   -1.05    2.58   2
   3   2 -10    0.08    2.14   2
   3  -2 -10    3.96    2.24   1
   2   2 -10  546.80   14.39   2
   2   2 -10  539.60   13.44   1
   2  -2 -10  534.99   14.25   1
   2  -2 -10  529.40   13.88   2
   1   2 -10   16.02    2.97   1
   1  -2 -10   15.50    3.09   1
   1  -2 -10   20.50    3.10   2
   1   2 -10   18.13    2.79   2
   0   2 -10  644.73   15.35   2
   0   2 -10  645.36   15.95   1
   0  -2 -10  628.15   16.21   1
  -1   2 -10   -0.48    1.48   2
  -1   2 -10    1.71    2.34   1
  -1  -2 -10   -0.69    1.80   1
  -2   2 -10  161.34    6.80   2
  -2   2 -10  169.97    8.11   1
  -2  -2 -10  170.82    8.16   1
  -3   2 -10   60.24    5.51   1
  -3  -2 -10   61.30    5.58   1
  -4  -2 -10    0.32    3.18   1
  -4   2 -10    7.99    3.42   1
  -5  -2 -10   24.38    4.43   1
  -5   2 -10   27.07    5.12   1
  -6  -2 -10   17.29    4.43   1
  -6   2 -10   15.19    4.34   1
  -7  -2 -10   -4.44    2.94   1
  -7   2 -10    1.11    3.77   1
  -8   2 -10    4.85    4.49   1
  -8  -2 -10   10.28    4.32   1
  -9   2 -10    5.42    4.59   1
  -9  -2 -10    0.49    4.16   1
 -10   2 -10   43.23    6.95   1
 -10  -2 -10   36.68    6.33   1
  13  -3 -10    7.16    5.70   2
  13   3 -10   -3.74    4.69   2
  12  -3 -10   11.32    5.96   2
  12   3 -10    0.04    5.03   2
  11  -3 -10    8.38    5.49   2
  11   3 -10   12.48    5.96   2
  10   3 -10   25.19    6.01   2
  10  -3 -10   14.75    5.51   2
   9   3 -10    8.15    5.09   2
   9  -3 -10   -0.64    4.18   2
   8   3 -10   77.87    7.50   2
   8  -3 -10   79.62    7.86   2
   7   3 -10   23.88    5.04   2
   7  -3 -10   20.64    4.80   2
   7  -3 -10   27.57    3.80   1
   6  -3 -10  173.80    9.75   2
   6  -3 -10  181.55    8.10   1
   6   3 -10  180.14    9.38   2
   5  -3 -10    3.86    2.31   1
   5  -3 -10    4.18    3.35   2
   5   3 -10    5.21    3.38   2
   4   3 -10  170.78    6.49   1
   4   3 -10  155.16    7.92   2
   4  -3 -10  172.76    7.82   1
   4  -3 -10  162.15    8.36   2
   3  -3 -10   15.05    2.90   1
   3   3 -10    9.19    2.86   2
   3  -3 -10   13.43    3.34   2
   3   3 -10    9.38    2.26   1
   2  -3 -10  102.71    6.09   1
   2  -3 -10   96.14    5.95   2
   2   3 -10   89.17    5.72   2
   2   3 -10   93.28    5.26   1
   1   3 -10   50.59    4.31   2
   1  -3 -10   52.36    4.18   2
   1  -3 -10   47.88    4.59   1
   1   3 -10   54.92    4.44   1
   0   3 -10   52.93    4.62   1
   0   3 -10   41.36    3.91   2
   0  -3 -10   43.21    4.29   1
  -1  -3 -10   16.36    3.31   1
  -1   3 -10   16.33    3.41   1
  -1   3 -10   14.18    2.68   2
  -2  -3 -10  158.54    8.12   1
  -2   3 -10  160.61    8.06   1
  -2   3 -10  164.91    7.15   2
  -3  -3 -10   30.94    4.38   1
  -3   3 -10   32.61    4.48   1
  -3   3 -10   23.33    3.30   2
  -4  -3 -10  263.63   10.98   1
  -4   3 -10  270.66   11.36   1
  -5   3 -10    3.13    3.47   1
  -5  -3 -10   10.01    3.79   1
  -6  -3 -10   24.52    5.03   1
  -6   3 -10   26.37    5.41   1
  -7  -3 -10    2.95    3.82   1
  -7   3 -10    6.30    4.26   1
  -8  -3 -10    6.98    4.23   1
  -8   3 -10    9.96    4.77   1
  -9   3 -10    1.80    4.97   1
  -9  -3 -10   -2.50    4.14   1
 -10  -3 -10   -4.43    4.13   1
 -10   3 -10   -7.40    4.75   1
  13   4 -10   -3.27    5.34   2
  13  -4 -10    2.33    5.84   2
  12   4 -10   -1.11    4.92   2
  12  -4 -10    8.48    6.02   2
  11   4 -10   17.65    6.41   2
  11  -4 -10    5.27    5.31   2
  10   4 -10   47.75    7.09   2
  10  -4 -10   66.24    7.87   2
   9   4 -10    1.23    4.16   2
   9  -4 -10    3.11    4.38   2
   8   4 -10   -6.37    3.12   2
   8  -4 -10   -8.18    3.37   2
   7   4 -10   -0.22    3.84   2
   7  -4 -10    4.63    3.96   2
   7  -4 -10    0.86    2.19   1
   6  -4 -10    2.09    3.58   2
   6   4 -10    2.95    3.31   2
   6  -4 -10    0.14    2.10   1
   5  -4 -10   45.59    5.56   2
   5   4 -10   52.16    5.54   2
   5  -4 -10   49.18    4.68   1
   4   4 -10   43.11    4.69   2
   4  -4 -10   54.73    4.75   1
   4  -4 -10   48.83    5.11   2
   3   4 -10   26.82    3.81   2
   3   4 -10   22.49    2.91   1
   3  -4 -10   32.80    3.87   1
   3  -4 -10   24.33    3.92   2
   2  -4 -10  500.26   13.10   2
   2  -4 -10  507.98   14.43   1
   2   4 -10  493.13   12.66   1
   2   4 -10  502.38   14.04   2
   1   4 -10   25.68    3.37   1
   1  -4 -10   16.27    3.26   1
   1   4 -10   15.21    2.89   2
   0  -4 -10 1148.64   25.19   1
   0   4 -10 1184.14   24.31   1
   0   4 -10 1163.70   24.51   2
  -1   4 -10   69.79    5.45   1
  -1  -4 -10   58.85    5.07   1
  -1   4 -10   56.81    4.58   2
  -2  -4 -10  183.74    8.82   1
  -2   4 -10  161.03    7.45   2
  -2   4 -10  178.34    8.56   1
  -3  -4 -10    3.28    2.87   1
  -3   4 -10    1.95    2.05   2
  -3   4 -10    5.12    3.01   1
  -4   4 -10  178.21    9.18   1
  -4   4 -10  190.53    8.26   2
  -4  -4 -10  179.08    9.15   1
   5   4  10   16.60    7.58   3
  -5   4 -10   11.90    3.97   1
  -5  -4 -10   13.52    3.93   1
   6   4  10   54.27   10.05   3
  -6   4 -10   72.50    7.00   1
  -6  -4 -10   53.57    6.08   1
  -7  -4 -10   60.11    6.79   1
   7   4  10   63.96   11.96   3
  -7   4 -10   56.98    7.00   1
  -8   4 -10   45.04    6.97   1
   8   4  10   53.32   11.90   3
  -8  -4 -10   50.73    6.54   1
  -9  -4 -10    0.01    4.28   1
  -9   4 -10   10.34    5.13   1
   9   4  10   11.45    9.97   3
 -10  -4 -10   49.85    7.14   1
  12  -5 -10   -4.55    5.23   2
  12   5 -10   -5.18    4.97   2
  11  -5 -10   -0.84    4.61   2
  11   5 -10   -4.72    4.57   2
  10  -5 -10    5.48    5.00   2
  10   5 -10    3.14    5.03   2
   9   5 -10   10.08    5.11   2
   9  -5 -10    1.67    4.49   2
   8   5 -10   77.59    7.76   2
   8  -5 -10  100.30    8.42   2
   7  -5 -10   25.51    4.00   1
   7   5 -10   38.10    5.77   2
   7  -5 -10   32.96    5.57   2
   6   5 -10   95.63    7.27   2
   6  -5 -10   91.95    6.37   1
   6  -5 -10  127.24    8.29   2
   5  -5 -10    3.56    2.59   1
   5   5 -10    4.47    2.96   2
   5  -5 -10    4.04    3.11   2
   4  -5 -10  248.94    9.90   2
   4   5 -10  239.86   10.14   2
   4  -5 -10  250.57   10.07   1
   3  -5 -10   14.18    3.17   1
   3  -5 -10   17.79    3.35   2
   3   5 -10   17.34    3.26   2
   3   5 -10   14.58    2.46   1
   2  -5 -10   -1.41    2.15   2
   2  -5 -10   -0.76    2.10   1
   2   5 -10   -0.97    1.77   1
   2   5 -10    3.33    2.37   2
   1   5 -10   18.70    3.24   2
   1   5 -10   22.38    3.29   1
   1  -5 -10   18.39    3.38   1
   0   5 -10    6.53    2.72   1
   0  -5 -10    7.72    2.78   1
   0   5 -10    2.93    2.05   2
  -1  -5 -10   51.00    5.00   1
  -1   5 -10   44.64    4.21   2
  -1   5 -10   60.53    5.09   1
  -2  -5 -10   64.96    5.63   1
  -2   5 -10   79.54    5.91   1
  -2   5 -10   76.12    5.45   2
  -3   5 -10    6.09    2.52   2
  -3  -5 -10   12.49    3.62   1
  -3   5 -10    9.93    3.27   1
   4   5  10  101.79   11.94   3
  -4   5 -10  110.86    7.40   1
  -4  -5 -10  110.71    7.43   1
  -4   5 -10  106.58    6.53   2
  -5   5 -10   20.04    4.55   1
   5   5  10   27.22    8.88   3
  -5  -5 -10   28.72    4.89   1
   6   5  10  134.11   14.05   3
  -6   5 -10  132.50    9.01   1
  -6  -5 -10  140.23    8.98   1
  -7  -5 -10   -0.91    3.18   1
   7   5  10   -5.88    7.67   3
  -7   5 -10   -0.82    3.71   1
   8   5  10   29.01   10.18   3
  -8   5 -10   22.43    6.07   1
  -8  -5 -10   38.40    6.14   1
  -9  -5 -10   -0.18    4.12   1
   9   5  10    9.91   10.08   3
  -9   5 -10    3.76    4.95   1
  10   5  10   -1.46   10.41   3
  12   6 -10   34.19    7.39   2
  12  -6 -10   37.09    7.69   2
  11  -6 -10    8.13    5.49   2
  11   6 -10   -7.73    4.49   2
  10   6 -10   60.76    7.69   2
  10  -6 -10   63.47    8.25   2
   9  -6 -10   23.43    5.52   2
   9   6 -10   22.94    5.47   2
   8   6 -10   75.71    7.33   2
   8  -6 -10   55.94    5.75   1
   8  -6 -10   72.16    7.58   2
   7   6 -10   17.49    4.62   2
   7  -6 -10   21.88    4.76   2
   7  -6 -10   39.40    4.76   1
   6   6 -10    1.67    3.34   2
   6  -6 -10   -1.13    2.25   1
   6  -6 -10    3.49    3.43   2
   5   6 -10   10.39    3.41   2
   5  -6 -10    5.67    2.79   1
   5  -6 -10    5.65    3.49   2
   4  -6 -10  194.14    8.85   1
   4  -6 -10  180.84    8.52   2
   4   6 -10  180.94    8.74   2
   3   6 -10  118.82    5.59   1
   3  -6 -10  106.44    6.93   1
   3  -6 -10  104.70    6.27   2
   3   6 -10  123.11    6.95   2
   2   6 -10  150.15    6.51   1
   2   6 -10  137.49    7.25   2
   2  -6 -10  134.80    7.60   1
   1   6 -10   23.83    3.44   1
   1   6 -10   19.08    3.28   2
   1  -6 -10   22.58    3.72   1
   0   6 -10   51.60    4.54   1
   0   6 -10   49.43    4.61   2
   0  -6 -10   54.64    5.12   1
  -1   6 -10   30.73    4.12   1
  -1  -6 -10   15.28    3.51   1
  -1   6 -10   25.93    3.69   2
  -2  -6 -10   34.49    4.58   1
  -2   6 -10   42.57    4.84   1
  -2   6 -10   43.86    4.55   2
  -3   6 -10    0.28    2.11   2
  -3   6 -10    0.75    2.65   1
  -3  -6 -10    1.83    2.93   1
   3   6  10    1.85    6.41   3
  -4   6 -10    2.40    2.49   2
   4   6  10    1.03    6.43   3
  -4  -6 -10    1.73    2.77   1
  -4   6 -10   -2.76    3.00   1
  -5  -6 -10   48.08    5.77   1
   5   6  10   34.37    9.20   3
  -5   6 -10   30.22    4.92   1
  -6   6 -10    2.26    3.59   1
   6   6  10    0.50    7.21   3
  -6  -6 -10    4.95    3.98   1
  -7   6 -10   14.33    4.81   1
   7   6  10   12.16    8.06   3
  -7  -6 -10   10.91    4.53   1
  -8   6 -10    2.36    4.92   1
   8   6  10   -2.05    8.74   3
  -8  -6 -10    4.80    4.16   1
  -9   6 -10   30.83    6.73   1
   9   6  10   20.49   10.52   3
  -9  -6 -10   20.62    5.45   1
  12   7 -10   -3.74    5.01   2
  12  -7 -10    6.29    5.81   2
  11   7 -10    0.94    5.36   2
  11  -7 -10    0.54    4.69   2
  10   7 -10    4.51    4.80   2
  10  -7 -10    1.13    4.85   2
   9  -7 -10   -2.40    4.11   2
   9   7 -10    0.73    4.49   2
   8  -7 -10   41.42    5.27   1
   8  -7 -10   60.32    7.23   2
   8   7 -10   50.11    6.58   2
   7   7 -10   -1.85    3.14   2
   7  -7 -10    1.64    2.38   1
   7  -7 -10    3.25    3.64   2
   6  -7 -10  167.57    8.86   1
   6   7 -10  154.69    8.97   2
   6  -7 -10  169.33    9.51   2
   5   7 -10    0.74    2.73   2
   5  -7 -10    1.32    3.12   2
   5  -7 -10    1.03    2.39   1
   4  -7 -10   50.43    5.03   2
   4   7 -10   43.01    4.97   2
   4  -7 -10   49.45    5.10   1
   3   7 -10   33.20    4.24   2
   3  -7 -10   33.89    4.43   1
   2   7 -10   12.38    2.73   1
   2   7 -10   15.54    3.17   2
   2  -7 -10   19.84    3.87   1
   1   7 -10    1.21    2.25   1
   1  -7 -10    0.98    2.23   1
   1   7 -10    3.97    2.44   2
   0   7 -10    1.27    2.08   2
   0   7 -10    1.17    2.34   1
   0  -7 -10   -1.81    2.27   1
  -1   7 -10    3.85    2.45   2
  -1  -7 -10   -0.29    2.41   1
  -1   7 -10    5.61    2.78   1
  -2   7 -10   81.13    6.24   1
  -2  -7 -10   91.32    6.63   1
  -2   7 -10   81.24    6.13   2
   2   7  10   85.16    9.68   3
  -3  -7 -10   20.63    4.22   1
   3   7  10   19.99    7.04   3
  -3   7 -10   17.86    3.49   2
  -3   7 -10   19.94    4.12   1
  -4   7 -10  106.00    7.41   1
  -4   7 -10  102.36    7.06   2
  -4  -7 -10  113.31    7.69   1
   4   7  10  134.60   12.82   3
  -5   7 -10   12.57    4.07   1
   5   7  10   17.06    7.90   3
  -5  -7 -10   12.42    4.16   1
  -6  -7 -10  217.21   10.87   1
   6   7  10  253.95   18.42   3
  -6   7 -10  256.78   11.97   1
  -7  -7 -10    6.97    4.25   1
  -7   7 -10   -0.20    4.31   1
   7   7  10   11.74    9.07   3
  -8   7 -10   94.31    8.83   1
  -8  -7 -10  124.63    9.14   1
   8   7  10  123.24   15.38   3
   9   7  10    0.24    9.19   3
  -9   7 -10    6.87    5.17   1
  12  -8 -10   15.94    6.40   2
  12   8 -10    2.85    5.71   2
  11   8 -10   -3.64    5.04   2
  11  -8 -10   -0.08    5.09   2
  10  -8 -10   25.23    6.48   2
  10   8 -10   13.90    5.47   2
   9   8 -10   13.10    5.04   2
   9  -8 -10   25.69    5.59   2
   9  -8 -10   12.77    3.92   1
   8   8 -10   -2.32    3.53   2
   8  -8 -10    6.51    4.35   2
   8  -8 -10    5.12    3.18   1
   7  -8 -10   25.06    5.15   2
   7  -8 -10   28.69    4.69   1
   7   8 -10   23.63    4.81   2
   6  -8 -10   -2.08    3.18   2
   6   8 -10    4.51    3.62   2
   6  -8 -10    4.77    2.91   1
   5  -8 -10   29.60    4.60   1
   5   8 -10   19.16    4.20   2
   5  -8 -10   21.76    4.47   2
   4   8 -10  133.91    7.87   2
   4  -8 -10  144.73    8.40   1
   4  -8 -10  129.09    7.38   2
   3  -8 -10  117.63    7.41   1
   3   8 -10  120.91    7.51   2
   2  -8 -10    2.09    2.58   1
   2   8 -10    0.81    2.29   2
   2   8 -10    7.72    2.70   1
   1   8 -10   83.17    6.38   2
   1  -8 -10   84.80    6.64   1
   1   8 -10  100.97    5.97   1
   0  -8 -10  241.52   10.74   1
   0   8 -10  253.86   10.57   2
   0   8 -10  244.41    9.27   1
  -1  -8 -10    8.54    3.26   1
  -1   8 -10   -0.40    2.40   1
  -1   8 -10   -2.99    1.97   2
   1   8  10   -3.36    5.17   3
   2   8  10   83.38    9.91   3
  -2   8 -10   66.80    5.80   2
  -2   8 -10   69.67    5.79   1
  -2  -8 -10   83.51    6.87   1
  -3   8 -10   37.98    4.87   1
  -3  -8 -10   35.02    4.91   1
  -3   8 -10   36.89    4.74   2
   3   8  10   38.21    8.61   3
  -4   8 -10   41.29    5.19   2
  -4  -8 -10   32.58    4.99   1
  -4   8 -10   37.42    5.19   1
   4   8  10   40.28    8.88   3
  -5   8 -10   -4.07    2.98   1
   5   8  10   -2.68    7.16   3
  -5  -8 -10   -1.65    3.25   1
   6   8  10   22.07    9.22   3
  -6  -8 -10   34.60    5.39   1
  -6   8 -10   31.88    5.40   1
   7   8  10    7.85    8.47   3
  -7  -8 -10   -0.71    3.31   1
  -7   8 -10    1.26    3.92   1
   8   8  10   -0.63    8.95   3
  -8  -8 -10   -0.70    3.84   1
  -8   8 -10    0.43    4.93   1
   9   8  10   -3.68    9.73   3
  11   9 -10   -3.17    4.90   2
  11  -9 -10   -0.26    5.10   2
  10   9 -10   62.58    7.96   2
  10  -9 -10   79.96    9.00   2
   9  -9 -10   20.89    4.65   1
   9  -9 -10   22.45    5.86   2
   9   9 -10   12.80    5.11   2
   8  -9 -10  131.14    9.83   2
   8  -9 -10  138.51    8.71   1
   8   9 -10  153.83   10.17   2
   7  -9 -10    3.84    4.03   2
   7   9 -10    2.72    3.58   2
   7  -9 -10   14.89    3.95   1
   6  -9 -10  123.02    8.36   2
   6  -9 -10   99.44    7.30   1
   6   9 -10  118.48    8.15   2
   5  -9 -10   13.80    3.68   1
   5  -9 -10    7.73    3.58   2
   5   9 -10   14.85    3.86   2
   4  -9 -10   74.14    6.45   1
   4   9 -10   77.75    6.42   2
   3   9 -10    4.67    2.98   2
   3  -9 -10    1.11    2.47   1
   2   9 -10    5.50    2.90   2
   2  -9 -10    9.33    3.26   1
   1   9 -10   16.57    3.17   1
   1   9 -10   21.69    4.04   2
   1  -9 -10   12.34    3.57   1
   0   9 -10    3.31    2.54   1
   0  -9 -10    2.45    2.91   1
   0   9  10    7.74    5.30   3
   0   9 -10    1.37    2.59   2
   1   9  10    8.78    6.08   3
  -1  -9 -10    1.01    2.92   1
  -1   9 -10   11.33    3.35   1
  -1   9 -10    2.68    2.83   2
  -2   9 -10   65.02    5.88   2
  -2  -9 -10   82.04    6.89   1
   2   9  10   71.39    9.52   3
  -2   9 -10   63.95    5.69   1
  -3  -9 -10    7.58    3.49   1
  -3   9 -10    4.06    2.92   2
  -3   9 -10    2.88    3.18   1
   3   9  10    4.95    6.78   3
  -4  -9 -10  306.82   12.94   1
   4   9  10  300.78   18.22   3
  -4   9 -10  285.45   12.17   1
  -4   9 -10  278.11   12.11   2
   5   9  10   -8.80    6.83   3
  -5   9 -10    0.05    2.92   1
  -5  -9 -10   -6.35    2.90   1
  -6   9 -10  168.42   10.33   1
  -6  -9 -10  143.51    9.48   1
   6   9  10  158.09   15.41   3
  -7  -9 -10   -1.38    3.33   1
   7   9  10    2.87    7.81   3
  -7   9 -10    3.06    3.99   1
   8   9  10   19.42   10.26   3
  -8   9 -10   25.57    6.58   1
  -8  -9 -10   34.12    6.05   1
   9   9  10    0.62    9.88   3
  11  10 -10    0.19    5.14   2
  11 -10 -10   -1.77    4.56   2
  10 -10 -10   12.27    5.71   2
  10  10 -10    8.12    5.28   2
   9 -10 -10   -8.04    3.26   2
   9 -10 -10   -1.92    3.25   1
   9  10 -10   -1.71    3.93   2
   8  10 -10    9.31    4.77   2
   8 -10 -10    5.29    4.26   2
   8 -10 -10    8.05    3.70   1
   7 -10 -10    2.23    3.84   2
   7  10 -10    2.91    3.71   2
   7 -10 -10    0.49    2.90   1
   6 -10 -10   37.55    5.55   2
   6  10 -10   31.18    5.08   2
   6 -10 -10   37.17    5.17   1
   5  10 -10    2.35    2.96   2
   5 -10 -10    6.40    3.38   2
   5 -10 -10    3.53    2.91   1
   4  10 -10   37.65    4.99   2
   4 -10 -10   24.97    4.44   1
   3 -10 -10    2.01    2.68   1
   3  10 -10    2.13    2.62   2
   2 -10 -10  202.88   10.16   1
   2  10 -10  184.90    9.51   2
   1  10 -10   32.69    3.98   1
   1  10 -10   41.85    5.29   2
   1 -10 -10   32.89    4.88   1
   0  10 -10  533.22   14.96   1
   0  10 -10  530.35   16.86   2
   0  10  10  546.99   20.35   3
   0 -10 -10  525.06   17.36   1
  -1  10 -10   53.23    5.28   1
  -1 -10 -10   43.76    5.47   1
  -1  10 -10   39.72    5.29   2
   1  10  10   34.67    7.36   3
  -2 -10 -10  499.35   17.05   1
   2  10  10  525.44   21.70   3
  -2  10 -10  509.97   15.45   1
  -2  10 -10  518.42   16.92   2
  -3  10 -10   89.24    7.19   2
  -3  10 -10   97.33    6.98   1
  -3 -10 -10  101.09    8.10   1
   3  10  10  105.11   11.55   3
  -4  10 -10  251.85   11.40   1
   4  10  10  235.71   16.00   3
  -4 -10 -10  213.27   11.26   1
  -4  10 -10  221.12   11.11   2
  -5  10 -10   27.49    5.27   1
   5  10  10   15.06    8.05   3
  -5 -10 -10   19.55    4.68   1
  -6 -10 -10   10.54    4.50   1
  -6  10 -10   15.91    5.07   1
   6  10  10   17.08    8.36   3
   7  10  10    2.63    8.68   3
  -7  10 -10   -2.09    4.05   1
  -7 -10 -10   -1.47    3.79   1
  -8  10 -10   84.04    8.90   1
   8  10  10  114.00   15.57   3
  11  11 -10   -7.07    5.21   2
  11 -11 -10    4.67    5.53   2
  11  11 -10    2.97    4.56   3
  10 -11 -10   20.64    5.19   1
  10  11 -10   24.09    6.60   2
  10 -11 -10   21.10    6.27   2
   9 -11 -10   32.53    6.53   2
   9  11 -10   13.67    5.57   2
   9 -11 -10    5.46    3.61   1
   8 -11 -10  119.09    9.54   2
   8 -11 -10  130.79    8.87   1
   8  11 -10  105.94    8.90   2
   7 -11 -10   13.55    4.11   1
   7  11 -10   12.32    4.72   2
   7 -11 -10   19.78    4.91   2
   6  11 -10  183.76   10.27   2
   6 -11 -10  171.80    9.99   1
   6 -11 -10  218.91   10.91   2
   5  11 -10   -1.31    2.68   2
   5 -11 -10   -0.01    2.79   1
   4  11 -10  175.92    9.69   2
   4 -11 -10  182.90   10.28   1
   3 -11 -10    2.36    3.09   1
   3  11 -10   -0.78    2.49   2
   2 -11 -10    8.31    3.45   1
   2  11 -10   13.35    3.91   2
   1  11 -10    3.79    2.94   2
   1 -11 -10    2.11    3.01   1
   0  11 -10   19.06    4.06   2
   0  11 -10   18.76    3.75   1
   0 -11 -10   14.46    4.29   1
  -1  11 -10    1.27    2.59   2
   1  11  10    4.96    5.97   3
  -1  11 -10    3.80    2.88   1
  -1 -11 -10    3.89    3.38   1
   2  11  10  171.72   13.62   3
  -2 -11 -10  143.90    9.45   1
  -2  11 -10  167.77    8.59   1
  -2  11 -10  159.99    9.35   2
  -3  11 -10    4.05    3.06   1
  -3 -11 -10   -1.88    3.23   1
  -3  11 -10    2.41    3.03   2
   3  11  10   11.50    6.62   3
  -4 -11 -10  134.94    9.13   1
  -4  11 -10  144.37    9.26   2
   4  11  10  131.13   13.18   3
  -4  11 -10  131.09    8.73   1
  -5  11 -10    1.79    3.59   1
   5  11  10   -6.37    6.87   3
  -5 -11 -10    5.51    4.05   1
  -6 -11 -10   51.72    6.67   1
  -6  11 -10   54.84    6.85   1
   6  11  10   51.84   11.57   3
  -7 -11 -10   -0.19    3.65   1
  -7  11 -10   -2.60    4.32   1
   7  11  10    3.49    9.29   3
   8  11  10   -2.33    9.77   3
  10 -12 -10   17.12    5.19   1
  10  12 -10   19.08    6.45   2
  10 -12 -10   20.54    6.55   2
   9 -12 -10    1.98    3.66   1
   9  12 -10    3.07    4.24   2
   9 -12 -10    7.45    4.64   2
   8 -12 -10    6.01    3.72   1
   8 -12 -10    2.79    4.25   2
   8  12 -10   -0.49    4.02   2
   7 -12 -10   -0.05    3.25   1
   7 -12 -10    5.64    4.24   2
   7  12 -10    0.70    3.54   2
   6  12 -10   10.96    4.18   2
   6 -12 -10   17.14    4.53   1
   5 -12 -10   51.72    6.45   1
   5  12 -10   49.25    5.93   2
   4  12 -10  203.18   10.58   2
   4 -12 -10  231.28   11.71   1
   3  12 -10   23.34    4.72   2
   3 -12 -10   21.26    4.69   1
   2  12 -10  412.43   15.27   2
   2 -12 -10  385.33   15.36   1
   1 -12 -10   19.05    4.56   1
   1  12 -10   22.66    4.53   2
   0  12 -10  243.74    9.86   1
   0 -12 -10  217.12   11.44   1
   0  12 -10  255.30   11.90   2
   1  12  10   -0.51    5.48   3
  -1 -12 -10    2.67    3.23   1
  -1  12 -10   -1.19    2.49   1
  -1  12 -10    2.17    3.13   2
   2  12  10   84.30   10.36   3
  -2  12 -10   84.51    7.40   2
  -2 -12 -10   85.66    7.92   1
  -2  12 -10   85.02    6.73   1
  -3  12 -10    2.25    3.30   2
   3  12  10    0.47    6.48   3
  -3 -12 -10    0.47    3.13   1
  -3  12 -10    1.70    3.21   1
  -4  12 -10   17.13    4.63   2
  -4 -12 -10   26.24    5.43   1
  -4  12 -10   31.39    5.17   1
   4  12  10   23.70    8.34   3
  -5 -12 -10    3.27    4.03   1
  -5  12 -10    2.70    3.92   1
   5  12  10    1.04    7.72   3
  -6 -12 -10   -3.22    3.56   1
   6  12  10    7.93    8.96   3
  -6  12 -10    0.42    4.38   1
   7  12  10    7.12    9.86   3
  -7  12 -10   -3.91    4.42   1
  10  13 -10   12.04    6.08   2
  10 -13 -10    9.60    5.53   2
  10 -13 -10   12.61    5.39   1
   9 -13 -10   19.00    5.87   2
   9 -13 -10    5.14    4.40   1
   9  13 -10   10.36    5.27   2
   8 -13 -10   38.39    6.06   1
   8 -13 -10   48.79    7.20   2
   8  13 -10   39.47    6.47   2
   7 -13 -10   13.23    4.77   2
   7 -13 -10    5.75    3.80   1
   7  13 -10   11.48    4.64   2
   6 -13 -10   81.62    7.89   1
   6  13 -10   70.63    7.24   2
   5 -13 -10    0.21    2.90   1
   5  13 -10   -0.90    2.89   2
   4  13 -10  132.49    8.90   2
   4 -13 -10  139.83    9.52   1
   3 -13 -10    3.85    3.25   1
   3  13 -10    1.58    3.09   2
   2  13 -10   16.07    4.29   2
   2 -13 -10   10.83    4.01   1
   1 -13 -10    8.10    4.14   1
   1  13 -10    3.03    3.48   2
   0 -13 -10    8.81    3.81   1
   0  13 -10    6.48    3.42   2
  -1  13 -10    0.32    3.20   2
  -1  13 -10   -1.58    2.74   1
  -1 -13 -10    0.90    3.22   1
  -2  13 -10   73.54    7.35   2
  -2  13 -10   95.47    7.22   1
  -2 -13 -10   76.93    7.69   1
   2  13  10   67.82   10.18   3
   3  13  10   -5.52    6.42   3
  -3  13 -10    2.96    3.29   2
  -3  13 -10    3.23    3.12   1
  -3 -13 -10    2.93    3.52   1
  -4  13 -10   58.78    6.86   2
  -4 -13 -10   56.83    7.09   1
  -4  13 -10   69.07    6.81   1
   4  13  10   46.44    9.87   3
  -5  13 -10    1.17    3.96   1
   5  13  10    0.63    7.84   3
  -5 -13 -10    1.50    3.75   1
  -6 -13 -10   59.96    7.31   1
   6  13  10   39.64   11.00   3
  -6  13 -10   56.43    7.60   1
   7  13  10    6.47    9.23   3
   9  14 -10    5.55    5.34   2
   9 -14 -10   -1.02    4.33   2
   9 -14 -10    2.38    4.06   1
   8 -14 -10   -0.30    3.71   1
   8  14 -10   -2.19    3.66   2
   8 -14 -10    4.15    4.64   2
   7 -14 -10    0.83    3.48   1
   7  14 -10   -0.10    3.53   2
   6  14 -10    6.45    4.06   2
   6 -14 -10    4.98    4.02   1
   5  14 -10    9.67    4.11   2
   5 -14 -10   17.66    4.93   1
   4  14 -10  152.79    9.92   2
   4 -14 -10  152.27   10.31   1
   3 -14 -10    1.66    3.25   1
   3  14 -10    7.05    3.56   2
   2 -14 -10  151.68   10.29   1
   2  14 -10  196.85   10.93   2
   1 -14 -10    7.32    4.24   1
   1  14 -10   11.31    4.05   2
   0  14 -10  283.62   13.22   2
   0 -14 -10  273.69   13.49   1
  -1 -14 -10    0.58    3.60   1
  -1  14 -10    2.58    3.34   2
  -1  14 -10    0.16    2.87   1
  -2  14 -10   27.08    4.91   1
  -2  14 -10   41.85    6.00   2
  -2 -14 -10   28.40    5.63   1
   3  14  10   -4.76    6.74   3
  -3 -14 -10    3.45    4.17   1
  -3  14 -10    7.41    3.74   1
  -3  14 -10    2.92    3.76   2
  -4  14 -10   41.58    5.96   1
   4  14  10   30.36    9.43   3
  -4  14 -10   45.38    6.53   2
  -4 -14 -10   48.69    6.83   1
   5  14  10   -3.73    7.83   3
  -5 -14 -10    7.36    4.59   1
  -5  14 -10    5.49    4.77   1
   6  14  10   -9.39    8.18   3
  -6  14 -10   -1.45    4.04   1
   8 -15 -10   18.69    5.60   1
   8  15 -10   14.19    5.71   2
   7  15 -10   -0.98    4.11   2
   7 -15 -10    2.54    3.92   1
   6  15 -10   51.17    6.60   2
   6 -15 -10   45.54    6.74   1
   5  15 -10   -1.00    3.12   2
   5 -15 -10   -0.83    3.10   1
   4 -15 -10   69.33    7.71   1
   4  15 -10   48.47    6.36   2
   3 -15 -10   11.86    4.88   1
   3  15 -10   10.20    4.12   2
   2 -15 -10   57.76    7.47   1
   2  15 -10   52.74    6.61   2
   1 -15 -10   19.30    5.38   1
   1  15 -10   20.57    4.84   2
   0  15 -10    7.79    4.13   2
   0 -15 -10    9.79    4.67   1
  -1 -15 -10   16.72    5.16   1
  -1  15 -10   29.62    5.43   2
  -2  15 -10   37.04    6.17   2
  -2  15 -10   43.08    5.82   1
  -2 -15 -10   42.96    6.79   1
  -3  15 -10    3.35    3.94   2
  -3 -15 -10    8.22    4.43   1
  -3  15 -10    1.19    3.62   1
   3  15  10   -4.42    6.85   3
  -4 -15 -10   36.07    6.48   1
  -4  15 -10   23.63    5.53   2
  -4  15 -10   33.10    6.14   1
   4  15  10   31.05    9.58   3
  -5  15 -10   -4.11    3.79   2
  -5 -15 -10    0.08    3.83   1
  -5  15 -10    2.26    4.46   1
   5  15  10  -16.81    6.66   3
   6  15  10   33.16   11.44   3
   8  16 -10    2.76    5.01   2
   7 -16 -10   -0.74    4.02   1
   7  16 -10   -3.35    3.90   2
   6 -16 -10    2.22    3.59   1
   6  16 -10    1.59    3.82   2
   5 -16 -10   -1.04    3.76   1
   5  16 -10   -3.03    3.44   2
   4  16 -10   53.70    6.89   2
   4 -16 -10   45.92    6.83   1
   3  16 -10   11.46    4.25   2
   3 -16 -10    8.27    4.61   1
   2 -16 -10  101.70    9.35   1
   2  16 -10   73.62    7.75   2
   1  16 -10   -1.46    3.55   2
   1 -16 -10    3.78    4.37   1
   0  16 -10   72.51    7.72   2
   0 -16 -10  118.58    9.74   1
  -1  16 -10    6.17    4.02   2
  -1 -16 -10    6.61    4.46   1
  -2  16 -10   44.85    5.91   1
  -2  16 -10   41.84    6.79   2
  -2 -16 -10   32.92    6.38   1
  -3  16 -10   14.09    5.01   2
  -3 -16 -10   18.09    5.47   1
  -3  16 -10    9.44    4.11   1
  -4  16 -10   -0.48    3.82   2
  -4  16 -10   -0.73    3.90   1
  -4 -16 -10    0.78    3.97   1
   4  16  10   -7.50    7.43   3
   5  16  10    3.05    8.41   3
  -5  16 -10    3.39    4.48   2
   7  17 -10    2.19    4.22   2
   6  17 -10   23.52    5.52   2
   5 -17 -10    0.50    3.75   1
   5  17 -10   -0.90    3.38   2
   4 -17 -10   32.09    6.45   1
   4  17 -10   42.72    6.35   2
   3 -17 -10    5.24    4.23   1
   3  17 -10    7.93    4.22   2
   2  17 -10    6.13    4.08   2
   2 -17 -10    5.98    4.26   1
   1 -17 -10    1.21    4.17   1
   1  17 -10    4.87    3.77   2
   0  17 -10    3.90    4.12   2
   0 -17 -10   -2.39    3.80   1
  -1 -17 -10    3.76    4.19   1
  -1  17 -10    0.71    3.60   2
  -2  17 -10   16.23    5.54   2
  -2 -17 -10   19.06    5.59   1
  -3  17 -10    8.95    4.67   1
  -3  17 -10    2.28    4.11   2
  -3 -17 -10    3.09    4.44   1
  -4  17 -10   13.95    5.17   2
  -4 -17 -10   18.31    5.73   1
  -4  17 -10   14.60    5.17   1
   5  18 -10   15.35    5.38   2
   4  18 -10   11.76    4.70   2
   3 -18 -10    3.01    4.36   1
   3  18 -10    5.20    4.05   2
   2 -18 -10  110.94   10.17   1
   1  18 -10    7.66    4.54   2
   1 -18 -10   11.60    5.21   1
   0 -18 -10  128.27   10.74   1
   0  18 -10  131.02   10.56   2
  -1  18 -10   11.13    4.89   2
  -1 -18 -10    2.37    4.49   1
  -2 -18 -10   39.57    7.35   1
  -2  18 -10   34.04    6.60   2
  -3  18 -10   10.16    4.71   1
  -3 -18 -10    1.01    4.78   1
   3  19 -10    0.96    4.18   2
   2  19 -10    2.38    4.02   2
   1  19 -10    7.11    4.83   2
   0  19 -10    6.18    4.48   2
  12   0 -11    3.03    5.35   2
  11   0 -11   -0.71    5.32   2
  10   0 -11   46.54    7.42   2
   9   0 -11    6.39    4.92   2
   8   0 -11  165.50   10.62   2
   7   0 -11   -1.30    3.77   2
   6   0 -11  305.82   12.57   2
   5   0 -11    0.45    3.56   2
   5   0 -11   -0.78    2.06   1
   4   0 -11  270.31    9.53   1
   4   0 -11  254.80   10.75   2
   3   0 -11   -2.78    1.70   1
   3   0 -11   -0.10    2.69   2
   2   0 -11  136.55    6.90   1
   2   0 -11  132.25    7.11   2
   1   0 -11   -5.32    1.92   2
   1   0 -11   -1.40    1.83   1
   0   0 -11   19.83    3.57   1
   0   0 -11   16.73    2.83   2
  -1   0 -11   -0.75    2.21   1
  -2   0 -11  210.58    9.60   1
  -3   0 -11   -0.38    2.86   1
  -4   0 -11  216.18   10.25   1
  -5   0 -11    2.19    3.45   1
  -6   0 -11  101.53    8.21   1
  -7   0 -11    3.69    4.31   1
  -8   0 -11   25.16    6.13   1
  -9   0 -11   -1.27    4.80   1
  12   1 -11    5.99    5.69   2
  12  -1 -11   12.27    6.37   2
  11   1 -11   -2.90    4.63   2
  11  -1 -11    7.05    5.43   2
  10   1 -11   42.40    7.43   2
  10  -1 -11   46.13    7.66   2
   9   1 -11    4.23    5.31   2
   9  -1 -11   11.90    5.61   2
   8   1 -11   -1.54    4.00   2
   8  -1 -11    1.73    4.29   2
   7  -1 -11   14.69    5.10   2
   7   1 -11   14.67    4.73   2
   6  -1 -11   43.05    5.81   2
   6   1 -11   38.33    5.49   2
   5  -1 -11   41.26    5.35   2
   5  -1 -11   51.48    4.63   1
   5   1 -11   57.96    5.86   2
   4  -1 -11  428.95   13.99   2
   4   1 -11  429.45   14.04   2
   4  -1 -11  446.04   13.03   1
   4   1 -11  444.23   12.27   1
   3   1 -11    6.59    3.20   2
   3   1 -11    6.13    2.48   1
   3  -1 -11   11.70    3.49   2
   3  -1 -11    7.56    2.60   1
   2  -1 -11  660.44   16.76   1
   2  -1 -11  671.09   16.63   2
   2   1 -11  668.03   16.89   2
   2   1 -11  660.42   16.16   1
   1   1 -11    1.49    2.31   1
   1  -1 -11    0.06    2.37   2
   1  -1 -11   -0.34    2.02   1
   1   1 -11    2.66    2.28   2
   0  -1 -11 1097.35   24.08   1
   0   1 -11 1134.55   22.89   2
   0   1 -11 1049.89   23.52   1
  -1  -1 -11    5.32    2.74   1
  -1   1 -11   -0.27    2.26   1
  -2   1 -11  182.23    8.90   1
  -2  -1 -11  170.27    8.55   1
  -3   1 -11    0.92    3.08   1
  -3  -1 -11    0.97    3.04   1
  -4   1 -11   78.66    6.77   1
  -4  -1 -11   81.20    6.77   1
  -5   1 -11   36.96    5.66   1
  -5  -1 -11   38.97    5.37   1
  -6   1 -11   -1.93    3.86   1
  -6  -1 -11    1.73    3.85   1
  -7   1 -11   21.03    5.23   1
  -7  -1 -11    6.26    4.46   1
  -8   1 -11    2.89    4.83   1
  -8  -1 -11   11.02    5.13   1
  -9  -1 -11    5.18    4.82   1
  -9   1 -11   -2.80    4.75   1
  12  -2 -11    2.13    5.36   2
  12   2 -11   12.04    6.43   2
  11   2 -11   -0.35    5.20   2
  11  -2 -11    0.93    5.52   2
  10   2 -11   48.87    7.80   2
  10  -2 -11   58.32    7.66   2
   9   2 -11   -4.70    3.78   2
   9  -2 -11    4.04    4.77   2
   8   2 -11  211.97   11.70   2
   8  -2 -11  252.17   12.95   2
   7  -2 -11   54.27    6.91   2
   7   2 -11   59.17    6.73   2
   6   2 -11  227.40   10.88   2
   6  -2 -11  209.17   11.04   2
   6  -2 -11  222.21    9.22   1
   5   2 -11   -2.37    3.12   2
   5  -2 -11   -4.19    3.42   2
   5  -2 -11    2.61    2.33   1
   4   2 -11  311.16   11.98   2
   4  -2 -11  337.21   12.19   2
   4   2 -11  322.82   10.15   1
   4  -2 -11  343.29   11.34   1
   3   2 -11    0.63    1.95   1
   3  -2 -11    0.88    2.29   1
   3  -2 -11   -0.39    2.98   2
   3   2 -11    3.71    2.62   2
   2  -2 -11   77.47    5.68   1
   2   2 -11   65.23    4.89   1
   2   2 -11   73.42    5.46   2
   2  -2 -11   69.16    5.47   2
   1   2 -11    0.92    2.10   2
   1  -2 -11    0.54    2.30   1
   1   2 -11   -0.84    2.14   1
   0   2 -11   13.62    2.78   2
   0  -2 -11   10.96    3.27   1
   0   2 -11    6.82    2.90   1
  -1   2 -11   66.80    5.58   1
  -1  -2 -11   65.16    5.69   1
  -1   2 -11   64.63    4.65   2
  -2   2 -11  141.40    8.06   1
  -2  -2 -11  154.04    8.33   1
  -3  -2 -11    4.61    3.15   1
  -3   2 -11    2.62    3.18   1
  -4  -2 -11  110.69    7.73   1
  -4   2 -11  131.01    8.14   1
  -5  -2 -11    7.39    3.88   1
  -5   2 -11   10.40    4.11   1
  -6   2 -11   95.77    8.29   1
  -6  -2 -11  107.27    8.24   1
  -7  -2 -11   17.07    5.07   1
  -7   2 -11   12.49    5.12   1
  -8  -2 -11   25.43    5.51   1
  -8   2 -11   32.95    6.22   1
  -9   2 -11   -1.31    4.41   1
  -9  -2 -11    1.78    4.68   1
  12   3 -11    7.99    6.31   2
  12  -3 -11    5.27    5.58   2
  11  -3 -11    1.43    5.20   2
  11   3 -11    2.93    5.48   2
  10   3 -11   11.23    5.51   2
  10  -3 -11   -0.67    4.85   2
   9  -3 -11   28.53    6.05   2
   9   3 -11   37.35    6.77   2
   8   3 -11   -3.89    3.77   2
   8  -3 -11    9.97    4.60   2
   7   3 -11    7.28    4.59   2
   7  -3 -11    8.75    4.73   2
   6  -3 -11    9.24    4.47   2
   6   3 -11    7.56    3.96   2
   6  -3 -11   13.54    3.22   1
   5   3 -11   -2.54    2.65   2
   5  -3 -11   -1.76    2.03   1
   5  -3 -11    2.81    3.45   2
   4  -3 -11  277.79   10.40   1
   4   3 -11  276.63    8.99   1
   4  -3 -11  267.43   10.91   2
   4   3 -11  268.80   10.84   2
   3   3 -11    3.01    2.61   2
   3  -3 -11   -0.20    2.93   2
   3  -3 -11   -1.14    2.08   1
   3   3 -11   -0.58    1.90   1
   2  -3 -11  772.42   18.95   1
   2   3 -11  765.83   17.47   1
   2   3 -11  743.20   18.41   2
   2  -3 -11  727.52   17.57   2
   1   3 -11    3.94    2.33   1
   1  -3 -11   -0.14    2.10   1
   1   3 -11    2.46    2.28   2
   0   3 -11  770.79   18.18   2
   0  -3 -11  756.28   19.18   1
   0   3 -11  757.09   18.37   1
  -1   3 -11   82.92    6.08   1
  -1  -3 -11   83.39    6.10   1
  -1   3 -11   70.26    5.17   2
  -2  -3 -11  274.22   10.90   1
  -2   3 -11  245.38   10.50   1
  -2   3 -11  268.12    9.54   2
  -3   3 -11    0.69    2.91   1
  -3  -3 -11    2.23    2.91   1
  -4  -3 -11   29.23    5.00   1
  -4   3 -11   34.37    5.25   1
  -5   3 -11    1.59    3.46   1
  -5  -3 -11    4.48    3.45   1
  -6  -3 -11    1.42    3.65   1
  -6   3 -11    1.68    4.13   1
  -7   3 -11    0.78    3.90   1
  -7  -3 -11    0.16    3.67   1
  -8   3 -11   11.86    5.56   1
  -8  -3 -11    7.54    4.76   1
  -9   3 -11    0.97    4.78   1
  -9  -3 -11    4.32    4.71   1
  12   4 -11   -5.85    5.23   2
  12  -4 -11   -0.53    5.68   2
  11  -4 -11   -1.06    4.70   2
  11   4 -11   -0.18    5.43   2
  10  -4 -11    4.51    4.89   2
  10   4 -11    3.89    4.82   2
   9  -4 -11    6.46    5.03   2
   9   4 -11    5.91    4.79   2
   8   4 -11   82.67    7.91   2
   8  -4 -11   72.52    7.78   2
   7   4 -11    7.60    4.46   2
   7  -4 -11    0.25    3.57   2
   7  -4 -11    3.22    2.81   1
   6   4 -11  143.55    9.19   2
   6  -4 -11  157.33    9.46   2
   6  -4 -11  161.95    8.35   1
   5  -4 -11    1.65    2.44   1
   5  -4 -11    3.33    3.39   2
   5   4 -11    2.20    3.30   2
   4  -4 -11  121.31    7.00   1
   4  -4 -11  122.55    7.71   2
   4   4 -11  113.05    7.23   2
   3   4 -11   31.13    3.40   1
   3  -4 -11   25.83    3.83   1
   3   4 -11   28.51    4.03   2
   3  -4 -11   30.13    4.41   2
   2   4 -11    1.22    2.02   2
   2   4 -11   -2.31    1.80   1
   2  -4 -11   -0.73    2.03   1
   1   4 -11   21.35    3.48   2
   1   4 -11   27.39    3.70   1
   1  -4 -11   18.45    3.62   1
   0   4 -11   16.75    3.13   2
   0   4 -11   16.56    3.22   1
   0  -4 -11   16.08    3.49   1
  -1  -4 -11   16.80    3.67   1
  -1   4 -11   23.24    3.44   2
  -1   4 -11   11.96    3.49   1
  -2  -4 -11  144.72    8.21   1
  -2   4 -11  125.66    6.78   2
  -2   4 -11  135.47    7.69   1
  -3   4 -11   -2.40    2.43   1
  -3  -4 -11   -1.65    2.54   1
  -4  -4 -11   77.22    6.67   1
  -4   4 -11   75.75    7.00   1
  -5   4 -11    7.20    4.17   1
  -5  -4 -11    6.77    3.73   1
  -6   4 -11  105.67    8.47   1
  -6  -4 -11  101.33    8.02   1
  -7  -4 -11    3.27    3.70   1
  -7   4 -11   -2.37    4.21   1
  -8  -4 -11   38.71    6.39   1
  -8   4 -11   47.71    7.55   1
  -9  -4 -11    6.16    4.65   1
  12   5 -11   31.32    7.39   2
  12  -5 -11   38.01    7.97   2
  11  -5 -11   14.36    6.02   2
  11   5 -11    8.87    6.05   2
  10   5 -11   57.71    7.75   2
  10  -5 -11   65.89    8.14   2
   9   5 -11    2.55    4.55   2
   9  -5 -11    5.77    4.80   2
   8   5 -11   -1.20    4.31   2
   8  -5 -11   -0.13    4.09   2
   7   5 -11    3.81    3.93   2
   7  -5 -11   10.10    3.30   1
   7  -5 -11    5.12    4.21   2
   6  -5 -11   11.63    4.28   2
   6  -5 -11   10.24    3.31   1
   6   5 -11    8.47    3.82   2
   5   5 -11   26.50    4.85   2
   5  -5 -11   29.62    4.25   1
   5  -5 -11   30.50    4.98   2
   4  -5 -11  153.94    8.41   2
   4   5 -11  146.42    8.13   2
   4  -5 -11  144.41    7.91   1
   3  -5 -11   59.13    5.57   1
   3  -5 -11   57.62    5.28   2
   3   5 -11   59.18    5.24   2
   3   5 -11   60.98    4.48   1
   2   5 -11   26.77    3.48   1
   2   5 -11   12.12    3.24   2
   2  -5 -11   18.76    3.64   1
   1   5 -11  139.46    7.03   1
   1   5 -11  128.07    7.12   2
   1  -5 -11  138.11    7.84   1
   0   5 -11   12.09    2.90   2
   0   5 -11   22.50    3.51   1
   0  -5 -11   18.81    3.67   1
  -1  -5 -11  133.46    7.81   1
  -1   5 -11  138.04    7.34   2
  -1   5 -11  132.55    7.37   1
  -2   5 -11    0.56    2.09   2
  -2  -5 -11    7.30    3.24   1
  -2   5 -11    5.90    2.98   1
  -3   5 -11    2.34    2.22   2
  -3   5 -11    1.28    2.81   1
  -3  -5 -11   -0.23    2.71   1
  -4  -5 -11    5.79    3.61   1
  -4   5 -11    1.70    3.27   1
  -5   5 -11    8.67    4.07   1
  -5  -5 -11    2.98    3.75   1
  -6  -5 -11   54.45    6.39   1
  -6   5 -11   71.45    7.63   1
  -7  -5 -11    1.84    3.68   1
  -7   5 -11   -5.08    3.78   1
  -8  -5 -11    2.35    4.44   1
  -8   5 -11    1.44    4.63   1
  -9  -5 -11    7.14    4.93   1
  12   6 -11   -6.25    5.33   2
  12  -6 -11    5.11    5.88   2
  11   6 -11    5.44    5.25   2
  11  -6 -11    3.63    5.70   2
  10  -6 -11    4.87    4.97   2
  10   6 -11   -2.38    4.18   2
   9  -6 -11   -0.08    4.04   2
   9   6 -11    0.42    3.98   2
   8  -6 -11   -3.00    4.09   2
   8   6 -11   11.10    4.79   2
   7   6 -11    7.54    4.46   2
   7  -6 -11   11.62    3.47   1
   7  -6 -11    4.46    4.00   2
   6  -6 -11   96.70    7.61   2
   6   6 -11   91.82    7.42   2
   6  -6 -11   90.68    6.89   1
   5  -6 -11    8.35    3.12   1
   5  -6 -11    7.24    3.59   2
   5   6 -11    5.60    3.25   2
   4  -6 -11   39.11    4.82   2
   4   6 -11   25.05    4.24   2
   4  -6 -11   29.53    4.40   1
   3  -6 -11    1.43    2.33   1
   3   6 -11    0.35    2.11   2
   2   6 -11   -0.42    2.05   2
   2  -6 -11    3.07    2.55   1
   2   6 -11    1.20    2.17   1
   1   6 -11   -0.18    2.41   1
   1  -6 -11    0.77    2.33   1
   1   6 -11    1.53    2.23   2
   0   6 -11   53.07    4.97   2
   0  -6 -11   74.90    6.29   1
   0   6 -11   71.20    5.54   1
  -1  -6 -11    2.41    2.81   1
  -1   6 -11   -1.98    2.07   1
  -1   6 -11    1.35    2.23   2
  -2   6 -11   32.38    4.29   2
  -2   6 -11   37.48    4.70   1
  -2  -6 -11   42.89    5.36   1
  -3  -6 -11   11.89    3.76   1
  -3   6 -11    8.79    3.00   2
  -3   6 -11   10.91    3.61   1
  -4   6 -11  205.48   10.57   1
  -4   6 -11  211.95    9.71   2
  -4  -6 -11  214.35   10.48   1
  -5  -6 -11    6.01    3.92   1
  -5   6 -11    5.51    3.79   1
   5   6  11   13.89    7.59   3
  -6  -6 -11  113.53    8.73   1
  -6   6 -11   95.67    8.64   1
   6   6  11  126.58   13.96   3
  -7   6 -11    4.59    4.85   1
   7   6  11   -2.75    8.43   3
  -7  -6 -11    4.09    3.93   1
   8   6  11   39.57   11.20   3
  -8  -6 -11   22.55    5.66   1
  -8   6 -11   15.63    6.13   1
   9   6  11    0.89   10.59   3
  -9  -6 -11    4.46    4.73   1
  12  -7 -11    0.61    5.19   2
  11  -7 -11   -1.75    4.64   2
  11   7 -11    0.82    5.37   2
  10   7 -11   26.36    6.70   2
  10  -7 -11   23.87    6.44   2
   9   7 -11    0.91    4.26   2
   9  -7 -11   -0.16    4.40   2
   8  -7 -11   45.17    5.54   1
   8   7 -11   48.08    6.81   2
   8  -7 -11   51.13    6.90   2
   7   7 -11    3.19    3.98   2
   7  -7 -11    7.08    4.08   2
   7  -7 -11    5.19    3.08   1
   6  -7 -11   -2.65    2.08   1
   6   7 -11   -2.02    2.96   2
   6  -7 -11   -2.29    3.17   2
   5  -7 -11   -0.54    2.33   1
   5   7 -11   -0.39    2.81   2
   5  -7 -11    0.16    3.04   2
   4  -7 -11   11.99    3.60   1
   4   7 -11    4.96    3.10   2
   3   7 -11    9.98    3.28   2
   3  -7 -11   10.61    3.36   1
   2   7 -11   87.91    5.53   1
   2  -7 -11   89.14    6.95   1
   2   7 -11   72.18    6.03   2
   1   7 -11    7.76    3.12   2
   1   7 -11   10.41    2.94   1
   1  -7 -11    3.06    2.67   1
   0   7 -11  521.20   15.82   2
   0   7 -11  522.04   14.82   1
   0  -7 -11  509.22   16.38   1
  -1   7 -11   65.19    5.60   1
  -1   7 -11   58.41    5.52   2
  -1  -7 -11   53.62    5.73   1
  -2  -7 -11  140.89    8.51   1
  -2   7 -11  119.58    7.73   1
  -2   7 -11  132.40    7.70   2
  -3  -7 -11   -1.17    2.75   1
   3   7  11   -0.33    6.52   3
  -3   7 -11   -3.71    2.47   1
  -3   7 -11   -0.10    2.23   2
   4   7  11   61.33   10.29   3
  -4  -7 -11   62.27    6.47   1
  -4   7 -11   66.31    6.75   1
  -4   7 -11   73.21    6.27   2
   5   7  11   -0.08    7.32   3
  -5  -7 -11    3.10    3.53   1
  -5   7 -11   -2.05    3.11   1
  -6  -7 -11   -1.35    3.21   1
  -6   7 -11    6.66    4.38   1
   6   7  11   -1.88    7.97   3
   7   7  11   -0.12    8.77   3
  -7  -7 -11    0.28    3.78   1
  -7   7 -11    1.19    4.31   1
  -8  -7 -11   25.61    5.67   1
  -8   7 -11   23.09    6.01   1
   8   7  11   20.94   10.26   3
  11  -8 -11    3.97    5.63   2
  11   8 -11   -1.82    5.53   2
  10  -8 -11   12.82    5.95   2
  10   8 -11   16.99    6.13   2
   9  -8 -11    8.77    4.51   2
   9   8 -11    5.15    5.00   2
   8   8 -11   53.95    6.84   2
   8  -8 -11   53.21    6.15   1
   8  -8 -11   67.71    7.54   2
   7  -8 -11    5.46    3.28   1
   7   8 -11    8.93    4.31   2
   7  -8 -11   11.95    4.55   2
   6   8 -11   30.47    5.34   2
   6  -8 -11   32.39    5.01   1
   6  -8 -11   46.75    5.87   2
   5  -8 -11    2.41    2.81   1
   5  -8 -11    3.10    3.27   2
   5   8 -11   -1.45    2.77   2
   4   8 -11  132.61    8.38   2
   4  -8 -11  137.61    8.39   1
   3  -8 -11    1.19    2.60   1
   3   8 -11    3.97    2.87   2
   2  -8 -11    4.62    2.98   1
   2   8 -11    5.08    2.81   2
   1  -8 -11    5.18    3.27   1
   1   8 -11    5.13    2.92   2
   1   8 -11    5.84    2.98   1
   0   8 -11    4.88    3.03   2
   0   8 -11    3.84    2.76   1
   0  -8 -11    4.95    2.94   1
  -1   8 -11   28.60    4.41   1
  -1  -8 -11   35.26    5.19   1
  -1   8 -11   28.57    4.41   2
   2   8  11  131.72   11.82   3
  -2  -8 -11  132.11    8.71   1
  -2   8 -11  136.39    7.93   1
  -2   8 -11  127.48    7.82   2
  -3   8 -11   18.73    4.08   2
   3   8  11   19.34    8.09   3
  -3   8 -11   18.71    4.12   1
  -3  -8 -11   26.67    5.15   1
  -4   8 -11  156.60    9.41   1
   4   8  11  132.80   13.58   3
  -4   8 -11  133.02    8.44   2
  -4  -8 -11  154.08    9.57   1
  -5  -8 -11   13.29    4.55   1
  -5   8 -11    9.97    3.67   2
  -5   8 -11    9.13    4.24   1
   5   8  11    3.89    7.82   3
  -6   8 -11  159.91   10.48   1
   6   8  11  140.81   15.26   3
  -6  -8 -11  171.95   10.57   1
  -7  -8 -11    0.45    4.02   1
  -7   8 -11    6.00    4.89   1
   7   8  11    1.82    9.24   3
   8   8  11   17.68   10.41   3
  -8  -8 -11   11.36    5.09   1
  11  -9 -11   -0.11    5.11   2
  11   9 -11   -0.20    5.13   2
  10  -9 -11   23.59    6.47   2
  10   9 -11    5.22    5.46   2
   9  -9 -11   18.54    5.73   2
   9   9 -11    6.83    5.21   2
   8   9 -11    0.56    3.98   2
   8  -9 -11    2.92    4.21   2
   8  -9 -11   -0.94    3.00   1
   7   9 -11    5.98    4.02   2
   7  -9 -11   15.45    4.22   1
   7  -9 -11   12.01    4.56   2
   6   9 -11   -3.03    3.16   2
   6  -9 -11    4.29    3.53   2
   6  -9 -11    0.13    2.77   1
   5  -9 -11    0.59    2.98   1
   5   9 -11   -1.73    2.83   2
   4  -9 -11   71.39    6.72   1
   4   9 -11   67.17    6.52   2
   3   9 -11   76.53    6.51   2
   3  -9 -11   62.38    6.24   1
   2  -9 -11  177.10    9.87   1
   2   9 -11  174.45    9.38   2
   1   9 -11    7.01    3.12   2
   1  -9 -11    5.12    3.30   1
   1   9 -11   10.00    3.27   1
   0   9 -11  314.51   11.35   1
   0  -9 -11  306.27   12.90   1
   0   9 -11  305.23   12.35   2
  -1   9 -11   28.11    4.64   2
  -1  -9 -11   35.03    5.47   1
  -1   9 -11   30.33    4.51   1
  -2   9 -11  271.98   11.15   1
  -2  -9 -11  270.39   12.35   1
   2   9  11  250.94   16.52   3
  -2   9 -11  282.21   12.01   2
   3   9  11   14.17    7.21   3
  -3  -9 -11   13.80    4.22   1
  -3   9 -11   27.32    4.76   1
  -3   9 -11   16.77    4.19   2
  -4  -9 -11   81.81    7.48   1
   4   9  11   50.00   10.50   3
  -4   9 -11   79.49    7.02   2
  -4   9 -11   82.49    7.23   1
  -5   9 -11   -1.53    3.48   1
  -5   9 -11   -0.34    3.04   2
   5   9  11   -5.46    7.34   3
  -5  -9 -11    2.46    3.62   1
  -6   9 -11   20.95    5.82   1
   6   9  11   19.77    9.16   3
  -6  -9 -11   23.87    5.29   1
   7   9  11    0.79    8.68   3
  -7   9 -11    2.61    5.20   1
  -7  -9 -11   -3.07    3.56   1
   8   9  11    7.14    9.57   3
  -8  -9 -11   11.03    4.95   1
  11  10 -11    2.02    5.60   2
  11 -10 -11    8.32    5.45   2
  10 -10 -11   33.76    7.15   2
  10  10 -11   59.00    8.41   2
   9 -10 -11    9.10    4.93   2
   9 -10 -11    8.51    4.21   1
   9  10 -11   -1.60    4.36   2
   8  10 -11   82.61    8.15   2
   8 -10 -11   90.55    8.61   2
   8 -10 -11   87.95    7.86   1
   7 -10 -11   10.46    3.96   1
   7  10 -11    9.33    4.28   2
   7 -10 -11   16.17    4.76   2
   6 -10 -11  121.77    8.48   1
   6  10 -11  121.73    9.03   2
   5 -10 -11    4.59    3.25   1
   5  10 -11    2.09    3.33   2
   4 -10 -11  108.04    8.26   1
   4  10 -11   90.20    7.36   2
   3 -10 -11   12.63    3.94   1
   3  10 -11   14.97    4.12   2
   2 -10 -11   38.95    5.58   1
   2  10 -11   39.15    5.24   2
   1  10 -11   11.10    3.66   2
   1 -10 -11   12.36    3.90   1
   0  10 -11    0.44    2.87   1
   0  10 -11    1.49    2.96   2
   0 -10 -11    0.12    2.89   1
  -1 -10 -11    0.00    3.08   1
   1  10  11   -3.20    5.85   3
  -1  10 -11   -1.13    2.87   1
  -1  10 -11    3.78    3.31   2
  -2 -10 -11  167.65   10.05   1
  -2  10 -11  163.23    9.17   1
  -2  10 -11  170.44    9.56   2
   2  10  11  160.47   13.44   3
  -3  10 -11    1.28    3.03   1
  -3  10 -11    3.81    3.19   2
   3  10  11   -3.55    6.19   3
  -3 -10 -11   -2.90    3.25   1
  -4  10 -11  159.20    9.62   1
  -4  10 -11  154.55    9.55   2
   4  10  11  156.62   14.10   3
  -4 -10 -11  173.44   10.59   1
  -5  10 -11    2.03    3.39   2
  -5  10 -11    3.49    4.00   1
   5  10  11   -8.72    7.07   3
  -5 -10 -11   -1.03    3.51   1
   6  10  11   59.91   12.27   3
  -6  10 -11   97.02    8.95   1
  -6 -10 -11   72.78    7.57   1
  -7 -10 -11    6.64    4.69   1
  -7  10 -11   11.68    5.18   1
   7  10  11    5.18    9.71   3
  10 -11 -11   13.76    5.75   2
  10  11 -11   17.30    6.09   2
   9 -11 -11    2.65    3.82   1
   9  11 -11   -3.73    4.56   2
   9 -11 -11   -3.58    4.24   2
   8 -11 -11   11.31    4.29   1
   8 -11 -11   12.19    4.93   2
   8  11 -11    7.10    4.89   2
   7 -11 -11    5.65    3.69   1
   7 -11 -11    8.59    4.26   2
   7  11 -11    8.39    4.57   2
   6 -11 -11   17.92    4.48   1
   6  11 -11   10.52    4.14   2
   5  11 -11   41.72    5.76   2
   5 -11 -11   44.87    5.96   1
   4 -11 -11  195.60   10.85   1
   4  11 -11  190.36   10.44   2
   3  11 -11   20.03    4.56   2
   3 -11 -11   17.70    4.51   1
   2  11 -11  310.92   13.19   2
   2 -11 -11  305.51   13.56   1
   1  11 -11    0.23    2.74   2
   1 -11 -11   -1.42    2.92   1
   0 -11 -11  477.35   17.44   1
   0  11 -11  480.81   14.69   1
   0  11 -11  484.86   16.89   2
  -1  11 -11   78.61    6.25   1
   1  11  11   96.36   10.67   3
  -1 -11 -11   76.70    7.72   1
  -1  11 -11   70.78    7.06   2
  -2 -11 -11  145.13    9.71   1
  -2  11 -11  156.96    8.97   1
   2  11  11  150.82   13.26   3
  -2  11 -11  161.12    9.76   2
   3  11  11   25.25    8.63   3
  -3  11 -11   24.96    4.60   1
  -3  11 -11   27.79    5.08   2
  -3 -11 -11   34.94    5.97   1
  -4  11 -11   91.01    7.96   2
  -4  11 -11  107.71    8.50   1
   4  11  11  106.72   12.92   3
  -4 -11 -11   91.68    8.62   1
   5  11  11   14.60    8.89   3
  -5 -11 -11    8.18    4.47   1
  -5  11 -11    1.37    3.60   2
  -5  11 -11    4.28    4.40   1
  -6  11 -11    2.78    4.30   1
  -6 -11 -11    0.65    4.10   1
   6  11  11    3.38    8.78   3
  -7 -11 -11    3.69    4.34   1
   7  11  11   -0.49    9.96   3
  10 -12 -11   40.24    7.31   2
  10  12 -11   18.01    6.40   2
   9 -12 -11    3.13    4.77   2
   9  12 -11   18.39    5.75   2
   9 -12 -11    8.81    4.61   1
   8 -12 -11  125.52    9.80   2
   8  12 -11  119.44    9.91   2
   8 -12 -11  116.61    9.40   1
   7 -12 -11   19.17    4.99   1
   7  12 -11   10.35    4.66   2
   6  12 -11  132.92    9.38   2
   6 -12 -11  132.51    9.46   1
   5  12 -11    0.76    3.11   2
   5 -12 -11    2.72    3.55   1
   4  12 -11  135.05    9.14   2
   4 -12 -11  124.02    9.05   1
   3 -12 -11    2.31    3.23   1
   3  12 -11   -1.37    2.64   2
   2  12 -11   42.47    5.70   2
   2 -12 -11   30.48    5.61   1
   1  12 -11    4.59    3.44   2
   1 -12 -11    2.12    3.65   1
   0  12 -11   13.73    4.38   2
   0 -12 -11   14.04    4.58   1
  -1  12 -11    3.14    3.26   2
  -1  12 -11   -1.50    2.49   1
  -1 -12 -11    1.85    3.53   1
   2  12  11   94.10   11.18   3
  -2 -12 -11   82.37    8.08   1
  -2  12 -11   85.95    7.13   1
  -2  12 -11   94.46    7.91   2
  -3 -12 -11    3.28    3.82   1
   3  12  11   -6.66    6.02   3
  -3  12 -11   -1.17    3.35   2
  -3  12 -11   -2.25    3.11   1
   4  12  11  101.25   12.77   3
  -4  12 -11   93.81    8.10   2
  -4  12 -11  108.14    8.61   1
  -4 -12 -11   73.82    7.72   1
   5  12  11    4.30    8.69   3
  -5  12 -11    9.08    4.61   1
  -5 -12 -11    0.25    3.86   1
  -5  12 -11    6.68    4.13   2
   6  12  11   50.62   12.16   3
  -6 -12 -11   48.82    7.29   1
  -6  12 -11   46.32    6.41   2
  -6  12 -11   50.89    7.13   1
   7  12  11    3.09   10.32   3
   9  13 -11    2.32    5.03   2
   9 -13 -11    4.00    4.92   2
   9 -13 -11    1.40    3.95   1
   8  13 -11    1.95    4.56   2
   8 -13 -11    2.15    3.77   1
   7  13 -11   15.17    5.30   2
   7 -13 -11   15.41    5.11   1
   6 -13 -11   17.26    4.96   1
   6  13 -11   19.41    5.17   2
   5  13 -11   12.54    4.46   2
   5 -13 -11   16.30    5.00   1
   4  13 -11  194.94   11.12   2
   4 -13 -11  194.56   11.37   1
   3  13 -11    2.77    3.33   2
   3 -13 -11    2.62    3.82   1
   2  13 -11  235.84   11.97   2
   2 -13 -11  209.18   12.05   1
   1  13 -11   -1.50    3.07   2
   1 -13 -11    3.85    4.03   1
   0  13 -11  239.53   12.18   2
   0 -13 -11  237.11   12.68   1
  -1  13 -11   -0.38    2.93   1
  -1  13 -11    1.07    3.25   2
  -1 -13 -11    1.90    3.56   1
   2  13  11   45.88    9.74   3
  -2  13 -11   59.72    6.28   1
  -2  13 -11   42.90    6.08   2
  -2 -13 -11   53.50    6.98   1
   3  13  11   -5.11    6.83   3
  -3 -13 -11    0.59    3.55   1
  -3  13 -11   -3.33    2.93   2
  -3  13 -11   -2.25    2.98   1
  -4 -13 -11   13.49    5.02   1
  -4  13 -11   24.19    5.38   1
   4  13  11   22.74    9.50   3
  -4  13 -11   21.77    5.33   2
  -5 -13 -11   13.02    5.04   1
  -5  13 -11    7.82    4.52   1
   5  13  11   -2.09    8.61   3
  -5  13 -11   10.51    4.34   2
  -6 -13 -11   -1.22    3.74   1
   6  13  11   -1.53    9.45   3
  -6  13 -11    3.97    3.95   2
   8  14 -11   40.98    7.04   2
   8 -14 -11   49.30    7.25   1
   7 -14 -11    0.94    3.65   1
   7  14 -11   -3.87    3.47   2
   6 -14 -11   81.58    8.27   1
   6  14 -11  106.06    8.87   2
   5 -14 -11   -1.39    3.12   1
   5  14 -11   -2.44    2.96   2
   4  14 -11   87.96    8.13   2
   4 -14 -11   61.61    7.42   1
   3 -14 -11    4.67    3.99   1
   3  14 -11   11.63    4.26   2
   2  14 -11   22.21    5.26   2
   2 -14 -11   15.41    5.01   1
   1  14 -11   10.58    4.39   2
   1 -14 -11    4.96    3.95   1
   0  14 -11   -1.08    3.12   2
   0 -14 -11    1.40    3.49   1
  -1 -14 -11    3.58    4.27   1
  -1  14 -11    1.91    3.51   2
  -2  14 -11   32.40    6.02   2
  -2  14 -11   40.64    5.50   1
  -2 -14 -11   40.03    6.47   1
  -3  14 -11    0.86    3.82   2
  -3  14 -11    1.42    3.39   1
  -3 -14 -11   -0.59    3.61   1
   3  14  11   -1.91    7.51   3
   4  14  11    7.04    8.73   3
  -4 -14 -11   17.52    5.46   1
  -4  14 -11   23.14    5.72   1
  -4  14 -11   14.07    4.94   2
  -5  14 -11    1.19    4.09   2
   5  14  11    4.21    8.72   3
  -5  14 -11    4.60    4.45   1
  -5 -14 -11    1.51    4.51   1
   8  15 -11   14.08    5.90   2
   7  15 -11   -0.99    4.18   2
   7 -15 -11    3.56    4.01   1
   6  15 -11    6.85    4.22   2
   6 -15 -11    3.02    3.94   1
   5 -15 -11    0.14    3.69   1
   5  15 -11   -2.80    3.01   2
   4 -15 -11   42.65    6.61   1
   4  15 -11   48.79    6.79   2
   3 -15 -11    4.70    4.22   1
   3  15 -11    0.88    3.37   2
   2 -15 -11  114.78    9.77   1
   2  15 -11  104.50    8.84   2
   1  15 -11   17.65    5.13   2
   1 -15 -11    6.23    4.46   1
   0  15 -11   94.64    8.62   2
   0 -15 -11  101.58    9.38   1
  -1 -15 -11   20.88    5.76   1
  -1  15 -11   29.01    5.69   2
  -2  15 -11   21.56    4.89   1
  -2  15 -11   14.76    4.97   2
  -2 -15 -11   18.71    5.48   1
  -3 -15 -11    5.00    4.67   1
  -3  15 -11    8.70    4.51   2
  -3  15 -11   11.21    4.54   1
  -4  15 -11    2.58    4.11   2
  -4  15 -11   -0.24    4.03   1
   4  15  11  -16.47    7.35   3
  -4 -15 -11    1.10    4.37   1
   5  15  11   49.18   11.77   3
  -5 -15 -11   35.56    6.95   1
  -5  15 -11   35.92    6.56   2
   7  16 -11    1.10    4.71   2
   6  16 -11   17.38    5.35   2
   5 -16 -11    1.38    3.85   1
   5  16 -11   -0.83    3.71   2
   4  16 -11   24.66    5.43   2
   4 -16 -11   32.51    6.36   1
   3 -16 -11    2.46    4.44   1
   3  16 -11   -1.65    3.06   2
   2  16 -11    8.21    4.18   2
   2 -16 -11    7.53    4.97   1
   1 -16 -11   12.18    5.25   1
   1  16 -11   12.60    4.84   2
   0 -16 -11    2.61    4.44   1
   0  16 -11    0.45    3.78   2
  -1  16 -11    4.79    4.07   2
  -1 -16 -11    3.66    4.66   1
  -2 -16 -11   11.10    4.90   1
  -2  16 -11    5.39    4.52   2
  -3  16 -11   -3.72    3.74   1
  -3  16 -11    3.02    3.83   2
  -3 -16 -11    2.13    4.45   1
  -4 -16 -11   23.28    6.13   1
  -4  16 -11   29.09    6.32   2
  -4  16 -11   27.05    6.11   1
   5  17 -11   22.06    5.58   2
   4  17 -11   30.42    6.12   2
   3 -17 -11    2.14    4.18   1
   3  17 -11    3.52    3.94   2
   2 -17 -11   34.85    6.83   1
   2  17 -11   40.19    6.51   2
   1  17 -11    0.21    4.13   2
   1 -17 -11    1.80    4.72   1
   0  17 -11   84.64    8.73   2
   0 -17 -11   96.50    9.83   1
  -1  17 -11    2.43    4.39   2
  -1 -17 -11   10.38    5.41   1
  -2  17 -11    6.55    4.77   2
  -2 -17 -11    6.25    5.30   1
  -3  17 -11    6.31    4.73   1
   4  18 -11   15.28    5.38   2
   3  18 -11    1.23    3.56   2
   2  18 -11    0.07    3.81   2
   1  18 -11    0.11    3.89   2
   0  18 -11   -2.27    3.92   2
  -1  18 -11    6.19    4.97   2
  12   0 -12    3.90    5.96   2
  11   0 -12    5.39    5.79   2
  10   0 -12  100.51   10.13   2
   9   0 -12    0.38    4.70   2
   8   0 -12   10.59    5.49   2
   7   0 -12   -3.36    3.83   2
   6   0 -12   45.49    6.16   2
   5   0 -12   -0.55    3.48   2
   5   0 -12   -1.96    1.93   1
   4   0 -12  388.77   12.37   1
   4   0 -12  399.10   13.93   2
   3   0 -12    0.81    2.27   1
   3   0 -12   -1.07    2.91   2
   2   0 -12  814.60   19.69   2
   2   0 -12  783.14   19.28   1
   1   0 -12    1.49    2.47   1
   1   0 -12   -2.45    2.41   2
   0   0 -12 1339.36   28.46   1
  -1   0 -12   -0.35    2.53   1
  -2   0 -12   80.86    6.53   1
  -3   0 -12   -1.29    2.78   1
  -4   0 -12   55.96    6.10   1
  -5   0 -12   -0.46    3.35   1
  -6   0 -12    2.60    4.41   1
  -7   0 -12   -3.37    3.86   1
  -8   0 -12   10.99    5.36   1
  12  -1 -12    5.26    6.09   2
  12   1 -12   -3.29    5.65   2
  11  -1 -12    3.81    5.22   2
  11   1 -12    0.01    5.48   2
  10   1 -12   17.17    6.25   2
  10  -1 -12   41.91    7.51   2
   9  -1 -12   -1.55    4.69   2
   9   1 -12   -5.41    4.60   2
   8  -1 -12  231.46   12.96   2
   8   1 -12  230.71   12.56   2
   7   1 -12   -0.67    3.99   2
   7  -1 -12   -0.22    4.03   2
   6   1 -12  275.06   12.64   2
   6  -1 -12  284.32   12.60   2
   5  -1 -12    3.74    4.14   2
   5   1 -12    4.64    3.76   2
   5  -1 -12    3.03    2.63   1
   4  -1 -12  240.25    9.68   1
   4   1 -12  229.57   10.33   2
   4  -1 -12  216.50   10.43   2
   4   1 -12  239.99    9.13   1
   3   1 -12    4.05    2.49   1
   3   1 -12   -0.40    2.94   2
   3  -1 -12   -0.08    2.22   1
   3  -1 -12    2.38    3.41   2
   2   1 -12   48.69    4.98   2
   2  -1 -12   42.09    4.97   2
   2  -1 -12   51.13    4.92   1
   2   1 -12   43.96    4.50   1
   1  -1 -12   -1.93    1.97   1
   1   1 -12    1.69    2.44   2
   1   1 -12   -1.16    2.34   1
   0  -1 -12    0.98    2.46   1
   0   1 -12   -2.84    2.45   1
  -1   1 -12   42.18    4.96   1
  -1  -1 -12   46.08    5.02   1
  -2  -1 -12   93.97    6.88   1
  -2   1 -12  107.69    7.20   1
  -3   1 -12    0.17    3.09   1
  -3  -1 -12    6.34    3.63   1
  -4   1 -12  104.42    7.94   1
  -4  -1 -12   90.22    7.64   1
  -5   1 -12   -1.31    3.78   1
  -5  -1 -12    0.74    3.56   1
  -6   1 -12   56.59    7.25   1
  -6  -1 -12   63.85    7.35   1
  -7  -1 -12    2.56    4.26   1
  -7   1 -12    6.91    4.67   1
  -8  -1 -12   38.82    6.61   1
  -8   1 -12   41.08    7.22   1
  12   2 -12   16.33    6.74   2
  12  -2 -12    5.25    6.10   2
  11  -2 -12   -6.98    4.61   2
  11   2 -12    3.93    5.85   2
  10   2 -12    1.03    5.00   2
  10  -2 -12    0.18    5.25   2
   9   2 -12   -2.47    4.40   2
   9  -2 -12    2.30    4.67   2
   8   2 -12    2.55    4.91   2
   8  -2 -12   -4.87    4.52   2
   7   2 -12   13.92    4.90   2
   7  -2 -12   13.16    5.06   2
   6   2 -12   26.56    5.52   2
   6  -2 -12   26.56    5.25   2
   5  -2 -12    4.26    2.66   1
   5  -2 -12    0.79    4.06   2
   5   2 -12    0.78    3.58   2
   4  -2 -12  404.75   13.91   2
   4   2 -12  392.56   13.75   2
   4   2 -12  403.16   12.08   1
   4  -2 -12  409.59   13.12   1
   3   2 -12    2.39    2.92   2
   3  -2 -12    1.41    2.31   1
   3  -2 -12   -0.45    3.43   2
   3   2 -12    3.43    2.23   1
   2   2 -12  630.46   16.11   1
   2  -2 -12  583.48   16.47   1
   2   2 -12  612.80   16.70   2
   1   2 -12  115.07    6.81   2
   1  -2 -12  106.44    6.82   1
   1   2 -12  106.61    6.61   1
   0   2 -12  454.36   13.86   1
   0   2 -12  458.27   13.14   2
   0  -2 -12  442.02   14.10   1
  -1  -2 -12   -2.22    2.36   1
  -1   2 -12    4.98    3.09   1
  -2  -2 -12  233.10   10.56   1
  -2   2 -12  212.54   10.04   1
  -3  -2 -12   12.66    3.97   1
  -3   2 -12   13.78    3.95   1
  -4  -2 -12   14.82    4.32   1
  -4   2 -12   10.68    4.25   1
  -5   2 -12   11.51    4.64   1
  -5  -2 -12    4.54    4.13   1
  -6   2 -12    4.02    4.12   1
  -6  -2 -12    4.15    4.17   1
  -7  -2 -12   -2.45    4.11   1
  -7   2 -12    3.98    4.88   1
  -8  -2 -12    0.92    4.52   1
  -8   2 -12   -1.16    4.47   1
  12   3 -12    2.01    6.04   2
  12  -3 -12    4.22    5.96   2
  11   3 -12   -1.92    5.62   2
  11  -3 -12   -0.24    4.89   2
  10  -3 -12   19.79    6.17   2
  10   3 -12   18.62    6.53   2
   9  -3 -12   -3.25    4.06   2
   9   3 -12    1.03    4.65   2
   8   3 -12   82.95    8.63   2
   8  -3 -12   80.23    8.10   2
   7  -3 -12    5.29    4.56   2
   7   3 -12    3.25    4.17   2
   6  -3 -12  198.50    9.35   1
   6   3 -12  206.75   10.75   2
   6  -3 -12  225.42   11.43   2
   5  -3 -12   -3.92    3.55   2
   5   3 -12   -1.69    3.42   2
   5  -3 -12   -1.12    2.29   1
   4   3 -12  113.07    7.47   2
   4  -3 -12   97.36    7.30   2
   4  -3 -12  104.14    6.77   1
   3  -3 -12   45.21    5.00   1
   3   3 -12   49.28    5.09   2
   3  -3 -12   52.72    5.64   2
   3   3 -12   41.19    4.09   1
   2  -3 -12   10.62    3.10   1
   2   3 -12   11.00    3.22   2
   2   3 -12   10.92    2.96   1
   1   3 -12    3.48    2.68   1
   1   3 -12    5.42    2.68   2
   1  -3 -12    0.57    2.32   1
   0   3 -12    5.36    2.55   2
   0   3 -12    7.08    2.92   1
   0  -3 -12    4.38    2.84   1
  -1   3 -12   -2.01    2.29   1
  -1   3 -12    0.39    2.17   2
  -1  -3 -12    1.81    2.76   1
  -2  -3 -12   97.58    7.03   1
  -2   3 -12   87.04    6.86   1
  -3   3 -12    6.38    3.33   1
  -3  -3 -12    2.21    2.97   1
  -4  -3 -12  110.09    8.03   1
  -4   3 -12  130.16    8.77   1
  -5  -3 -12    2.16    3.72   1
  -5   3 -12    4.68    3.92   1
  -6   3 -12  157.26   10.13   1
  -6  -3 -12  183.13   10.98   1
  -7  -3 -12   16.11    5.48   1
  -7   3 -12    4.13    4.73   1
  -8   3 -12   34.53    6.77   1
  -8  -3 -12   32.68    6.49   1
  12   4 -12   21.58    7.29   2
  12  -4 -12   16.52    6.73   2
  11  -4 -12   11.06    6.24   2
  11   4 -12   12.92    6.53   2
  10   4 -12   24.53    6.39   2
  10  -4 -12   24.91    6.72   2
   9   4 -12   -6.41    4.40   2
   9  -4 -12    1.63    4.66   2
   8   4 -12   10.40    5.16   2
   8  -4 -12   12.07    5.17   2
   7   4 -12   17.13    5.04   2
   7  -4 -12   14.50    4.78   2
   6  -4 -12    7.28    3.05   1
   6  -4 -12    3.18    4.02   2
   6   4 -12   -5.06    3.41   2
   5  -4 -12   11.16    3.34   1
   5  -4 -12    9.08    4.33   2
   5   4 -12   18.42    4.37   2
   4   4 -12   54.35    5.81   2
   4  -4 -12   53.57    5.97   2
   4  -4 -12   50.86    5.18   1
   3  -4 -12   44.56    5.11   1
   3   4 -12   42.83    4.10   1
   3   4 -12   38.87    4.74   2
   2   4 -12   38.74    4.19   1
   2   4 -12   37.55    4.50   2
   2  -4 -12   22.96    4.18   1
   1  -4 -12    9.92    3.19   1
   1   4 -12   17.46    3.49   2
   1   4 -12   10.84    3.09   1
   0   4 -12   42.86    4.46   2
   0   4 -12   42.31    4.76   1
   0  -4 -12   32.66    4.59   1
  -1   4 -12   26.38    3.77   2
  -1   4 -12   15.86    3.82   1
  -1  -4 -12   24.18    4.35   1
  -2  -4 -12    6.27    3.18   1
  -2   4 -12    8.92    3.44   1
  -3   4 -12   -2.84    2.86   1
  -3  -4 -12   -2.28    2.77   1
  -4   4 -12   67.81    6.56   1
  -4  -4 -12   66.18    6.97   1
  -5   4 -12   14.68    4.78   1
  -5  -4 -12    9.18    4.17   1
  -6  -4 -12    0.05    3.62   1
  -6   4 -12    4.49    4.29   1
  -7   4 -12   -7.42    3.87   1
  -7  -4 -12    0.30    3.72   1
  -8   4 -12   11.35    5.44   1
  -8  -4 -12   17.76    5.58   1
  11   5 -12    9.31    5.85   2
  11  -5 -12    0.98    5.67   2
  10  -5 -12    7.93    5.64   2
  10   5 -12    4.65    5.42   2
   9   5 -12   -4.85    4.54   2
   9  -5 -12   -3.37    4.26   2
   8   5 -12   55.42    7.53   2
   8  -5 -12   47.94    6.99   2
   7   5 -12    2.87    4.38   2
   7  -5 -12    3.76    3.05   1
   7  -5 -12    2.82    4.17   2
   6  -5 -12   56.50    5.78   1
   6   5 -12   60.10    6.61   2
   6  -5 -12   61.03    6.62   2
   5   5 -12   17.22    4.27   2
   5  -5 -12   15.47    3.70   1
   5  -5 -12   19.99    4.56   2
   4  -5 -12  102.48    7.21   2
   4   5 -12   94.21    7.10   2
   4  -5 -12   97.17    7.19   1
   3   5 -12    0.21    2.50   2
   3  -5 -12    0.15    2.39   1
   2  -5 -12    3.19    2.88   1
   2   5 -12    2.85    2.71   2
   2   5 -12    6.06    2.71   1
   1   5 -12   14.21    3.45   1
   1  -5 -12   19.89    3.98   1
   1   5 -12   14.45    3.33   2
   0  -5 -12   37.59    4.93   1
   0   5 -12   34.37    4.28   2
   0   5 -12   37.87    4.58   1
  -1   5 -12   13.62    3.77   1
  -1  -5 -12   15.29    3.94   1
  -1   5 -12    8.20    2.91   2
  -2  -5 -12   81.56    6.89   1
  -2   5 -12   87.20    6.24   2
  -2   5 -12   97.65    7.27   1
  -3   5 -12   -0.23    3.38   1
  -3  -5 -12    0.29    3.06   1
  -4   5 -12  101.05    8.15   1
  -4  -5 -12   97.95    8.11   1
  -5   5 -12   -1.55    3.63   1
  -5  -5 -12    0.68    3.66   1
  -6  -5 -12  110.97    8.89   1
  -6   5 -12  129.10    9.42   1
  -7  -5 -12   -1.88    4.19   1
  -7   5 -12   -9.87    3.69   1
  -8  -5 -12    2.72    4.57   1
  11  -6 -12    6.02    5.75   2
  11   6 -12  -10.47    4.84   2
  10  -6 -12   26.71    6.71   2
  10   6 -12   20.44    6.25   2
   9   6 -12   12.71    5.64   2
   9  -6 -12   22.55    6.04   2
   8  -6 -12   -4.03    3.55   2
   8   6 -12   -1.57    4.50   2
   7  -6 -12    3.10    2.93   1
   7   6 -12    5.61    4.23   2
   7  -6 -12    8.50    4.06   2
   6  -6 -12   -2.82    3.06   2
   6   6 -12   -0.66    3.69   2
   6  -6 -12    0.35    2.51   1
   5  -6 -12   34.27    5.25   2
   5  -6 -12   42.35    5.30   1
   5   6 -12   41.02    5.52   2
   4  -6 -12   52.19    5.74   1
   4   6 -12   45.16    5.42   2
   3  -6 -12   84.11    6.77   1
   3   6 -12   74.90    6.40   2
   2   6 -12  205.40    9.77   2
   2   6 -12  216.63    8.73   1
   2  -6 -12  221.84   10.36   1
   1  -6 -12   -2.41    2.38   1
   1   6 -12   -1.93    2.33   1
   1   6 -12    1.62    2.35   2
   0   6 -12  240.87   10.13   2
   0   6 -12  233.96    9.85   1
   0  -6 -12  236.34   10.81   1
  -1   6 -12   -1.96    2.86   1
  -1   6 -12   -0.61    2.43   2
  -1  -6 -12   -3.49    2.46   1
  -2   6 -12  157.59    8.36   2
  -2  -6 -12  142.89    8.83   1
  -2   6 -12  150.21    8.87   1
  -3   6 -12   21.01    4.50   1
  -3  -6 -12   15.69    4.47   1
  -3   6 -12   21.81    4.09   2
  -4   6 -12   29.38    5.29   1
  -4  -6 -12   27.41    5.39   1
  -5   6 -12   17.64    5.01   1
  -5  -6 -12   25.66    5.13   1
  -6  -6 -12   43.33    6.16   1
  -6   6 -12   29.18    5.91   1
  -7   6 -12   31.34    6.85   1
  -7  -6 -12   42.08    6.65   1
  -8  -6 -12   21.17    5.61   1
  11  -7 -12   -0.83    5.36   2
  11   7 -12    0.48    5.50   2
  10  -7 -12    6.91    5.14   2
  10   7 -12   11.90    5.83   2
   9  -7 -12    1.27    4.32   2
   9   7 -12   -3.35    4.36   2
   8   7 -12   10.81    5.04   2
   8  -7 -12   12.45    4.80   2
   7  -7 -12   -0.23    3.80   2
   7  -7 -12    1.06    2.99   1
   7   7 -12   -3.65    3.77   2
   6  -7 -12   59.04    6.17   1
   6   7 -12   62.60    7.00   2
   6  -7 -12   71.40    6.97   2
   5   7 -12    1.00    3.22   2
   5  -7 -12   10.58    3.67   1
   4   7 -12  108.95    7.69   2
   4  -7 -12  116.23    7.77   1
   3   7 -12    6.87    3.44   2
   3  -7 -12    3.62    2.96   1
   2  -7 -12   -0.51    2.59   1
   2   7 -12    2.10    2.81   2
   1  -7 -12    3.47    3.07   1
   1   7 -12    0.10    2.49   1
   1   7 -12    2.61    2.72   2
   0   7 -12   11.74    3.41   1
   0   7 -12   13.05    3.64   2
   0  -7 -12   22.49    4.37   1
  -1   7 -12    2.63    2.82   2
  -1   7 -12    1.14    3.09   1
  -1  -7 -12    1.90    3.25   1
  -2   7 -12  154.31    8.66   2
  -2   7 -12  169.91    9.38   1
  -2  -7 -12  150.56    9.29   1
  -3   7 -12   17.79    4.03   2
  -3  -7 -12   18.18    4.73   1
  -3   7 -12   10.30    3.87   1
  -4   7 -12  122.79    8.90   1
  -4  -7 -12  132.42    9.07   1
  -5   7 -12    1.33    4.13   1
  -5  -7 -12    0.56    3.54   1
  -6  -7 -12   26.60    5.51   1
  -6   7 -12   19.05    5.83   1
  -7  -7 -12    4.65    4.75   1
  -7   7 -12   -1.63    4.22   1
  -8  -7 -12   -1.46    4.37   1
  11  -8 -12   -0.43    5.44   2
  11   8 -12   -3.27    5.36   2
  10  -8 -12   26.89    6.76   2
  10   8 -12   30.42    6.69   2
   9  -8 -12   -0.06    4.59   2
   9   8 -12   -3.10    4.35   2
   8  -8 -12    0.82    3.26   1
   8   8 -12   -3.43    4.33   2
   8  -8 -12    0.41    4.05   2
   7  -8 -12    1.58    3.76   2
   7   8 -12    6.62    4.41   2
   7  -8 -12    6.43    3.59   1
   6  -8 -12    5.29    3.21   1
   6   8 -12    4.09    3.87   2
   6  -8 -12    3.81    3.74   2
   5  -8 -12   28.04    4.82   1
   5   8 -12   13.73    4.49   2
   4  -8 -12   57.77    6.21   1
   4   8 -12   58.62    6.28   2
   3   8 -12   39.93    5.30   2
   3  -8 -12   32.55    5.11   1
   2   8 -12  280.02   11.98   2
   2  -8 -12  288.00   12.69   1
   1   8 -12   30.16    4.76   2
   1   8 -12   48.61    4.98   1
   1  -8 -12   34.67    5.29   1
   0   8 -12  396.22   14.39   2
   0   8 -12  439.44   14.00   1
   0  -8 -12  444.43   16.09   1
  -1  -8 -12   34.42    5.55   1
  -1   8 -12   25.93    4.34   1
  -1   8 -12   24.32    4.49   2
  -2   8 -12   96.36    7.53   1
  -2  -8 -12   91.21    7.80   1
  -2   8 -12  108.16    7.58   2
  -3   8 -12    1.55    3.01   2
  -3  -8 -12    4.89    4.01   1
  -3   8 -12    3.82    3.58   1
  -4  -8 -12   35.03    5.64   1
  -4   8 -12   39.60    6.17   1
  -4   8 -12   36.62    5.23   2
   5   8  12    0.55    8.00   3
  -5   8 -12   10.11    4.64   1
  -5  -8 -12   12.94    4.51   1
   6   8  12   37.91   11.47   3
  -6  -8 -12   40.23    6.53   1
  -6   8 -12   39.89    6.70   1
   7   8  12   46.26   12.18   3
  -7  -8 -12   43.82    6.98   1
  10  -9 -12   13.92    5.97   2
  10   9 -12    6.30    5.49   2
   9  -9 -12    6.17    4.99   2
   9   9 -12    8.81    5.49   2
   8  -9 -12   52.45    7.19   2
   8  -9 -12   41.60    5.93   1
   8   9 -12   43.95    7.07   2
   7  -9 -12    0.85    3.51   2
   7  -9 -12   -0.73    3.10   1
   7   9 -12   -1.09    3.73   2
   6   9 -12   38.12    5.88   2
   6  -9 -12   33.36    5.33   1
   5  -9 -12    0.69    2.80   1
   5   9 -12    2.86    3.46   2
   4  -9 -12  109.44    8.45   1
   4   9 -12   87.93    7.60   2
   3   9 -12   10.01    3.92   2
   3  -9 -12    7.71    3.59   1
   2  -9 -12   11.31    4.04   1
   2   9 -12   13.63    4.07   2
   1   9 -12   20.09    4.22   2
   1   9 -12   11.36    3.57   1
   1  -9 -12   17.19    4.45   1
   0   9 -12   20.85    4.24   1
   0   9 -12   14.94    4.02   2
   0  -9 -12   24.14    4.74   1
  -1   9 -12    1.81    2.74   1
  -1  -9 -12    4.90    3.57   1
  -1   9 -12    1.62    2.88   2
  -2   9 -12  117.98    8.25   1
  -2   9 -12  114.54    8.12   2
  -2  -9 -12  106.38    8.54   1
  -3   9 -12    0.12    2.96   2
  -3   9 -12   -2.19    3.35   1
  -3  -9 -12    0.94    3.68   1
   4   9  12   94.26   12.71   3
  -4   9 -12   83.60    7.43   2
  -4  -9 -12  107.41    8.75   1
  -4   9 -12   97.58    8.38   1
  -5   9 -12   14.14    4.98   1
   5   9  12   19.14    9.79   3
  -5  -9 -12    8.83    4.47   1
   6   9  12   84.53   13.18   3
  -6  -9 -12   72.37    8.07   1
  -6   9 -12   75.58    8.16   1
  -7  -9 -12   -3.42    4.20   1
   7   9  12    5.62    9.15   3
  10  10 -12   24.40    7.12   2
  10 -10 -12   14.03    6.31   2
   9 -10 -12    3.80    4.98   2
   9  10 -12   -3.63    4.21   2
   8 -10 -12    8.18    4.21   1
   8  10 -12    9.50    4.90   2
   8 -10 -12    9.20    4.87   2
   7  10 -12   -2.62    3.68   2
   7 -10 -12   -0.52    3.07   1
   6 -10 -12    7.99    3.89   1
   6  10 -12   -0.13    3.99   2
   5 -10 -12   18.63    4.57   1
   5  10 -12   24.67    5.25   2
   4 -10 -12  119.45    8.70   1
   4  10 -12  133.92    8.86   2
   3  10 -12    6.03    3.39   2
   3 -10 -12   -0.42    3.20   1
   2 -10 -12  149.66    9.79   1
   2  10 -12  141.74    9.06   2
   1  10 -12    1.81    3.10   2
   1 -10 -12   -0.02    3.22   1
   0 -10 -12  282.22   13.22   1
   0  10 -12  280.46   11.30   1
   0  10 -12  257.90   12.06   2
  -1  10 -12    4.47    3.44   2
  -1 -10 -12    8.05    3.98   1
  -1  10 -12    1.74    3.27   1
  -2 -10 -12   94.74    8.32   1
  -2  10 -12   80.14    7.35   2
  -2  10 -12   99.86    7.74   1
   3  10  12   38.19    9.67   3
  -3  10 -12   23.55    5.09   1
  -3 -10 -12   26.19    5.71   1
  -3  10 -12   20.12    4.61   2
  -4 -10 -12   47.60    6.64   1
  -4  10 -12   55.59    6.40   2
  -4  10 -12   47.99    6.66   1
   4  10  12   53.08   11.25   3
  -5 -10 -12    0.22    3.69   1
   5  10  12    3.55    8.69   3
  -5  10 -12   -0.93    3.26   2
  -5  10 -12    1.40    4.16   1
   6  10  12   18.66   10.69   3
  -6  10 -12   21.90    6.36   1
  -6 -10 -12   23.78    5.94   1
   7  10  12   17.25   10.95   3
  -7 -10 -12   19.41    5.82   1
  10 -11 -12   45.80    8.11   2
   9 -11 -12    9.66    5.31   2
   9 -11 -12   -0.30    3.84   1
   9  11 -12    1.01    4.91   2
   8 -11 -12   85.52    8.25   1
   8  11 -12   76.28    8.69   2
   7 -11 -12    4.21    3.55   1
   7  11 -12    9.81    4.86   2
   6  11 -12  104.35    8.81   2
   6 -11 -12  106.14    8.90   1
   5  11 -12   -2.34    3.44   2
   5 -11 -12    0.25    3.43   1
   4  11 -12  101.64    8.33   2
   4 -11 -12   72.15    7.48   1
   3  11 -12    9.98    4.08   2
   3 -11 -12    7.51    3.77   1
   2  11 -12   61.16    6.70   2
   2 -11 -12   59.06    6.94   1
   1 -11 -12   12.94    4.46   1
   1  11 -12   12.21    4.30   2
   0  11 -12    2.04    3.37   2
   0 -11 -12    3.61    3.86   1
  -1 -11 -12    3.46    4.01   1
  -1  11 -12   -0.15    3.12   2
  -1  11 -12   -1.34    3.00   1
   2  11  12  129.31   13.23   3
  -2  11 -12  112.20    8.74   2
  -2  11 -12  111.11    8.16   1
  -2 -11 -12  116.90    9.43   1
  -3 -11 -12   -0.72    3.69   1
   3  11  12    4.56    7.51   3
  -3  11 -12    4.68    3.77   2
  -3  11 -12   -2.91    3.64   1
  -4  11 -12  138.98    9.94   1
  -4  11 -12  148.11    9.90   2
  -4 -11 -12  131.51   10.16   1
   4  11  12  132.63   14.45   3
  -5  11 -12    6.56    5.06   1
   5  11  12    5.80    8.30   3
  -5  11 -12    3.62    3.69   2
  -5 -11 -12    7.86    4.67   1
   6  11  12  105.44   15.01   3
  -6 -11 -12  126.55   10.27   1
   9 -12 -12   -5.96    3.53   1
   9  12 -12   -4.16    4.75   2
   8  12 -12   -1.03    4.49   2
   8 -12 -12    4.74    3.95   1
   7  12 -12   -1.59    4.05   2
   7 -12 -12    1.49    3.40   1
   6 -12 -12   24.33    5.30   1
   6  12 -12   24.39    5.47   2
   5 -12 -12    3.84    3.97   1
   5  12 -12    1.57    3.77   2
   4  12 -12  166.28   10.34   2
   4 -12 -12  169.15   10.96   1
   3  12 -12   -0.99    3.19   2
   3 -12 -12    0.71    3.39   1
   2 -12 -12  231.54   12.61   1
   2  12 -12  229.29   11.92   2
   1  12 -12   22.51    5.14   2
   1 -12 -12   23.92    5.24   1
   0  12 -12  361.74   15.21   2
   0 -12 -12  349.04   15.78   1
  -1  12 -12   56.69    6.11   1
  -1  12 -12   35.15    5.82   2
  -1 -12 -12   44.31    6.72   1
  -2  12 -12  191.25   10.41   1
  -2 -12 -12  173.52   11.56   1
   2  12  12  185.05   15.30   3
  -2  12 -12  181.41   10.78   2
  -3  12 -12    2.63    3.84   1
  -3  12 -12    5.34    3.74   2
   3  12  12    7.46    7.85   3
  -3 -12 -12   16.02    5.27   1
   4  12  12   22.46    9.50   3
  -4 -12 -12   44.25    6.85   1
  -4  12 -12   32.27    5.81   2
  -4  12 -12   55.90    7.16   1
  -5  12 -12    1.48    3.61   2
   5  12  12   -1.22    7.71   3
  -5 -12 -12    0.53    4.02   1
  -5  12 -12    0.29    4.28   1
  -6 -12 -12    4.14    4.64   1
   6  12  12   -2.95    9.20   3
  -6  12 -12   -4.76    3.43   2
   8 -13 -12   78.82    8.53   1
   8  13 -12   70.39    8.68   2
   7 -13 -12    2.81    4.21   1
   7  13 -12   -0.27    3.96   2
   6  13 -12   73.50    8.03   2
   6 -13 -12   88.85    8.68   1
   5  13 -12    1.32    3.58   2
   5 -13 -12    1.51    3.72   1
   4 -13 -12   82.19    8.49   1
   4  13 -12   68.31    7.70   2
   3 -13 -12    0.68    3.33   1
   3  13 -12   -0.65    3.11   2
   2  13 -12    2.49    3.44   2
   2 -13 -12    7.97    4.13   1
   1  13 -12   -1.57    3.35   2
   1 -13 -12    3.14    3.82   1
   0  13 -12   -4.01    2.98   2
   0 -13 -12   -0.45    3.67   1
  -1  13 -12   -3.80    3.08   2
  -1 -13 -12    2.55    4.13   1
  -2  13 -12   38.00    6.14   2
  -2 -13 -12   36.94    6.52   1
  -2  13 -12   37.47    5.86   1
  -3 -13 -12    2.18    3.96   1
  -3  13 -12   -3.06    3.55   2
   3  13  12   -3.34    7.21   3
  -3  13 -12    3.81    4.31   1
  -4  13 -12   22.33    5.31   2
  -4  13 -12   20.74    5.45   1
  -4 -13 -12   25.67    6.20   1
   4  13  12   11.82    9.49   3
  -5  13 -12   -3.13    3.63   2
   5  13  12    2.79    9.36   3
  -5 -13 -12    3.26    4.66   1
   8  14 -12    5.61    5.13   2
   7  14 -12   -1.65    4.36   2
   7 -14 -12    3.59    4.49   1
   6  14 -12   10.11    4.74   2
   6 -14 -12    4.90    4.16   1
   5  14 -12   17.66    5.21   2
   5 -14 -12   24.02    5.59   1
   4  14 -12   41.39    6.38   2
   4 -14 -12   59.36    7.62   1
   3 -14 -12    6.43    4.48   1
   3  14 -12    1.14    3.53   2
   2  14 -12   65.96    7.55   2
   2 -14 -12   62.45    7.70   1
   1 -14 -12   -1.51    3.89   1
   1  14 -12   -5.77    2.83   2
   0 -14 -12   70.32    8.28   1
   0  14 -12   93.74    8.58   2
  -1 -14 -12   40.04    6.76   1
  -1  14 -12   34.84    6.03   2
  -2  14 -12    1.90    3.93   1
  -2  14 -12   -2.17    3.45   2
  -2 -14 -12    4.84    4.87   1
  -3  14 -12    9.62    4.99   1
  -3 -14 -12   12.69    5.28   1
  -3  14 -12   10.42    4.91   2
  -4 -14 -12    7.86    4.78   1
   4  14  12   -3.98    8.80   3
  -4  14 -12    0.64    3.92   2
  -4  14 -12   -5.29    3.91   1
   7  15 -12   -1.45    4.29   2
   6  15 -12   49.75    7.15   2
   6 -15 -12   39.12    6.79   1
   5  15 -12   -2.54    3.90   2
   5 -15 -12   -0.65    4.03   1
   4  15 -12   19.94    5.45   2
   4 -15 -12   20.49    5.68   1
   3  15 -12   -3.07    3.52   2
   3 -15 -12   -0.89    3.86   1
   2 -15 -12    6.76    5.05   1
   2  15 -12    4.76    4.06   2
   1 -15 -12    3.39    4.49   1
   1  15 -12   -0.49    3.87   2
   0 -15 -12   -0.12    4.47   1
   0  15 -12    1.17    3.90   2
  -1  15 -12   11.36    4.98   2
  -1 -15 -12   13.03    5.33   1
  -2 -15 -12    4.96    4.55   1
  -2  15 -12    9.39    4.77   2
  -3 -15 -12    8.50    5.17   1
  -3  15 -12    0.43    3.74   2
  -3  15 -12   -2.04    3.73   1
   5  16 -12    3.76    4.02   2
   4  16 -12   58.42    7.40   2
   3  16 -12   -1.30    3.64   2
   3 -16 -12    3.00    4.18   1
   2  16 -12   65.54    8.02   2
   2 -16 -12   81.94    9.08   1
   1 -16 -12   15.66    5.80   1
   1  16 -12   12.58    5.33   2
   0 -16 -12   28.13    6.73   1
   0  16 -12   23.05    5.68   2
  -1 -16 -12   32.28    6.99   1
  -1  16 -12   19.84    5.59   2
  -2  16 -12    8.81    4.96   2
   4  17 -12   26.92    6.12   2
   3  17 -12    1.72    3.66   2
   2  17 -12    4.85    4.44   2
   1  17 -12   -3.61    3.68   2
   0  17 -12    0.64    3.89   2
  11   0 -13   -0.59    5.32   2
  10   0 -13   21.55    7.21   2
   9   0 -13    4.00    5.38   2
   8   0 -13  120.57   10.16   2
   7   0 -13   -1.82    4.06   2
   6   0 -13  172.04   10.68   2
   5   0 -13    2.64    3.82   2
   4   0 -13  196.11    9.98   2
   4   0 -13  181.53    8.82   1
   3   0 -13    0.05    3.15   2
   3   0 -13    1.03    2.41   1
   2   0 -13   -0.93    3.14   2
   2   0 -13   -0.94    2.41   1
   1   0 -13   -1.05    2.73   1
   0   0 -13   31.67    4.53   1
  -1   0 -13   -1.02    2.62   1
  -2   0 -13   66.92    6.41   1
  -3   0 -13    1.54    3.22   1
  -4   0 -13    8.09    4.23   1
  -5   0 -13   -4.44    3.64   1
  -6   0 -13   94.66    8.62   1
  -7   0 -13   -3.54    4.48   1
  11   1 -13   -0.13    6.00   2
  11  -1 -13    1.05    5.83   2
  10  -1 -13   22.07    6.71   2
  10   1 -13   21.50    6.68   2
   9   1 -13   -5.69    4.98   2
   9  -1 -13   -3.96    4.44   2
   8  -1 -13    1.26    4.72   2
   8   1 -13    2.05    4.83   2
   7  -1 -13    1.15    4.76   2
   7   1 -13    2.52    4.67   2
   6   1 -13   11.71    5.08   2
   6  -1 -13    3.69    4.70   2
   5  -1 -13   11.17    4.32   2
   5   1 -13   13.80    4.71   2
   5  -1 -13    9.73    3.30   1
   4   1 -13  349.87   11.75   1
   4  -1 -13  340.21   13.23   2
   4  -1 -13  331.00   12.16   1
   4   1 -13  325.45   12.94   2
   3   1 -13   41.61    4.66   1
   3  -1 -13   47.63    4.94   1
   3   1 -13   37.65    5.25   2
   3  -1 -13   32.42    5.18   2
   2   1 -13  379.91   12.43   1
   2  -1 -13  355.66   12.68   1
   2   1 -13  376.31   12.83   2
   1  -1 -13  250.80   10.53   1
   1   1 -13  271.15   10.66   1
   0  -1 -13  215.02   10.01   1
   0   1 -13  206.45    9.72   1
  -1  -1 -13    4.62    3.42   1
  -1   1 -13   10.31    3.83   1
  -2  -1 -13   41.45    5.49   1
  -2   1 -13   52.24    5.66   1
  -3  -1 -13   28.07    5.19   1
  -3   1 -13   22.24    4.65   1
  -4   1 -13    0.23    3.60   1
  -4  -1 -13   -2.09    3.52   1
  -5   1 -13   -1.80    4.02   1
  -5  -1 -13   -1.20    3.97   1
  -6   1 -13   15.21    5.43   1
  -6  -1 -13    9.19    4.92   1
  -7  -1 -13   -1.78    4.51   1
  -7   1 -13    0.08    4.54   1
  11   2 -13   -6.28    4.97   2
  11  -2 -13    5.10    5.92   2
  10  -2 -13   19.16    6.14   2
  10   2 -13   17.66    6.83   2
   9  -2 -13   -2.26    4.84   2
   9   2 -13    2.10    5.28   2
   8  -2 -13  115.29    9.53   2
   8   2 -13   94.80    9.00   2
   7  -2 -13   -0.91    4.50   2
   7   2 -13    4.35    4.80   2
   6   2 -13  162.29   10.45   2
   6  -2 -13  147.57   10.20   2
   5  -2 -13    6.10    3.16   1
   5  -2 -13   11.14    4.69   2
   5   2 -13    9.06    4.04   2
   4  -2 -13   67.74    6.66   2
   4   2 -13   70.85    6.82   2
   4  -2 -13   64.99    5.85   1
   3   2 -13   17.79    3.43   1
   3   2 -13   12.97    3.97   2
   3  -2 -13   24.64    4.05   1
   2   2 -13   25.23    4.26   2
   2  -2 -13   38.64    4.86   1
   2   2 -13   28.23    4.09   1
   1   2 -13   -2.79    2.36   2
   1   2 -13    5.38    2.90   1
   1  -2 -13    3.45    3.04   1
   0  -2 -13   29.46    4.41   1
   0   2 -13   24.26    4.23   1
  -1  -2 -13   25.07    4.41   1
  -1   2 -13   23.83    4.46   1
  -2   2 -13   35.97    5.31   1
  -2  -2 -13   30.00    4.87   1
  -3   2 -13    9.87    3.92   1
  -3  -2 -13    3.03    3.26   1
  -4  -2 -13  121.06    8.63   1
  -4   2 -13  137.09    9.28   1
  -5   2 -13    4.02    4.24   1
  -5  -2 -13    2.45    4.30   1
  -6   2 -13  107.43    9.04   1
  -6  -2 -13  101.06    8.82   1
  -7   2 -13    0.35    4.96   1
  -7  -2 -13    5.97    5.18   1
  11   3 -13   -0.66    5.91   2
  11  -3 -13    7.42    6.30   2
  10   3 -13   25.06    6.88   2
  10  -3 -13   28.29    7.11   2
   9   3 -13   -1.95    4.68   2
   9  -3 -13   -3.18    4.68   2
   8   3 -13    0.46    4.64   2
   8  -3 -13   -2.47    4.58   2
   7   3 -13   -0.42    4.50   2
   7  -3 -13    5.21    4.92   2
   6  -3 -13   10.57    5.04   2
   6   3 -13   16.76    4.75   2
   5  -3 -13    2.65    2.88   1
   5  -3 -13   10.80    4.69   2
   5   3 -13    3.57    3.96   2
   4   3 -13   52.01    6.10   2
   4  -3 -13   48.45    5.24   1
   4  -3 -13   35.57    5.76   2
   3  -3 -13    8.50    3.32   1
   3   3 -13   16.66    3.44   1
   3   3 -13   11.47    3.63   2
   2  -3 -13    3.82    2.80   1
   2   3 -13    0.03    2.39   1
   2   3 -13   -4.61    2.29   2
   1   3 -13   44.04    4.84   1
   1   3 -13   41.83    4.67   2
   1  -3 -13   36.39    4.78   1
   0   3 -13  180.12    8.53   2
   0  -3 -13  204.97    9.89   1
   0   3 -13  194.86    9.18   1
  -1   3 -13    9.92    3.53   1
  -1  -3 -13   15.60    4.07   1
  -2   3 -13   97.06    7.54   1
  -2  -3 -13  114.03    8.18   1
  -3  -3 -13   26.97    5.13   1
  -3   3 -13   22.08    4.92   1
  -4   3 -13  126.84    8.69   1
  -4  -3 -13  121.66    8.70   1
  -5   3 -13   -1.77    4.06   1
  -5  -3 -13    4.71    3.97   1
  -6   3 -13   -5.23    4.23   1
  -6  -3 -13    2.46    4.30   1
  -7  -3 -13   -1.46    4.40   1
  -7   3 -13   -7.21    4.71   1
  11  -4 -13    7.44    6.10   2
  11   4 -13    9.35    6.30   2
  10   4 -13    8.64    5.90   2
  10  -4 -13   17.85    6.11   2
   9   4 -13    4.78    5.15   2
   9  -4 -13    2.12    5.12   2
   8  -4 -13   81.96    8.44   2
   8   4 -13   69.69    8.39   2
   7  -4 -13    0.68    4.35   2
   7   4 -13    4.83    4.52   2
   6   4 -13  104.20    8.38   2
   6  -4 -13   89.62    8.09   2
   6  -4 -13  102.27    7.37   1
   5  -4 -13    0.64    3.82   2
   5   4 -13    1.68    3.60   2
   5  -4 -13   -0.10    2.48   1
   4   4 -13  135.52    8.50   2
   4  -4 -13  125.61    8.07   1
   3   4 -13    2.78    3.28   2
   3  -4 -13    4.35    3.13   1
   2   4 -13    0.25    2.43   2
   2  -4 -13    2.28    2.76   1
   2   4 -13    2.40    2.64   1
   1  -4 -13   28.02    4.70   1
   1   4 -13   27.95    4.06   1
   1   4 -13   17.69    3.82   2
   0  -4 -13    1.56    2.95   1
   0   4 -13    3.49    2.85   1
   0   4 -13    3.77    2.80   2
  -1  -4 -13    4.53    3.31   1
  -1   4 -13    1.12    2.99   1
  -2   4 -13   97.52    7.42   1
  -2  -4 -13   99.67    7.64   1
  -3   4 -13    1.32    3.28   1
  -3  -4 -13    0.43    3.25   1
  -4  -4 -13  188.96   10.97   1
  -4   4 -13  174.28   10.46   1
  -5   4 -13    7.34    4.47   1
  -5  -4 -13    3.92    4.03   1
  -6  -4 -13   94.66    8.78   1
  -6   4 -13   71.48    8.17   1
  -7  -4 -13   15.14    5.56   1
  11   5 -13   -3.28    5.50   2
  11  -5 -13    6.76    5.98   2
  10   5 -13   16.52    6.48   2
  10  -5 -13   24.24    7.15   2
   9   5 -13   -3.73    4.67   2
   9  -5 -13   -6.75    4.33   2
   8  -5 -13    9.41    5.18   2
   8   5 -13    2.02    4.53   2
   7  -5 -13    3.68    4.46   2
   7   5 -13    1.51    4.53   2
   6  -5 -13   16.07    4.74   2
   6   5 -13    7.25    4.58   2
   6  -5 -13   20.91    4.32   1
   5   5 -13   13.07    4.52   2
   5  -5 -13   14.44    3.71   1
   4  -5 -13  107.25    7.72   1
   4   5 -13  116.78    8.05   2
   3   5 -13   -3.11    2.86   2
   3  -5 -13    0.89    2.62   1
   2   5 -13  398.87   12.63   1
   2  -5 -13  345.90   13.71   1
   2   5 -13  406.25   13.81   2
   1   5 -13    5.56    3.20   2
   1  -5 -13    7.50    3.35   1
   1   5 -13    5.01    2.77   1
   0   5 -13  349.54   12.49   2
   0   5 -13  380.43   12.82   1
   0  -5 -13  335.06   13.48   1
  -1   5 -13   -1.39    2.98   1
  -1   5 -13    2.99    2.82   2
  -1  -5 -13   -2.50    2.48   1
  -2  -5 -13  127.67    8.49   1
  -2   5 -13  108.25    8.01   1
  -3   5 -13    4.22    3.94   1
  -3  -5 -13    5.18    4.06   1
  -4   5 -13   65.11    7.21   1
  -4  -5 -13   55.67    6.91   1
  -5   5 -13   -0.32    3.68   1
  -5  -5 -13   -2.07    3.97   1
  -6  -5 -13   12.42    5.16   1
  -6   5 -13   17.82    5.80   1
  -7  -5 -13   12.52    5.15   1
  11   6 -13   -3.60    5.21   2
  11  -6 -13   -1.08    5.24   2
  10  -6 -13    8.28    5.95   2
  10   6 -13   22.03    7.02   2
   9  -6 -13   14.66    5.86   2
   9   6 -13    3.62    5.23   2
   8  -6 -13   42.67    6.93   2
   8   6 -13   40.66    7.02   2
   7   6 -13   -2.44    4.23   2
   7  -6 -13   -1.83    2.94   1
   7  -6 -13    0.81    4.08   2
   6  -6 -13   32.95    5.18   1
   6   6 -13   44.21    6.46   2
   6  -6 -13   44.78    6.14   2
   5   6 -13    0.67    3.32   2
   5  -6 -13    0.84    2.70   1
   4  -6 -13  124.59    8.44   1
   4   6 -13  105.68    8.11   2
   3   6 -13    1.19    2.98   2
   3  -6 -13    2.79    3.04   1
   2   6 -13   32.69    4.86   2
   2  -6 -13   32.57    5.08   1
   1   6 -13    4.76    3.00   1
   1   6 -13    6.53    3.29   2
   1  -6 -13    1.72    3.26   1
   0  -6 -13   17.57    4.40   1
   0   6 -13   24.69    4.07   2
   0   6 -13   20.66    4.30   1
  -1   6 -13    1.74    2.90   2
  -1   6 -13    7.49    3.56   1
  -1  -6 -13    1.63    3.28   1
  -2  -6 -13  162.85    9.99   1
  -2   6 -13  153.94    9.21   1
  -3   6 -13    3.40    3.90   1
  -3  -6 -13    5.69    4.12   1
  -4  -6 -13   45.45    6.45   1
  -4   6 -13   44.45    6.57   1
  -5  -6 -13    1.53    4.09   1
  -5   6 -13    3.68    4.66   1
  -6   6 -13   14.63    5.62   1
  -6  -6 -13   23.36    5.79   1
  -7  -6 -13    4.41    4.81   1
  10   7 -13    4.70    5.90   2
  10  -7 -13   22.02    6.33   2
   9  -7 -13    8.97    5.13   2
   9   7 -13    1.50    5.37   2
   8  -7 -13   -0.10    4.27   2
   8   7 -13   -6.94    3.72   2
   7   7 -13    4.00    4.47   2
   7  -7 -13   -2.62    2.99   1
   7  -7 -13    0.10    4.02   2
   6  -7 -13   11.37    4.07   1
   6   7 -13   24.94    5.70   2
   5   7 -13   12.45    4.32   2
   5  -7 -13   12.29    3.91   1
   4  -7 -13   50.40    5.93   1
   4   7 -13   43.86    5.76   2
   3  -7 -13    9.18    3.64   1
   3   7 -13    9.18    3.85   2
   2   7 -13  155.69    8.88   2
   2  -7 -13  143.65    9.34   1
   1   7 -13   36.87    5.15   2
   1   7 -13   44.02    5.14   1
   1  -7 -13   33.42    5.33   1
   0   7 -13  396.32   14.15   2
   0   7 -13  366.37   12.93   1
   0  -7 -13  363.80   14.70   1
  -1   7 -13   12.81    3.93   2
  -1  -7 -13   13.54    4.17   1
  -1   7 -13   14.38    3.81   1
  -2  -7 -13   95.18    8.14   1
  -2   7 -13  123.35    8.40   1
  -2   7 -13  104.08    7.59   2
  -3   7 -13   -1.28    3.68   1
  -3  -7 -13    2.53    3.66   1
  -4   7 -13   -3.06    3.43   1
  -4  -7 -13    1.69    4.01   1
  -5   7 -13    7.10    4.54   1
  -5  -7 -13   12.54    4.81   1
  -6  -7 -13    2.79    4.35   1
  -6   7 -13   -5.84    4.52   1
  10  -8 -13    9.53    5.62   2
  10   8 -13    9.87    6.17   2
   9   8 -13   -6.76    4.83   2
   9  -8 -13    1.03    4.77   2
   8   8 -13   16.49    5.97   2
   8  -8 -13   44.68    6.94   2
   7   8 -13   -3.88    4.13   2
   7  -8 -13    1.25    3.23   1
   6   8 -13   55.89    6.85   2
   6  -8 -13   54.91    6.47   1
   5   8 -13    0.45    3.37   2
   5  -8 -13   -1.16    2.72   1
   4  -8 -13   54.71    6.50   1
   4   8 -13   53.91    6.46   2
   3  -8 -13    8.82    3.95   1
   3   8 -13   -1.17    2.89   2
   2  -8 -13   24.78    5.07   1
   2   8 -13   22.19    4.49   2
   1   8 -13    3.58    3.37   2
   1  -8 -13    3.53    3.33   1
   1   8 -13    6.52    3.17   1
   0  -8 -13   28.65    5.46   1
   0   8 -13   24.27    4.56   1
   0   8 -13   23.61    4.55   2
  -1   8 -13    4.78    3.42   2
  -1  -8 -13    0.37    3.24   1
  -1   8 -13   -0.35    2.89   1
  -2   8 -13  127.33    8.75   1
  -2  -8 -13  137.16    9.41   1
  -2   8 -13  115.69    8.10   2
  -3  -8 -13    5.68    4.42   1
  -3   8 -13    2.27    3.73   1
  -3   8 -13    7.58    3.69   2
  -4   8 -13   50.32    7.00   1
  -4  -8 -13   48.73    6.89   1
  -5   8 -13    3.46    4.79   1
  -5  -8 -13   -4.42    3.92   1
  -6  -8 -13   25.65    6.13   1
  10  -9 -13   21.31    6.53   2
  10   9 -13    6.41    6.22   2
   9  -9 -13    3.78    4.75   2
   9   9 -13   -3.78    4.95   2
   8  -9 -13    0.90    3.66   1
   8   9 -13    0.94    5.02   2
   7   9 -13    0.86    4.62   2
   7  -9 -13    7.92    4.05   1
   6  -9 -13   16.98    4.66   1
   6   9 -13   17.56    5.06   2
   5   9 -13    4.12    3.83   2
   5  -9 -13   -0.79    3.22   1
   4  -9 -13  192.55   11.14   1
   4   9 -13  218.55   11.49   2
   3   9 -13    3.67    3.41   2
   3  -9 -13    1.40    3.32   1
   2   9 -13  291.00   12.72   2
   2  -9 -13  265.11   13.05   1
   1   9 -13    0.61    3.03   2
   1  -9 -13   -1.42    3.02   1
   0  -9 -13  223.29   11.84   1
   0   9 -13  227.14   10.39   1
   0   9 -13  213.88   11.04   2
  -1   9 -13   -0.16    3.21   1
  -1   9 -13   -1.18    2.86   2
  -1  -9 -13    5.91    4.30   1
  -2   9 -13   37.90    5.55   2
  -2  -9 -13   28.80    5.95   1
  -2   9 -13   32.40    5.25   1
  -3   9 -13    5.77    4.46   1
  -3  -9 -13    6.38    4.31   1
  -3   9 -13    4.44    3.32   2
  -4  -9 -13   46.65    6.86   1
  -4   9 -13   57.81    7.38   1
  -5   9 -13    2.51    4.89   1
  -5  -9 -13    6.73    4.81   1
  -6  -9 -13   -1.93    4.35   1
   9 -10 -13    7.19    5.21   2
   9  10 -13    3.62    5.22   2
   8 -10 -13   40.72    6.29   1
   8  10 -13   27.46    6.44   2
   7  10 -13    5.08    4.77   2
   7 -10 -13    2.30    3.93   1
   6  10 -13   70.08    7.87   2
   6 -10 -13   63.11    7.34   1
   5  10 -13    1.98    3.73   2
   5 -10 -13   -0.09    3.31   1
   4  10 -13   64.04    7.01   2
   4 -10 -13   77.85    7.63   1
   3 -10 -13   18.31    4.83   1
   3  10 -13   14.01    4.33   2
   2  10 -13   22.95    4.98   2
   2 -10 -13   15.93    4.79   1
   1 -10 -13   17.57    4.99   1
   1  10 -13   15.81    4.32   2
   0 -10 -13    5.67    4.07   1
   0  10 -13   -1.42    3.19   1
   0  10 -13    2.11    3.35   2
  -1  10 -13   12.70    4.55   1
  -1  10 -13   12.54    4.37   2
  -1 -10 -13    7.88    4.26   1
  -2  10 -13   87.60    7.80   1
  -2  10 -13   56.49    6.54   2
  -2 -10 -13   62.51    7.53   1
  -3 -10 -13   -1.36    3.77   1
  -3  10 -13    1.21    3.49   2
  -3  10 -13    2.58    4.32   1
  -4 -10 -13  120.07   10.18   1
  -4  10 -13   86.56    8.01   2
  -4  10 -13  103.82    9.08   1
  -5  10 -13   13.38    5.03   1
  -5 -10 -13   15.17    5.45   1
   9  11 -13   -2.06    4.95   2
   8 -11 -13   10.85    4.86   1
   8  11 -13    0.87    5.01   2
   7  11 -13   -5.32    3.96   2
   7 -11 -13   -0.37    3.25   1
   6 -11 -13   16.80    4.84   1
   6  11 -13   17.08    5.27   2
   5 -11 -13    2.15    3.79   1
   5  11 -13    0.50    3.71   2
   4  11 -13   42.21    6.14   2
   4 -11 -13   34.00    5.87   1
   3  11 -13   -3.45    3.15   2
   3 -11 -13   -2.01    3.43   1
   2  11 -13   99.88    8.21   2
   2 -11 -13   82.14    8.12   1
   1  11 -13    2.47    3.66   2
   1 -11 -13    3.37    4.17   1
   0 -11 -13  233.86   13.02   1
   0  11 -13  243.90   12.26   2
  -1  11 -13   -0.49    3.03   2
  -1 -11 -13   -2.35    3.92   1
  -1  11 -13   -4.56    3.50   1
  -2  11 -13   86.71    8.03   2
  -2 -11 -13  102.94    9.35   1
  -2  11 -13  112.87    8.74   1
  -3 -11 -13    1.71    4.27   1
  -3  11 -13    1.58    3.68   1
  -3  11 -13   -0.37    3.28   2
  -4  11 -13   20.13    5.18   2
  -4 -11 -13   22.72    6.05   1
  -4  11 -13   13.97    5.44   1
  -5 -11 -13   -2.20    4.29   1
   5  11  13   -8.27    7.89   3
   8 -12 -13   31.35    6.09   1
   8  12 -13   43.11    7.73   2
   7  12 -13    0.18    4.84   2
   7 -12 -13   -0.45    3.64   1
   6  12 -13   31.93    6.27   2
   6 -12 -13   59.59    7.53   1
   5 -12 -13    2.72    3.71   1
   5  12 -13    0.83    3.91   2
   4  12 -13   56.47    7.01   2
   4 -12 -13   62.88    7.57   1
   3 -12 -13    3.05    4.10   1
   3  12 -13   -0.50    3.40   2
   2  12 -13    8.99    4.40   2
   2 -12 -13   13.69    4.83   1
   1 -12 -13    7.78    4.52   1
   1  12 -13    6.10    3.97   2
   0  12 -13   -1.95    3.15   2
   0 -12 -13    3.49    4.01   1
  -1  12 -13    2.40    3.68   2
  -1 -12 -13    5.15    4.58   1
  -2 -12 -13   25.69    6.06   1
  -2  12 -13   38.58    5.99   2
  -2  12 -13   37.92    6.01   1
  -3 -12 -13    6.05    4.97   1
  -3  12 -13    3.69    4.06   2
  -3  12 -13   -2.80    4.01   1
  -4  12 -13   55.84    7.27   2
  -4  12 -13   39.50    6.77   1
  -4 -12 -13   71.27    8.34   1
   4  12  13   73.21   13.06   3
   7  13 -13    2.77    4.88   2
   7 -13 -13   -0.17    3.75   1
   6 -13 -13    0.02    4.01   1
   6  13 -13   -1.80    4.29   2
   5 -13 -13    9.19    4.91   1
   5  13 -13    8.63    4.78   2
   4 -13 -13   42.65    6.84   1
   4  13 -13   62.37    7.64   2
   3 -13 -13    6.40    4.34   1
   3  13 -13    4.51    4.18   2
   2 -13 -13  109.48   10.01   1
   2  13 -13  105.35    8.87   2
   1 -13 -13   64.09    8.09   1
   1  13 -13   44.04    6.54   2
   0 -13 -13  128.94   10.54   1
   0  13 -13  140.11   10.08   2
  -1  13 -13   44.09    6.72   2
  -1 -13 -13   30.40    6.40   1
  -2 -13 -13   21.29    6.07   1
  -2  13 -13   18.39    5.36   2
  -2  13 -13    4.30    4.52   1
  -3 -13 -13    2.80    4.35   1
  -3  13 -13   -0.44    4.07   1
  -3  13 -13    5.90    4.48   2
   4  13  13   -5.76    8.86   3
  -4  13 -13    3.78    4.25   2
   5 -14 -13   -1.46    4.13   1
   5  14 -13    0.70    3.93   2
   4 -14 -13   16.94    5.52   1
   4  14 -13   26.34    6.14   2
   3 -14 -13   -3.33    3.64   1
   3  14 -13   -2.33    3.80   2
   2 -14 -13   -0.72    3.78   1
   2  14 -13   -3.03    3.65   2
   1 -14 -13    9.12    4.95   1
   1  14 -13    6.94    4.72   2
   0  14 -13    8.03    4.39   2
   0 -14 -13    1.10    3.97   1
  -1 -14 -13   -0.97    4.00   1
  -1  14 -13    0.23    4.00   2
  -2 -14 -13   21.41    6.19   1
  -2  14 -13   22.40    5.77   2
  -3  14 -13   -1.46    4.26   1
  -3  14 -13   -2.26    3.99   2
   5  15 -13   -4.38    3.59   2
   4  15 -13   48.71    7.43   2
   3  15 -13    1.77    3.98   2
   2 -15 -13   36.10    7.08   1
   2  15 -13   39.22    6.70   2
   1  15 -13   28.90    6.08   2
   1 -15 -13   19.40    6.03   1
   0  15 -13    9.07    4.99   2
  -1  15 -13   11.69    5.07   2
  -2  15 -13   17.88    5.61   2
   3  16 -13   -2.20    4.12   2
   2  16 -13    0.11    4.26   2
   1  16 -13    3.33    4.36   2
  11   0 -14   11.06    6.66   2
  10   0 -14    6.91    6.43   2
   9   0 -14  -10.49    4.90   2
   8   0 -14    0.09    5.21   2
   7   0 -14   -3.89    4.65   2
   6   0 -14   -1.59    4.58   2
   5   0 -14   -6.51    3.81   2
   4   0 -14  176.97    9.07   1
   4   0 -14  178.96   10.23   2
   3   0 -14   -1.57    2.49   1
   3   0 -14   -1.82    3.70   2
   2   0 -14    3.68    3.07   1
   1   0 -14   -0.37    2.76   1
   0   0 -14  103.49    7.69   1
  -1   0 -14   -0.37    2.65   1
  -2   0 -14    4.40    3.54   1
  -3   0 -14   -3.52    3.33   1
  -4   0 -14    3.75    4.25   1
  -5   0 -14   -2.55    3.86   1
  -6   0 -14   -3.48    4.66   1
  11  -1 -14    3.92    5.94   2
  11   1 -14    7.33    6.35   2
  10  -1 -14   27.84    7.31   2
  10   1 -14   14.75    6.48   2
   9  -1 -14    2.07    5.19   2
   9   1 -14   -2.82    5.33   2
   8  -1 -14   53.42    7.98   2
   8   1 -14   51.42    7.97   2
   7   1 -14    0.51    4.37   2
   7  -1 -14   -5.01    4.62   2
   6  -1 -14   94.67    8.48   2
   6   1 -14  103.84    9.03   2
   5  -1 -14   15.33    5.24   2
   5   1 -14   14.42    4.70   2
   4  -1 -14   38.06    6.04   2
   4   1 -14   40.83    6.07   2
   4  -1 -14   41.09    5.21   1
   3   1 -14   18.69    4.72   2
   3   1 -14   14.11    3.60   1
   3  -1 -14   30.61    4.46   1
   2  -1 -14    3.83    3.01   1
   2   1 -14    1.27    2.76   1
   1   1 -14   63.46    6.00   1
   1  -1 -14   60.01    6.12   1
   0  -1 -14   18.11    4.32   1
   0   1 -14   11.99    3.85   1
  -1  -1 -14    3.27    3.10   1
  -1   1 -14    0.80    2.79   1
  -2  -1 -14   39.65    5.56   1
  -2   1 -14   33.79    5.32   1
  -3  -1 -14    7.05    4.16   1
  -3   1 -14    5.43    4.03   1
  -4  -1 -14   72.99    7.80   1
  -4   1 -14   86.95    7.97   1
  -5   1 -14   -1.75    4.10   1
  -5  -1 -14   -0.65    4.36   1
  -6  -1 -14  122.83    9.94   1
  -6   1 -14  115.38    9.70   1
  11   2 -14    3.06    6.00   2
  11  -2 -14    1.39    5.49   2
  10   2 -14   33.45    7.87   2
  10  -2 -14   29.38    7.33   2
   9   2 -14   -2.19    5.16   2
   9  -2 -14    8.06    6.04   2
   8   2 -14    0.25    5.05   2
   8  -2 -14   -3.07    4.86   2
   7  -2 -14   -0.25    4.64   2
   7   2 -14   -0.46    4.70   2
   6   2 -14    1.18    4.30   2
   6  -2 -14    5.75    5.02   2
   5  -2 -14    4.53    3.29   1
   5  -2 -14    3.72    4.57   2
   5   2 -14   -1.13    3.78   2
   4  -2 -14   21.65    4.34   1
   4   2 -14   16.27    4.77   2
   3  -2 -14    4.80    3.20   1
   3   2 -14    5.02    3.05   1
   3   2 -14    5.29    3.85   2
   2   2 -14   88.37    6.62   1
   2   2 -14   91.94    7.17   2
   2  -2 -14   83.76    6.95   1
   1   2 -14  140.63    8.33   1
   1  -2 -14  126.86    8.31   1
   0  -2 -14   44.23    5.44   1
   0   2 -14   43.99    5.42   1
  -1  -2 -14    9.80    3.71   1
  -1   2 -14    5.42    3.39   1
  -2  -2 -14   72.79    7.14   1
  -2   2 -14   65.22    6.72   1
  -3  -2 -14   -3.60    3.38   1
  -3   2 -14    1.95    3.49   1
  -4  -2 -14   40.81    6.48   1
  -4   2 -14   36.87    6.24   1
  -5   2 -14    4.80    4.39   1
  -5  -2 -14   -0.54    4.41   1
  -6   2 -14   25.25    6.04   1
  -6  -2 -14   27.34    6.20   1
  10  -3 -14   15.34    6.24   2
  10   3 -14   20.61    6.85   2
   9   3 -14    2.99    5.85   2
   9  -3 -14   -0.68    4.51   2
   8  -3 -14   97.55    9.48   2
   8   3 -14   91.55    9.50   2
   7   3 -14    8.58    4.89   2
   7  -3 -14   18.31    5.82   2
   6  -3 -14   93.21    8.43   2
   6   3 -14   98.81    8.79   2
   5   3 -14    1.55    4.19   2
   5  -3 -14    1.48    2.88   1
   5  -3 -14   -1.42    4.29   2
   4  -3 -14  148.99    9.03   1
   4   3 -14  165.08    9.68   2
   3   3 -14   -4.60    3.20   2
   3  -3 -14    0.64    2.95   1
   2  -3 -14   -1.03    2.66   1
   2   3 -14    1.62    2.80   1
   2   3 -14    0.90    3.19   2
   1  -3 -14   -1.68    2.37   1
   1   3 -14    2.92    3.07   1
   0   3 -14    3.54    3.44   1
   0  -3 -14    3.21    3.12   1
  -1  -3 -14    6.43    3.58   1
  -1   3 -14   13.03    4.04   1
  -2   3 -14   95.39    7.57   1
  -2  -3 -14   78.08    7.48   1
  -3  -3 -14   -1.85    3.47   1
  -3   3 -14   -2.80    3.50   1
  -4  -3 -14   87.95    8.47   1
  -4   3 -14   99.82    8.57   1
  -5   3 -14    4.81    4.82   1
  -5  -3 -14   -1.29    4.14   1
  -6   3 -14   44.32    7.00   1
  -6  -3 -14   58.34    7.61   1
  10   4 -14   17.11    6.92   2
  10  -4 -14   25.46    7.26   2
   9   4 -14    4.46    5.80   2
   9  -4 -14    6.52    5.18   2
   8   4 -14   10.66    5.83   2
   8  -4 -14   10.27    5.38   2
   7   4 -14   -3.71    4.08   2
   7  -4 -14    5.09    5.04   2
   6   4 -14   30.37    5.82   2
   6  -4 -14   40.26    6.50   2
   5   4 -14   14.06    5.05   2
   5  -4 -14   28.40    4.93   1
   4  -4 -14  196.79   10.19   1
   4   4 -14  175.17   10.26   2
   3  -4 -14    1.39    3.08   1
   3   4 -14   -1.22    2.93   2
   2   4 -14  345.10   12.21   1
   2   4 -14  331.59   12.96   2
   2  -4 -14  349.48   13.88   1
   1   4 -14    4.10    3.21   2
   1   4 -14   10.34    3.55   1
   1  -4 -14   10.15    3.71   1
   0  -4 -14  406.38   15.17   1
   0   4 -14  430.90   14.40   1
  -1   4 -14    4.91    3.65   1
  -1  -4 -14    8.41    3.97   1
  -2   4 -14  133.21    8.85   1
  -2  -4 -14  127.03    8.81   1
  -3  -4 -14    8.80    4.21   1
  -3   4 -14    7.34    4.35   1
  -4   4 -14   38.87    6.08   1
  -4  -4 -14   33.99    6.39   1
  -5  -4 -14    1.08    4.65   1
  -5   4 -14    2.64    4.80   1
  -6  -4 -14    3.35    4.66   1
  10   5 -14   15.40    7.05   2
  10  -5 -14   17.82    6.48   2
   9  -5 -14    2.54    4.69   2
   9   5 -14    1.31    5.48   2
   8   5 -14   44.95    7.40   2
   8  -5 -14   60.94    8.06   2
   7   5 -14    3.38    4.50   2
   7  -5 -14    8.01    4.88   2
   6   5 -14   97.49    8.85   2
   6  -5 -14  113.65    8.45   1
   5   5 -14    0.96    4.24   2
   5  -5 -14   -0.84    3.09   1
   4   5 -14   76.53    7.25   2
   4  -5 -14   91.72    7.54   1
   3  -5 -14   -2.03    2.56   1
   3   5 -14    1.09    3.24   2
   2   5 -14   50.15    5.23   1
   2  -5 -14   36.41    5.67   1
   2   5 -14   43.28    5.51   2
   1   5 -14    1.38    2.93   2
   1  -5 -14   -1.11    2.69   1
   1   5 -14    2.81    3.06   1
   0   5 -14   23.19    4.58   1
   0   5 -14   29.34    4.58   2
   0  -5 -14   29.33    5.32   1
  -1   5 -14    5.59    3.50   1
  -1  -5 -14   -1.56    2.72   1
  -2  -5 -14  150.23    9.77   1
  -2   5 -14  147.96    9.46   1
  -3  -5 -14    1.54    3.79   1
  -3   5 -14    1.88    3.88   1
  -4   5 -14   57.55    7.21   1
  -4  -5 -14   74.90    7.92   1
  -5   5 -14   -5.81    3.87   1
  -5  -5 -14   -2.59    4.22   1
  10   6 -14   15.91    6.58   2
  10  -6 -14   39.84    7.92   2
   9   6 -14   -6.87    4.68   2
   9  -6 -14    2.67    5.24   2
   8   6 -14    7.71    5.70   2
   8  -6 -14    6.26    4.69   2
   7   6 -14    1.32    4.39   2
   6  -6 -14   -0.85    3.15   1
   6   6 -14    1.96    4.33   2
   5  -6 -14    1.81    3.29   1
   5   6 -14    6.84    4.60   2
   4   6 -14  115.99    8.68   2
   4  -6 -14  120.43    8.90   1
   3  -6 -14   21.88    4.93   1
   3   6 -14   25.84    4.81   2
   2  -6 -14  292.51   13.19   1
   2   6 -14  266.33   11.79   2
   1  -6 -14   29.55    5.17   1
   1   6 -14   30.79    5.01   2
   1   6 -14   33.64    4.86   1
   0  -6 -14  436.99   16.38   1
   0   6 -14  425.35   14.93   2
   0   6 -14  427.32   14.56   1
  -1  -6 -14   -1.56    3.03   1
  -1   6 -14   -2.09    3.12   1
  -2  -6 -14   47.55    6.50   1
  -2   6 -14   68.19    6.95   1
  -3   6 -14    1.79    4.17   1
  -3  -6 -14   -0.09    3.89   1
  -4   6 -14    8.30    5.03   1
  -4  -6 -14    5.99    4.65   1
  -5  -6 -14   46.54    7.05   1
  -5   6 -14   43.32    7.17   1
  10  -7 -14   16.37    6.66   2
   9   7 -14    3.49    5.90   2
   9  -7 -14    9.89    5.79   2
   8   7 -14   35.11    7.05   2
   8  -7 -14   38.30    7.01   2
   7   7 -14   -1.20    4.63   2
   7  -7 -14    0.46    3.39   1
   6  -7 -14   64.29    7.00   1
   6   7 -14   59.94    7.71   2
   5  -7 -14   -0.20    3.39   1
   5   7 -14    1.49    3.83   2
   4  -7 -14   70.74    7.10   1
   4   7 -14   65.06    6.92   2
   3   7 -14    2.37    3.29   2
   3  -7 -14    1.20    3.43   1
   2   7 -14   32.17    5.20   2
   2  -7 -14   29.99    5.40   1
   1   7 -14    8.29    3.72   2
   1  -7 -14    3.19    3.65   1
   1   7 -14   13.16    3.90   1
   0  -7 -14   10.68    4.28   1
   0   7 -14    8.04    3.65   2
   0   7 -14   12.54    4.03   1
  -1   7 -14   -0.59    3.21   1
  -1   7 -14    4.37    3.44   2
  -1  -7 -14   -1.23    3.32   1
  -2   7 -14   75.27    7.38   1
  -2  -7 -14   84.06    8.34   1
  -3  -7 -14    2.03    3.91   1
  -3   7 -14    6.14    4.03   1
  -4  -7 -14   81.41    8.59   1
  -4   7 -14   88.01    8.17   1
  -5  -7 -14    2.84    4.44   1
  -5   7 -14    1.51    4.54   1
   9   8 -14   -0.79    5.79   2
   9  -8 -14    3.14    5.25   2
   8   8 -14   -3.24    4.50   2
   7   8 -14    8.80    5.17   2
   7  -8 -14    7.35    4.20   1
   6  -8 -14   25.02    5.44   1
   6   8 -14   23.16    5.93   2
   5  -8 -14   14.58    4.53   1
   5   8 -14   14.46    5.08   2
   4  -8 -14  134.27    9.34   1
   4   8 -14  134.47    9.50   2
   3  -8 -14    3.19    3.72   1
   3   8 -14    4.41    3.73   2
   2   8 -14  151.29    9.35   2
   2  -8 -14  164.55   10.37   1
   1   8 -14   -5.18    2.78   2
   1  -8 -14   -0.65    3.12   1
   0   8 -14  279.93   12.41   2
   0   8 -14  280.37   11.80   1
   0  -8 -14  253.95   13.08   1
  -1   8 -14    0.18    3.20   2
  -1   8 -14   -1.29    3.42   1
  -1  -8 -14   -1.26    3.68   1
  -2   8 -14   92.48    7.70   1
  -2  -8 -14   74.45    7.93   1
  -3   8 -14    1.20    4.24   1
  -3  -8 -14    3.54    4.21   1
  -4  -8 -14   34.28    6.48   1
  -4   8 -14   26.06    5.86   1
   9   9 -14   -8.78    5.30   2
   8   9 -14   67.96    8.59   2
   7   9 -14   -5.10    3.92   2
   7  -9 -14    1.77    3.97   1
   6  -9 -14   47.35    6.48   1
   6   9 -14   58.61    7.70   2
   5  -9 -14    0.71    3.42   1
   5   9 -14    0.46    4.16   2
   4  -9 -14   67.57    7.53   1
   4   9 -14   80.31    7.64   2
   3   9 -14    0.17    3.34   2
   3  -9 -14   -0.90    3.26   1
   2   9 -14   -1.53    3.37   2
   2  -9 -14   10.06    4.28   1
   1  -9 -14    1.49    3.40   1
   1   9 -14   -0.50    3.13   2
   0  -9 -14   -1.56    3.27   1
   0   9 -14    0.17    3.54   1
   0   9 -14    2.89    3.37   2
  -1  -9 -14   19.91    5.32   1
  -1   9 -14   17.30    4.59   2
  -1   9 -14   15.29    4.55   1
  -2   9 -14   94.42    8.20   1
  -2  -9 -14   86.46    8.95   1
  -2   9 -14   94.91    8.09   2
  -3  -9 -14   10.59    5.33   1
  -3   9 -14   12.03    5.00   1
  -4   9 -14   52.64    7.08   1
  -4  -9 -14   42.95    7.24   1
   8  10 -14   -4.26    4.93   2
   8 -10 -14    9.42    4.62   1
   7 -10 -14   -0.70    3.89   1
   7  10 -14   -2.84    4.87   2
   6 -10 -14   10.02    4.45   1
   6  10 -14    1.44    4.21   2
   5  10 -14   10.90    4.83   2
   5 -10 -14    4.83    4.36   1
   4 -10 -14   73.11    8.04   1
   4  10 -14   75.81    7.88   2
   3 -10 -14    5.14    4.07   1
   3  10 -14   12.23    4.77   2
   2  10 -14  116.13    8.75   2
   2 -10 -14  137.16   10.52   1
   1 -10 -14    2.44    3.90   1
   1  10 -14    1.01    3.51   2
   0  10 -14  127.30    9.10   2
   0 -10 -14  145.63   10.61   1
  -1 -10 -14   -1.43    3.79   1
  -1  10 -14    0.74    3.71   2
  -1  10 -14    0.36    3.30   1
  -2  10 -14   55.95    7.05   1
  -2 -10 -14   41.89    7.16   1
  -2  10 -14   56.39    6.89   2
  -3  10 -14   -3.00    4.14   1
  -3 -10 -14    1.72    4.28   1
  -4  10 -14    3.53    4.70   1
   8  11 -14    9.15    5.89   2
   8 -11 -14    8.40    4.96   1
   7  11 -14    5.96    5.06   2
   7 -11 -14    2.39    4.12   1
   6  11 -14   58.47    8.01   2
   6 -11 -14   55.95    7.47   1
   5 -11 -14    1.19    4.16   1
   5  11 -14   -3.09    3.63   2
   4  11 -14   20.71    5.39   2
   4 -11 -14   29.26    6.01   1
   3  11 -14   -4.32    3.46   2
   3 -11 -14   -1.59    3.45   1
   2 -11 -14    0.68    3.59   1
   2  11 -14    0.06    3.57   2
   1 -11 -14   -0.96    3.57   1
   1  11 -14    1.39    3.54   2
   0  11 -14   -0.60    3.56   2
   0 -11 -14    1.10    4.33   1
  -1  11 -14    5.99    4.26   1
  -1 -11 -14    3.58    4.50   1
  -1  11 -14   -1.00    3.49   2
  -2  11 -14    8.43    4.26   2
  -2  11 -14   12.74    4.71   1
  -2 -11 -14   11.22    5.07   1
  -3  11 -14    0.14    3.84   1
  -3  11 -14    6.04    4.44   2
  -3 -11 -14    5.81    5.12   1
   7 -12 -14   -2.11    3.97   1
   7  12 -14   -3.40    4.45   2
   6 -12 -14    0.55    3.94   1
   6  12 -14   -4.58    4.38   2
   5  12 -14   -4.01    3.60   2
   5 -12 -14   -4.18    3.38   1
   4 -12 -14   41.39    7.01   1
   4  12 -14   28.13    6.18   2
   3 -12 -14    6.64    4.86   1
   3  12 -14    2.25    3.76   2
   2  12 -14   52.55    7.17   2
   2 -12 -14   44.65    6.98   1
   1 -12 -14   -1.15    3.50   1
   1  12 -14   -2.73    3.55   2
   0  12 -14   10.62    4.55   2
   0 -12 -14   20.66    6.03   1
  -1 -12 -14    8.33    5.24   1
  -1  12 -14   -3.90    3.26   2
  -2  12 -14   -1.87    3.63   2
  -2  12 -14   -0.56    4.18   1
  -3  12 -14    1.27    4.64   1
  -3  12 -14    1.34    3.63   2
   6  13 -14   21.93    6.10   2
   5  13 -14   -0.29    4.11   2
   5 -13 -14    3.89    4.78   1
   4 -13 -14   39.34    7.23   1
   4  13 -14   37.52    6.57   2
   3  13 -14   -2.94    3.85   2
   3 -13 -14    2.25    4.45   1
   2  13 -14    1.72    4.21   2
   2 -13 -14    0.01    4.60   1
   1 -13 -14    1.86    4.24   1
   1  13 -14    1.50    4.05   2
   0 -13 -14    8.64    5.23   1
   0  13 -14   -2.87    3.70   2
  -1  13 -14    5.38    4.45   2
  -2  13 -14   44.29    6.91   2
   5  14 -14   -1.47    4.20   2
   4  14 -14   42.95    7.18   2
   3  14 -14    6.33    4.65   2
   2  14 -14   26.52    6.19   2
   1  14 -14    2.44    4.13   2
   0  14 -14   78.10    8.51   2
  -1  14 -14   -4.67    3.75   2
  10   0 -15   23.84    7.11   2
   9   0 -15   -1.61    5.92   2
   8   0 -15   53.49    8.47   2
   7   0 -15    3.75    5.47   2
   6   0 -15   17.23    5.83   2
   5   0 -15    4.00    4.75   2
   3   0 -15    2.99    3.47   1
   2   0 -15   11.54    3.76   1
   1   0 -15    1.14    3.13   1
   0   0 -15    8.90    3.75   1
  -1   0 -15   -0.72    3.47   1
  -2   0 -15   58.74    6.78   1
  -3   0 -15   -2.84    3.57   1
  -4   0 -15  105.09    9.00   1
  -5   0 -15   -1.04    4.25   1
  10   1 -15   11.40    6.96   2
  10  -1 -15    9.08    6.54   2
   9   1 -15   -1.44    5.75   2
   9  -1 -15   -2.38    5.41   2
   8  -1 -15   -3.38    4.70   2
   8   1 -15  -10.53    5.02   2
   7   1 -15    1.55    5.27   2
   7  -1 -15   14.11    6.19   2
   6  -1 -15   -1.89    4.85   2
   6   1 -15   -1.39    4.68   2
   5   1 -15   19.23    5.30   2
   5  -1 -15   29.11    6.17   2
   4  -1 -15    4.04    3.38   1
   4   1 -15    0.16    4.54   2
   3   1 -15  261.48   11.35   1
   3  -1 -15  277.38   11.98   1
   2  -1 -15   33.21    5.23   1
   2   1 -15   35.46    5.09   1
   1   1 -15   91.17    7.36   1
   1  -1 -15   89.99    7.36   1
   0  -1 -15  105.36    8.12   1
   0   1 -15  103.54    8.01   1
  -1  -1 -15   -1.93    3.32   1
  -1   1 -15    0.90    2.95   1
  -2   1 -15   63.31    7.09   1
  -2  -1 -15   58.65    6.77   1
  -3   1 -15   -2.32    3.73   1
  -3  -1 -15   -0.63    3.96   1
  -4  -1 -15   45.18    7.13   1
  -4   1 -15   31.35    6.36   1
  10   2 -15   26.67    7.68   2
  10  -2 -15   -1.87    5.68   2
   9  -2 -15    0.12    5.81   2
   9   2 -15    4.56    6.08   2
   8  -2 -15   46.82    7.94   2
   8   2 -15   36.51    7.56   2
   7  -2 -15   -1.06    4.90   2
   7   2 -15    1.07    4.88   2
   6  -2 -15   84.74    8.39   2
   6   2 -15   87.29    8.84   2
   5   2 -15   18.50    5.62   2
   4  -2 -15   32.93    5.25   1
   4   2 -15   19.22    5.44   2
   3   2 -15    3.84    4.10   2
   3  -2 -15    5.29    3.64   1
   2  -2 -15    8.70    3.80   1
   2   2 -15   25.72    4.60   1
   1  -2 -15    4.18    3.19   1
   1   2 -15    5.53    3.48   1
   0  -2 -15   11.04    4.15   1
   0   2 -15    8.29    3.91   1
  -1  -2 -15   -2.89    2.98   1
  -1   2 -15    7.12    3.94   1
  -2  -2 -15   71.03    7.52   1
  -2   2 -15   69.07    7.12   1
  -3   2 -15   -0.93    3.56   1
  -3  -2 -15    1.22    3.98   1
  -4  -2 -15   68.55    7.71   1
  -4   2 -15   65.33    7.81   1
  10  -3 -15    6.96    5.84   2
   9  -3 -15    5.72    5.71   2
   9   3 -15    4.97    6.38   2
   8  -3 -15   -0.07    5.40   2
   8   3 -15   -5.64    4.79   2
   7  -3 -15   -6.28    4.65   2
   7   3 -15   -2.73    4.57   2
   6   3 -15   -0.02    4.81   2
   5   3 -15   -1.45    4.26   2
   5  -3 -15    0.00    3.22   1
   4   3 -15  124.00    8.98   2
   4  -3 -15  154.89    9.52   1
   3  -3 -15   -2.05    2.95   1
   3   3 -15   -1.82    3.70   2
   2  -3 -15   68.42    6.67   1
   2   3 -15   66.24    6.17   1
   1  -3 -15   26.32    5.16   1
   1   3 -15   29.32    4.92   1
   0   3 -15   85.46    7.23   1
   0  -3 -15   75.02    7.31   1
  -1  -3 -15    3.42    3.54   1
  -1   3 -15    2.85    3.54   1
  -2  -3 -15   22.39    5.25   1
  -2   3 -15   21.19    4.89   1
  -3  -3 -15   -4.77    3.25   1
  -3   3 -15   -4.56    3.59   1
  -4  -3 -15    1.07    4.32   1
  -4   3 -15   -5.22    3.92   1
   9   4 -15   -6.10    5.44   2
   9  -4 -15    3.71    5.44   2
   8  -4 -15   80.43    8.77   2
   8   4 -15   52.42    8.40   2
   7   4 -15   -4.47    4.79   2
   6   4 -15   77.18    8.22   2
   5   4 -15   -4.08    3.66   2
   5  -4 -15    4.94    3.69   1
   4   4 -15   92.21    8.36   2
   4  -4 -15   89.43    7.93   1
   3   4 -15    9.84    4.53   2
   3  -4 -15   20.13    4.73   1
   2   4 -15   12.40    3.79   1
   2   4 -15    0.16    3.71   2
   2  -4 -15    4.79    3.94   1
   1   4 -15   -2.43    2.88   1
   1  -4 -15    1.36    3.33   1
   0   4 -15   -1.15    2.85   1
   0  -4 -15   -1.64    3.23   1
  -1  -4 -15    0.11    3.25   1
  -1   4 -15    6.98    3.68   1
  -2   4 -15   77.29    7.38   1
  -2  -4 -15   77.35    7.84   1
  -3   4 -15    6.61    4.53   1
  -3  -4 -15   10.60    4.91   1
  -4   4 -15   39.19    6.66   1
  -4  -4 -15   35.39    6.33   1
   9   5 -15    8.68    6.61   2
   9  -5 -15    1.94    5.17   2
   8   5 -15   -2.63    5.52   2
   8  -5 -15   -1.44    4.92   2
   7   5 -15    0.83    5.23   2
   6   5 -15    5.69    5.08   2
   5  -5 -15    2.43    3.52   1
   5   5 -15   -4.25    4.19   2
   4  -5 -15  190.66   10.71   1
   4   5 -15  177.25   10.83   2
   3  -5 -15    9.56    4.10   1
   3   5 -15   14.77    4.47   2
   2  -5 -15  404.71   16.09   1
   2   5 -15  424.92   15.40   2
   1   5 -15    0.92    3.12   1
   1  -5 -15    3.38    3.73   1
   0  -5 -15  405.39   16.20   1
   0   5 -15  431.46   15.20   1
  -1   5 -15   19.32    4.86   1
  -1  -5 -15   31.86    5.54   1
  -2   5 -15   61.18    6.72   1
  -2  -5 -15   66.22    7.51   1
  -3   5 -15   17.20    4.97   1
  -3  -5 -15   17.67    5.45   1
  -4  -5 -15   15.22    5.48   1
  -4   5 -15   23.02    5.67   1
   9  -6 -15   -1.23    5.29   2
   9   6 -15    1.13    5.60   2
   8   6 -15   68.34    8.62   2
   7   6 -15    1.03    4.83   2
   6  -6 -15   75.82    7.73   1
   6   6 -15   89.36    9.01   2
   5   6 -15    3.02    4.55   2
   5  -6 -15    2.89    3.68   1
   4   6 -15   73.03    7.54   2
   4  -6 -15   93.08    8.23   1
   3   6 -15    1.53    3.87   2
   3  -6 -15    9.28    4.29   1
   2  -6 -15   22.45    5.08   1
   2   6 -15   20.82    4.97   2
   1  -6 -15   -1.62    3.29   1
   1   6 -15    5.20    3.32   1
   1   6 -15    3.00    3.64   2
   0  -6 -15    8.66    4.18   1
   0   6 -15   -1.92    3.34   1
  -1  -6 -15    0.65    3.36   1
  -1   6 -15    5.97    3.67   1
  -2  -6 -15   75.71    8.20   1
  -2   6 -15   72.80    7.37   1
  -3  -6 -15    8.85    4.96   1
  -3   6 -15   -1.46    4.11   1
  -4  -6 -15   76.65    8.84   1
  -4   6 -15  100.35    9.18   1
   8   7 -15  -10.22    5.25   2
   7   7 -15   12.76    5.91   2
   6  -7 -15   34.91    6.06   1
   6   7 -15   33.93    6.49   2
   5   7 -15    8.21    5.04   2
   5  -7 -15    5.88    4.18   1
   4  -7 -15  136.72    9.87   1
   4   7 -15  136.66    9.90   2
   3   7 -15   16.83    4.74   2
   3  -7 -15   14.09    4.66   1
   2   7 -15  166.38    9.88   2
   2  -7 -15  181.72   11.30   1
   1   7 -15    4.24    3.43   2
   1  -7 -15    0.47    3.53   1
   0  -7 -15  284.02   14.06   1
   0   7 -15  318.22   12.89   1
   0   7 -15  280.38   12.64   2
  -1   7 -15    2.81    3.84   1
  -1  -7 -15    3.48    3.87   1
  -2   7 -15  174.90   10.58   1
  -2  -7 -15  157.96   11.09   1
  -3   7 -15    0.13    3.89   1
  -3  -7 -15    1.42    4.27   1
  -4   7 -15   32.25    6.38   1
   8   8 -15   30.24    7.41   2
   7   8 -15    6.32    5.43   2
   6  -8 -15   57.89    7.17   1
   6   8 -15   50.82    7.75   2
   5  -8 -15    2.26    4.04   1
   5   8 -15    4.16    4.75   2
   4   8 -15   62.60    7.26   2
   4  -8 -15   61.20    7.33   1
   3  -8 -15   -5.01    3.27   1
   3   8 -15   -1.31    3.36   2
   2   8 -15    3.30    3.79   2
   2  -8 -15    1.08    3.71   1
   1  -8 -15   -6.02    3.30   1
   1   8 -15   -0.25    3.62   2
   0   8 -15    7.09    3.99   2
   0  -8 -15    2.03    3.81   1
   0   8 -15    2.49    3.65   1
  -1  -8 -15    5.64    4.35   1
  -1   8 -15    5.51    3.77   1
  -2   8 -15   51.06    6.77   1
  -2  -8 -15   42.62    7.06   1
  -3  -8 -15   17.80    5.60   1
  -3   8 -15   18.80    5.79   1
   8   9 -15    8.95    6.23   2
   7   9 -15    0.71    5.35   2
   7  -9 -15   15.13    5.20   1
   6  -9 -15    4.19    4.37   1
   6   9 -15   -2.07    4.43   2
   5  -9 -15   30.87    6.03   1
   5   9 -15   31.49    6.48   2
   4  -9 -15   44.59    6.99   1
   4   9 -15   47.56    6.98   2
   3  -9 -15    3.66    4.25   1
   3   9 -15    9.63    4.33   2
   2   9 -15  156.24    9.98   2
   2  -9 -15  169.85   11.50   1
   1  -9 -15    9.30    4.78   1
   1   9 -15    5.11    4.11   2
   0  -9 -15  185.96   11.78   1
   0   9 -15  162.87   10.30   2
  -1  -9 -15    0.14    3.70   1
  -1   9 -15   -0.32    3.86   1
  -1   9 -15   -1.08    3.41   2
  -2  -9 -15   19.83    6.01   1
  -2   9 -15   29.01    5.86   1
  -3   9 -15    5.67    4.42   1
   7 -10 -15   -0.09    4.18   1
   7  10 -15    1.63    5.39   2
   6  10 -15   49.34    7.82   2
   6 -10 -15   62.44    7.92   1
   5 -10 -15    5.26    4.67   1
   5  10 -15    2.36    4.41   2
   4  10 -15   32.11    6.30   2
   4 -10 -15   36.08    6.59   1
   3 -10 -15    0.11    3.67   1
   3  10 -15    1.38    4.33   2
   2  10 -15    0.49    3.90   2
   2 -10 -15    4.30    4.44   1
   1  10 -15    0.92    3.46   2
   1 -10 -15    0.97    3.87   1
   0 -10 -15   12.36    5.52   1
   0  10 -15    5.64    4.13   2
  -1  10 -15   29.14    5.73   1
  -1  10 -15   17.12    5.12   2
  -1 -10 -15   26.87    6.12   1
  -2  10 -15   11.81    5.01   1
   6  11 -15    7.91    5.36   2
   6 -11 -15    3.41    4.25   1
   5  11 -15   -1.33    4.07   2
   5 -11 -15   -2.56    3.67   1
   4  11 -15   62.13    8.09   2
   4 -11 -15   84.04    9.02   1
   3 -11 -15    6.86    4.88   1
   3  11 -15    3.69    4.40   2
   2 -11 -15    3.68    4.75   1
   2  11 -15   16.66    5.35   2
   1 -11 -15    6.50    4.60   1
   1  11 -15   -0.28    3.68   2
   0 -11 -15   -0.53    4.12   1
   0  11 -15   -0.31    3.75   2
  -1  11 -15    4.28    4.20   2
  -2  11 -15    5.83    4.92   1
  -2  11 -15    1.54    4.21   2
   5  12 -15    1.48    4.45   2
   4  12 -15   30.96    6.59   2
   3  12 -15   -3.92    4.01   2
   2  12 -15    0.06    3.87   2
   1  12 -15    0.36    3.90   2
   0  12 -15   -4.67    3.62   2
  -1  12 -15    5.59    4.62   2
   3  13 -15   18.28    5.71   2
   2  13 -15   19.86    5.90   2
   1  13 -15   28.56    6.38   2
   9   0 -16    1.27    5.99   2
   8   0 -16    7.98    6.39   2
   7   0 -16    0.96    5.34   2
   6   0 -16   13.33    5.63   2
   3   0 -16   -0.98    2.77   1
   2   0 -16   34.34    5.36   1
   1   0 -16    2.34    3.45   1
   0   0 -16  136.29    9.33   1
  -1   0 -16    0.84    3.82   1
  -2   0 -16  120.59    9.65   1
  -3   0 -16   -6.35    3.48   1
   9  -1 -16   -2.90    5.84   2
   9   1 -16    2.85    6.28   2
   8   1 -16   29.59    7.81   2
   8  -1 -16   39.95    8.01   2
   7  -1 -16   -1.74    5.37   2
   7   1 -16   -2.29    5.04   2
   6   1 -16   32.65    6.91   2
   5   1 -16   -4.09    4.76   2
   3  -1 -16    1.70    3.41   1
   2   1 -16    2.36    3.42   1
   2  -1 -16    4.77    3.32   1
   1  -1 -16    0.76    3.03   1
   1   1 -16    0.37    2.94   1
   0  -1 -16   -2.36    3.01   1
   0   1 -16    3.28    3.56   1
  -1   1 -16    7.94    4.17   1
  -1  -1 -16    4.96    4.09   1
  -2  -1 -16  114.65    9.38   1
  -2   1 -16   96.44    8.52   1
  -3   1 -16   -1.37    4.35   1
  -3  -1 -16    3.06    4.70   1
   9  -2 -16   -2.58    5.64   2
   8   2 -16   -2.98    5.20   2
   8  -2 -16   -0.47    5.85   2
   7   2 -16   -9.87    4.42   2
   6   2 -16   17.44    5.92   2
   5   2 -16   -4.53    4.75   2
   4  -2 -16   65.60    6.96   1
   3  -2 -16   16.52    4.60   1
   2   2 -16  123.15    8.50   1
   2  -2 -16  122.75    8.83   1
   1  -2 -16    5.47    3.80   1
   1   2 -16    1.57    3.11   1
   0   2 -16  150.08    9.49   1
   0  -2 -16  156.80   10.22   1
  -1  -2 -16    0.95    3.87   1
  -1   2 -16    4.75    3.64   1
  -2  -2 -16   32.99    5.94   1
  -2   2 -16   30.70    5.69   1
  -3   2 -16    1.32    4.71   1
  -3  -2 -16    0.72    4.39   1
   8   3 -16   28.27    7.73   2
   8  -3 -16   36.10    7.90   2
   7   3 -16   -6.05    4.99   2
   6   3 -16   33.82    6.67   2
   5   3 -16    4.90    5.17   2
   4   3 -16   60.84    7.41   2
   4  -3 -16   46.71    6.40   1
   3  -3 -16    0.58    3.39   1
   2  -3 -16    4.59    3.78   1
   1   3 -16    8.13    4.16   1
   1  -3 -16   13.76    4.40   1
   0   3 -16   29.73    5.46   1
   0  -3 -16   30.55    5.49   1
  -1   3 -16    0.06    3.77   1
  -1  -3 -16   -2.03    3.26   1
  -2  -3 -16   35.42    6.42   1
  -2   3 -16   27.33    5.51   1
  -3  -3 -16    1.85    4.03   1
  -3   3 -16   -1.24    4.46   1
   8   4 -16   -6.13    5.41   2
   7   4 -16   -9.58    4.79   2
   6   4 -16   -1.48    5.03   2
   5   4 -16   -4.54    4.64   2
   5  -4 -16    3.98    3.95   1
   4  -4 -16  150.87   10.08   1
   4   4 -16  114.68    9.48   2
   3  -4 -16    7.13    4.00   1
   3   4 -16   -2.24    4.09   2
   2  -4 -16   78.76    7.79   1
   1  -4 -16   14.90    4.71   1
   1   4 -16   26.30    5.18   1
   0   4 -16  106.93    8.35   1
   0  -4 -16   96.29    8.71   1
  -1  -4 -16   18.30    5.25   1
  -1   4 -16   21.34    4.75   1
  -2  -4 -16    6.19    4.38   1
  -2   4 -16    3.35    4.04   1
  -3   4 -16   45.16    6.62   1
   8   5 -16   61.54    9.01   2
   7   5 -16   -0.36    5.50   2
   6   5 -16   75.79    8.35   2
   5  -5 -16    1.30    3.91   1
   5   5 -16   -4.66    4.39   2
   4  -5 -16   57.74    7.14   1
   4   5 -16   55.46    7.37   2
   3   5 -16   15.53    5.07   2
   3  -5 -16    6.36    4.01   1
   2  -5 -16    6.33    4.48   1
   1  -5 -16   -1.73    3.29   1
   0  -5 -16   -0.85    3.40   1
   0   5 -16   -0.17    3.37   1
  -1   5 -16   -0.74    3.62   1
  -1  -5 -16    7.83    4.44   1
  -2  -5 -16   60.02    7.51   1
  -2   5 -16   57.07    7.23   1
  -3   5 -16    3.99    4.74   1
   8   6 -16   -2.83    5.88   2
   7   6 -16   -2.42    5.11   2
   6   6 -16   26.40    6.63   2
   5   6 -16   -3.92    4.64   2
   5  -6 -16    3.96    3.72   1
   4   6 -16   84.04    8.49   2
   4  -6 -16  100.75    8.99   1
   3   6 -16   -2.06    3.61   2
   3  -6 -16    9.30    4.33   1
   2   6 -16  187.43   11.09   2
   2  -6 -16  216.57   12.15   1
   1  -6 -16    1.00    3.97   1
   0  -6 -16  198.30   12.34   1
   0   6 -16  241.05   11.82   1
  -1   6 -16   14.97    5.07   1
  -1  -6 -16   18.10    5.07   1
  -2   6 -16  117.33    9.01   1
  -2  -6 -16  111.28    9.94   1
   7   7 -16    4.97    5.88   2
   6  -7 -16   86.05    8.67   1
   6   7 -16   89.91    9.49   2
   5   7 -16   -4.29    4.54   2
   5  -7 -16    5.19    4.47   1
   4   7 -16   48.91    6.93   2
   4  -7 -16   65.23    7.55   1
   3   7 -16   -0.75    4.06   2
   3  -7 -16    4.04    4.21   1
   2   7 -16    1.34    3.90   2
   2  -7 -16   -0.62    3.94   1
   1  -7 -16   -0.64    3.64   1
   0   7 -16    7.20    4.36   1
   0  -7 -16    4.55    4.56   1
  -1   7 -16    1.03    3.83   1
  -1  -7 -16    2.93    4.36   1
  -2   7 -16   18.87    5.33   1
   7   8 -16  -12.65    4.70   2
   6  -8 -16    8.95    4.68   1
   6   8 -16    3.38    5.55   2
   5  -8 -16   19.25    5.50   1
   5   8 -16   19.61    6.11   2
   4   8 -16  122.80   10.03   2
   4  -8 -16  130.92   10.21   1
   3   8 -16   -0.94    3.74   2
   3  -8 -16    5.69    4.66   1
   2  -8 -16  144.31   11.14   1
   2   8 -16  136.61    9.90   2
   1  -8 -16   22.29    6.10   1
   1   8 -16   11.46    4.39   2
   0  -8 -16  115.53   10.21   1
  -1   8 -16   19.60    4.93   1
  -2   8 -16   20.95    5.72   1
   6  -9 -16   59.88    8.02   1
   6   9 -16   56.85    8.43   2
   5   9 -16   -2.17    4.69   2
   5  -9 -16    1.28    4.30   1
   4  -9 -16   24.17    5.96   1
   4   9 -16   22.37    5.84   2
   3   9 -16   -0.47    4.17   2
   3  -9 -16    2.07    4.39   1
   2  -9 -16    0.63    3.92   1
   2   9 -16   -1.48    4.04   2
   1  -9 -16    6.94    4.60   1
   1   9 -16   -2.50    3.64   2
   5  10 -16   -7.91    4.13   2
   4  10 -16   35.16    6.97   2
   3  10 -16    6.82    4.76   2
   2  10 -16   10.39    4.80   2
   1  10 -16   18.95    5.20   2
   0  10 -16    6.10    4.42   2
   3  11 -16   -1.09    4.48   2
   2  11 -16   -0.64    4.23   2
   2   0 -17   23.18    5.18   1
   1   0 -17   -0.05    3.53   1
   0   0 -17   16.18    4.90   1
  -1   0 -17   -3.74    3.67   1
   7   1 -17    4.95    5.87   2
   3  -1 -17    9.87    4.34   1
   2   1 -17   62.16    6.99   1
   2  -1 -17   68.29    7.51   1
   1   1 -17    0.24    3.80   1
   1  -1 -17    0.54    3.67   1
   0  -1 -17  166.89   10.66   1
   0   1 -17  176.98   10.51   1
  -1  -1 -17    2.56    4.43   1
  -1   1 -17   -1.75    3.88   1
   7   2 -17   -1.51    5.41   2
   6   2 -17   28.48    7.32   2
   3  -2 -17    6.75    4.17   1
   2  -2 -17    3.32    4.10   1
   1  -2 -17   -0.47    3.68   1
   1   2 -17    3.97    3.83   1
   0   2 -17   -0.44    3.62   1
   0  -2 -17    2.32    4.14   1
  -1  -2 -17   -0.96    4.07   1
  -1   2 -17    2.95    4.29   1
   7   3 -17   -0.64    5.87   2
   6   3 -17   16.09    6.81   2
   5   3 -17   -8.19    5.06   2
   4  -3 -17   88.26    8.52   1
   3  -3 -17    2.32    3.87   1
   2  -3 -17  169.42   11.05   1
   1  -3 -17   -0.16    3.82   1
   1   3 -17    1.05    3.39   1
   0  -3 -17  120.28    9.79   1
   0   3 -17   97.15    8.57   1
  -1   3 -17   16.23    5.33   1
  -1  -3 -17    8.06    4.63   1
   6   4 -17   19.85    6.30   2
   5   4 -17   -0.33    4.86   2
   4  -4 -17   73.56    7.98   1
   3  -4 -17    1.42    3.69   1
   2  -4 -17   -5.93    3.62   1
   1  -4 -17    4.76    4.56   1
   0  -4 -17    5.34    4.21   1
   0   4 -17    2.24    4.06   1
  -1   4 -17    1.98    4.33   1
   6   5 -17    3.93    5.73   2
   5   5 -17   -8.12    4.75   2
   4  -5 -17   26.76    5.98   1
   4   5 -17   41.14    7.25   2
   3  -5 -17   21.45    5.49   1
   2  -5 -17   54.52    7.30   1
   1  -5 -17    1.29    4.40   1
   0  -5 -17  101.77    9.65   1
   0   5 -17  122.16    9.12   1
  -1   5 -17   -0.66    3.90   1
   6   6 -17   80.15    8.97   2
   5   6 -17   -4.98    4.95   2
   5  -6 -17    1.04    4.34   1
   4  -6 -17   25.56    6.05   1
   4   6 -17    7.79    5.66   2
   3  -6 -17    4.23    4.23   1
   2  -6 -17    4.36    4.20   1
   1  -6 -17    6.16    4.54   1
  -1   6 -17   18.30    5.03   1
   5   7 -17   -3.22    4.89   2
   5  -7 -17   -2.90    4.20   1
   4   7 -17  132.99   10.65   2
   4  -7 -17  149.76   11.46   1
   3   7 -17   -3.95    4.27   2
   3  -7 -17   -2.61    3.85   1
   2  -7 -17   88.03    9.28   1
   4   8 -17   54.52    8.01   2
   3   8 -17   -1.12    4.58   2
   2   8 -17    1.39    4.36   2
   2   0 -18  118.33    9.58   1
   1   0 -18   -0.44    3.53   1
   2  -1 -18    6.35    4.29   1
   1   1 -18   -1.53    3.84   1
   1  -1 -18   -2.84    3.33   1
   3  -2 -18   -2.15    3.78   1
   2  -2 -18   74.92    8.04   1
   1   2 -18    5.37    4.46   1
   3  -3 -18    2.93    4.38   1
   2  -3 -18    9.97    5.04   1
   3  -4 -18   -4.17    4.15   1
   0   0   0    0.00    0.00   0
;
_shelx_hkl_checksum              22464
_shelx_fab_file
;
    1    0    0      2.97      0.00
    2    0    0    -98.16      0.00
    3    0    0     -8.61      0.00
    4    0    0     45.67      0.00
    5    0    0      4.81      0.00
    6    0    0    -21.24      0.00
    7    0    0     -1.38      0.00
    8    0    0      9.56      0.00
    9    0    0      0.60      0.00
   10    0    0     -5.32      0.00
   11    0    0     -0.55      0.00
   12    0    0      2.95      0.00
   13    0    0     -1.18      0.00
   14    0    0     -1.03      0.00
   15    0    0      0.66      0.00
   16    0    0      0.41      0.00
   17    0    0     -0.41      0.00
    1    1    0   -109.45      0.00
    2    1    0     -7.07      0.00
    3    1    0     54.90      0.00
    4    1    0      8.27      0.00
    5    1    0    -24.03      0.00
    6    1    0     -3.33      0.00
    7    1    0     10.40      0.00
    8    1    0      1.22      0.00
    9    1    0     -5.02      0.00
   10    1    0     -1.24      0.00
   11    1    0      3.15      0.00
   12    1    0     -0.13      0.00
   13    1    0     -1.15      0.00
   14    1    0      0.80      0.00
   15    1    0      0.31      0.00
   16    1    0     -0.29      0.00
   17    1    0     -0.02      0.00
    0    2    0    -75.26      0.00
    1    2    0     -3.98      0.00
    2    2    0     45.31      0.00
    3    2    0     10.34      0.00
    4    2    0    -13.76      0.00
    5    2    0     -6.87      0.00
    6    2    0      3.98      0.00
    7    2    0      3.26      0.00
    8    2    0     -1.05      0.00
    9    2    0     -1.98      0.00
   10    2    0      0.93      0.00
   11    2    0      1.58      0.00
   12    2    0     -0.42      0.00
   13    2    0      0.07      0.00
   14    2    0     -0.35      0.00
   15    2    0      0.13      0.00
   16    2    0      0.34      0.00
   17    2    0      0.14      0.00
    1    3    0     24.78      0.00
    2    3    0      8.10      0.00
    3    3    0      0.23      0.00
    4    3    0     -9.36      0.00
    5    3    0     -6.79      0.00
    6    3    0      5.03      0.00
    7    3    0      5.44      0.00
    8    3    0     -2.78      0.00
    9    3    0     -2.68      0.00
   10    3    0      2.42      0.00
   11    3    0      0.95      0.00
   12    3    0     -1.24      0.00
   13    3    0     -0.92      0.00
   14    3    0      0.67      0.00
   15    3    0      0.53      0.00
   16    3    0     -0.54      0.00
   17    3    0     -0.38      0.00
    0    4    0      8.94      0.00
    1    4    0      3.43      0.00
    2    4    0      3.20      0.00
    3    4    0     -8.04      0.00
    4    4    0    -11.60      0.00
    5    4    0      5.27      0.00
    6    4    0      9.45      0.00
    7    4    0     -2.61      0.00
    8    4    0     -5.34      0.00
    9    4    0      1.86      0.00
   10    4    0      2.09      0.00
   11    4    0     -1.83      0.00
   12    4    0     -0.94      0.00
   13    4    0      0.97      0.00
   14    4    0      0.50      0.00
   15    4    0     -1.08      0.00
   16    4    0      0.02      0.00
   17    4    0      0.43      0.00
    1    5    0     -6.40      0.00
    2    5    0     -4.14      0.00
    3    5    0     -3.45      0.00
    4    5    0      4.06      0.00
    5    5    0      5.90      0.00
    6    5    0     -1.30      0.00
    7    5    0     -4.38      0.00
    8    5    0      0.35      0.00
    9    5    0      1.71      0.00
   10    5    0     -0.98      0.00
   11    5    0     -0.37      0.00
   12    5    0      0.75      0.00
   13    5    0      0.26      0.00
   14    5    0     -0.84      0.00
   15    5    0      0.25      0.00
   16    5    0      0.76      0.00
   17    5    0     -0.34      0.00
    0    6    0    -16.56      0.00
    1    6    0     -1.17      0.00
    2    6    0     10.80      0.00
    3    6    0      2.42      0.00
    4    6    0     -3.62      0.00
    5    6    0     -0.47      0.00
    6    6    0      0.41      0.00
    7    6    0     -1.03      0.00
    8    6    0     -0.43      0.00
    9    6    0      0.50      0.00
   10    6    0      0.74      0.00
   11    6    0      0.18      0.00
   12    6    0     -0.28      0.00
   13    6    0      0.04      0.00
   14    6    0     -0.08      0.00
   15    6    0      0.43      0.00
   16    6    0     -0.29      0.00
    1    7    0     17.60      0.00
    2    7    0      1.32      0.00
    3    7    0    -11.09      0.00
    4    7    0     -0.90      0.00
    5    7    0      5.17      0.00
    6    7    0     -1.02      0.00
    7    7    0     -2.65      0.00
    8    7    0      1.38      0.00
    9    7    0      1.77      0.00
   10    7    0     -0.19      0.00
   11    7    0     -0.89      0.00
   12    7    0      0.54      0.00
   13    7    0     -0.19      0.00
   14    7    0     -0.46      0.00
   15    7    0      0.39      0.00
   16    7    0      0.02      0.00
    0    8    0     13.03      0.00
    1    8    0      0.70      0.00
    2    8    0    -10.54      0.00
    3    8    0     -1.50      0.00
    4    8    0      5.69      0.00
    5    8    0      0.33      0.00
    6    8    0     -2.69      0.00
    7    8    0      1.19      0.00
    8    8    0      1.59      0.00
    9    8    0     -0.31      0.00
   10    8    0     -0.77      0.00
   11    8    0      0.03      0.00
   12    8    0      0.17      0.00
   13    8    0     -1.05      0.00
   14    8    0      0.74      0.00
   15    8    0      0.53      0.00
   16    8    0     -0.42      0.00
    1    9    0     -4.37      0.00
    2    9    0     -1.32      0.00
    3    9    0      2.26      0.00
    4    9    0      1.42      0.00
    5    9    0     -0.33      0.00
    6    9    0      0.30      0.00
    7    9    0     -0.10      0.00
    8    9    0     -0.58      0.00
    9    9    0      0.40      0.00
   10    9    0     -0.57      0.00
   11    9    0     -0.08      0.00
   12    9    0     -0.62      0.00
   13    9    0      0.27      0.00
   14    9    0      1.06      0.00
   15    9    0     -0.65      0.00
    0   10    0      0.74      0.00
    1   10    0     -0.61      0.00
    2   10    0     -1.23      0.00
    3   10    0      1.37      0.00
    4   10    0      2.11      0.00
    5   10    0     -0.53      0.00
    6   10    0     -2.01      0.00
    7   10    0     -0.82      0.00
    8   10    0      1.73      0.00
    9   10    0     -0.08      0.00
   10   10    0     -1.21      0.00
   11   10    0      0.10      0.00
   12   10    0      0.09      0.00
   13   10    0      1.29      0.00
   14   10    0     -0.41      0.00
   15   10    0     -0.53      0.00
    1   11    0     -1.91      0.00
    2   11    0      0.79      0.00
    3   11    0      2.48      0.00
    4   11    0     -0.89      0.00
    5   11    0     -2.53      0.00
    6   11    0     -0.43      0.00
    7   11    0      2.18      0.00
    8   11    0      0.81      0.00
    9   11    0     -1.86      0.00
   10   11    0     -0.09      0.00
   11   11    0      0.84      0.00
   12   11    0      1.14      0.00
   13   11    0     -0.18      0.00
   14   11    0     -1.12      0.00
   15   11    0      0.30      0.00
    0   12    0     -0.38      0.00
    1   12    0      0.28      0.00
    2   12    0      0.91      0.00
    3   12    0     -0.81      0.00
    4   12    0     -1.41      0.00
    5   12    0      0.41      0.00
    6   12    0      1.54      0.00
    7   12    0      0.64      0.00
    8   12    0     -1.33      0.00
    9   12    0     -0.67      0.00
   10   12    0      1.23      0.00
   11   12    0      0.90      0.00
   12   12    0     -0.48      0.00
   13   12    0     -1.68      0.00
   14   12    0      0.41      0.00
    1   13    0     -0.99      0.00
    2   13    0     -0.42      0.00
    3   13    0      0.19      0.00
    4   13    0      0.77      0.00
    5   13    0      0.34      0.00
    6   13    0     -0.23      0.00
    7   13    0     -0.53      0.00
    8   13    0     -0.40      0.00
    9   13    0      0.45      0.00
   10   13    0      0.54      0.00
   11   13    0     -0.68      0.00
   12   13    0     -1.43      0.00
   13   13    0      0.38      0.00
   14   13    0      0.98      0.00
    0   14    0     -1.67      0.00
    1   14    0     -0.05      0.00
    2   14    0      1.08      0.00
    3   14    0      0.42      0.00
    4   14    0     -0.58      0.00
    5   14    0     -0.37      0.00
    6   14    0     -0.11      0.00
    7   14    0      0.14      0.00
    8   14    0     -0.28      0.00
    9   14    0      0.02      0.00
   10   14    0     -0.12      0.00
   11   14    0     -0.36      0.00
   12   14    0      0.24      0.00
   13   14    0      1.07      0.00
    1   15    0      0.94      0.00
    2   15    0      0.03      0.00
    3   15    0     -0.65      0.00
    4   15    0      0.13      0.00
    5   15    0      0.16      0.00
    6   15    0     -0.31      0.00
    7   15    0     -0.04      0.00
    8   15    0     -0.01      0.00
    9   15    0      0.51      0.00
   10   15    0      0.43      0.00
   11   15    0      0.02      0.00
   12   15    0      0.25      0.00
   13   15    0      0.18      0.00
    0   16    0      0.22      0.00
    1   16    0     -0.01      0.00
    2   16    0     -0.15      0.00
    3   16    0      0.22      0.00
    4   16    0      0.30      0.00
    5   16    0     -1.08      0.00
    6   16    0      0.35      0.00
    7   16    0      0.76      0.00
    8   16    0      0.34      0.00
    9   16    0      0.09      0.00
   10   16    0     -0.15      0.00
   11   16    0     -0.50      0.00
   12   16    0      0.16      0.00
    1   17    0      0.16      0.00
    2   17    0     -0.05      0.00
    3   17    0      0.22      0.00
    4   17    0     -0.89      0.00
    5   17    0      0.14      0.00
    6   17    0      1.42      0.00
    7   17    0     -0.22      0.00
    8   17    0     -0.69      0.00
    9   17    0     -0.17      0.00
   10   17    0     -0.22      0.00
   11   17    0     -0.17      0.00
    1   18    0     -0.06      0.00
    2   18    0      0.18      0.00
    3   18    0     -0.22      0.00
    4   18    0     -0.27      0.00
    5   18    0      1.20      0.00
    6   18    0     -0.39      0.00
    7   18    0     -0.81      0.00
    8   18    0     -0.12      0.00
    9   18    0      0.32      0.00
   10   18    0     -0.34      0.00
    1   19    0      0.19      0.00
    2   19    0     -0.09      0.00
    3   19    0     -0.37      0.00
    4   19    0      0.59      0.00
    5   19    0     -0.25      0.00
    6   19    0     -0.44      0.00
    7   19    0      0.05      0.00
    8   19    0      0.05      0.00
    9   19    0     -0.02      0.00
    0   20    0      0.02      0.00
    1   20    0     -0.19      0.00
    2   20    0     -0.13      0.00
    3   20    0      0.27      0.00
    4   20    0     -0.21      0.00
    5   20    0     -0.23      0.00
    6   20    0      0.43      0.00
    7   20    0     -0.53      0.00
    8   20    0      0.32      0.00
    1   21    0      0.22      0.00
    2   21    0      0.18      0.00
    3   21    0     -0.26      0.00
    4   21    0     -0.04      0.00
    5   21    0      0.71      0.00
    6   21    0     -0.53      0.00
    2   22    0     -0.27      0.00
    3   22    0      0.22      0.00
    4   22    0      0.55      0.00
  -17    1    1     -0.63      0.00
  -16    1    1     -0.15      0.00
  -15    1    1      0.96      0.00
  -14    1    1      0.27      0.00
  -13    1    1     -1.03      0.00
  -12    1    1      0.02      0.00
  -11    1    1      1.57      0.00
  -10    1    1     -0.04      0.00
   -9    1    1     -3.88      0.00
   -8    1    1      0.47      0.00
   -7    1    1      8.86      0.00
   -6    1    1     -1.42      0.00
   -5    1    1    -16.98      0.00
   -4    1    1      3.09      0.00
   -3    1    1     27.87      0.00
   -2    1    1     -5.54      0.00
   -1    1    1    -36.55      0.00
    0    1    1      7.43      0.00
    1    1    1     32.99      0.00
    2    1    1     -6.20      0.00
    3    1    1    -23.02      0.00
    4    1    1      4.35      0.00
    5    1    1     14.41      0.00
    6    1    1     -2.71      0.00
    7    1    1     -8.22      0.00
    8    1    1      1.62      0.00
    9    1    1      4.32      0.00
   10    1    1     -1.08      0.00
   11    1    1     -2.57      0.00
   12    1    1      0.93      0.00
   13    1    1      1.52      0.00
   14    1    1     -0.18      0.00
   15    1    1     -1.02      0.00
   16    1    1     -0.17      0.00
   17    1    1      0.60      0.00
  -17    2    1      0.03      0.00
  -16    2    1      1.14      0.00
  -15    2    1      0.40      0.00
  -14    2    1     -1.29      0.00
  -13    2    1     -0.10      0.00
  -12    2    1      1.38      0.00
  -11    2    1     -0.38      0.00
  -10    2    1     -3.18      0.00
   -9    2    1      0.83      0.00
   -8    2    1      8.10      0.00
   -7    2    1     -2.20      0.00
   -6    2    1    -17.26      0.00
   -5    2    1      4.42      0.00
   -4    2    1     30.17      0.00
   -3    2    1     -7.71      0.00
   -2    2    1    -46.18      0.00
   -1    2    1     11.52      0.00
    0    2    1     50.22      0.00
    1    2    1    -10.92      0.00
    2    2    1    -37.95      0.00
    3    2    1      7.33      0.00
    4    2    1     24.42      0.00
    5    2    1     -4.44      0.00
    6    2    1    -15.02      0.00
    7    2    1      2.66      0.00
    8    2    1      8.03      0.00
    9    2    1     -1.48      0.00
   10    2    1     -4.59      0.00
   11    2    1      1.44      0.00
   12    2    1      2.67      0.00
   13    2    1     -0.77      0.00
   14    2    1     -1.62      0.00
   15    2    1     -0.23      0.00
   16    2    1      1.05      0.00
   17    2    1      0.06      0.00
  -17    3    1      0.66      0.00
  -16    3    1      0.03      0.00
  -15    3    1     -1.02      0.00
  -14    3    1     -0.21      0.00
  -13    3    1      0.70      0.00
  -12    3    1     -0.60      0.00
  -11    3    1     -0.92      0.00
  -10    3    1      1.19      0.00
   -9    3    1      3.36      0.00
   -8    3    1     -2.73      0.00
   -7    3    1     -8.48      0.00
   -6    3    1      4.72      0.00
   -5    3    1     16.54      0.00
   -4    3    1     -7.94      0.00
   -3    3    1    -27.78      0.00
   -2    3    1     11.58      0.00
   -1    3    1     38.40      0.00
    0    3    1    -12.65      0.00
    1    3    1    -32.41      0.00
    2    3    1      7.80      0.00
    3    3    1     20.47      0.00
    4    3    1     -3.90      0.00
    5    3    1    -12.94      0.00
    6    3    1      1.81      0.00
    7    3    1      7.84      0.00
    8    3    1     -0.91      0.00
    9    3    1     -4.19      0.00
   10    3    1      0.68      0.00
   11    3    1      2.73      0.00
   12    3    1     -0.92      0.00
   13    3    1     -1.49      0.00
   14    3    1     -0.17      0.00
   15    3    1      0.99      0.00
   16    3    1      0.18      0.00
   17    3    1     -0.49      0.00
  -17    4    1     -0.58      0.00
  -16    4    1     -0.77      0.00
  -15    4    1      0.19      0.00
  -14    4    1      0.40      0.00
  -13    4    1     -0.48      0.00
  -12    4    1      0.40      0.00
  -11    4    1      1.19      0.00
  -10    4    1     -0.36      0.00
   -9    4    1     -2.43      0.00
   -8    4    1     -0.57      0.00
   -7    4    1      4.36      0.00
   -6    4    1      2.81      0.00
   -5    4    1     -6.59      0.00
   -4    4    1     -5.41      0.00
   -3    4    1      9.64      0.00
   -2    4    1     11.64      0.00
   -1    4    1    -11.43      0.00
    0    4    1    -12.58      0.00
    1    4    1      7.43      0.00
    2    4    1      5.44      0.00
    3    4    1     -2.17      0.00
    4    4    1     -1.96      0.00
    5    4    1     -0.15      0.00
    6    4    1      2.11      0.00
    7    4    1      0.51      0.00
    8    4    1     -1.17      0.00
    9    4    1     -0.74      0.00
   10    4    1      1.29      0.00
   11    4    1     -0.07      0.00
   12    4    1     -0.91      0.00
   13    4    1     -0.22      0.00
   14    4    1      0.72      0.00
   15    4    1      0.63      0.00
   16    4    1     -0.52      0.00
   17    4    1      0.44      0.00
  -17    5    1     -0.70      0.00
  -16    5    1      0.85      0.00
  -15    5    1      0.71      0.00
  -14    5    1     -0.66      0.00
  -13    5    1      0.33      0.00
  -12    5    1      0.80      0.00
  -11    5    1     -1.43      0.00
  -10    5    1     -1.29      0.00
   -9    5    1      2.36      0.00
   -8    5    1      3.14      0.00
   -7    5    1     -3.77      0.00
   -6    5    1     -4.29      0.00
   -5    5    1      4.79      0.00
   -4    5    1      6.53      0.00
   -3    5    1     -5.76      0.00
   -2    5    1     -8.35      0.00
   -1    5    1      4.02      0.00
    0    5    1      6.87      0.00
    1    5    1     -7.05      0.00
    2    5    1     -1.49      0.00
    3    5    1      8.33      0.00
    4    5    1     -1.09      0.00
    5    5    1     -5.27      0.00
    6    5    1      1.58      0.00
    7    5    1      2.39      0.00
    8    5    1     -1.45      0.00
    9    5    1     -0.82      0.00
   10    5    1      1.05      0.00
   11    5    1     -0.33      0.00
   12    5    1     -0.48      0.00
   13    5    1      0.50      0.00
   14    5    1      0.98      0.00
   15    5    1     -0.69      0.00
   16    5    1     -0.12      0.00
  -17    6    1      0.97      0.00
  -16    6    1      1.11      0.00
  -15    6    1     -1.03      0.00
  -14    6    1     -0.31      0.00
  -13    6    1      0.62      0.00
  -12    6    1     -0.81      0.00
  -11    6    1     -0.23      0.00
  -10    6    1      1.83      0.00
   -9    6    1      1.16      0.00
   -8    6    1     -3.70      0.00
   -7    6    1     -2.35      0.00
   -6    6    1      5.22      0.00
   -5    6    1      2.96      0.00
   -4    6    1     -6.52      0.00
   -3    6    1     -4.82      0.00
   -2    6    1      6.89      0.00
   -1    6    1      5.21      0.00
    0    6    1     -7.61      0.00
    1    6    1     -2.17      0.00
    2    6    1      8.99      0.00
    3    6    1     -0.35      0.00
    4    6    1     -7.22      0.00
    5    6    1      0.99      0.00
    6    6    1      3.58      0.00
    7    6    1     -0.84      0.00
    8    6    1     -1.42      0.00
    9    6    1      1.12      0.00
   10    6    1     -0.35      0.00
   11    6    1     -0.56      0.00
   12    6    1      0.48      0.00
   13    6    1      0.95      0.00
   14    6    1     -0.78      0.00
   15    6    1     -0.73      0.00
   16    6    1      0.64      0.00
  -16    7    1     -0.77      0.00
  -15    7    1     -0.83      0.00
  -14    7    1      0.68      0.00
  -13    7    1     -0.13      0.00
  -12    7    1      0.15      0.00
  -11    7    1      0.66      0.00
  -10    7    1     -0.35      0.00
   -9    7    1     -1.12      0.00
   -8    7    1     -0.94      0.00
   -7    7    1      2.40      0.00
   -6    7    1      0.87      0.00
   -5    7    1     -1.30      0.00
   -4    7    1     -1.85      0.00
   -3    7    1      0.35      0.00
   -2    7    1      3.03      0.00
   -1    7    1      0.07      0.00
    0    7    1     -2.52      0.00
    1    7    1      1.34      0.00
    2    7    1      0.87      0.00
    3    7    1     -2.07      0.00
    4    7    1     -0.61      0.00
    5    7    1      1.17      0.00
    6    7    1      0.54      0.00
    7    7    1      0.35      0.00
    8    7    1     -0.05      0.00
    9    7    1     -1.47      0.00
   10    7    1     -0.15      0.00
   11    7    1      1.15      0.00
   12    7    1      0.52      0.00
   13    7    1     -0.54      0.00
   14    7    1     -0.91      0.00
   15    7    1      0.43      0.00
   16    7    1     -0.01      0.00
  -16    8    1     -0.88      0.00
  -15    8    1      0.28      0.00
  -14    8    1      0.20      0.00
  -13    8    1      0.11      0.00
  -12    8    1      0.16      0.00
  -11    8    1     -0.65      0.00
  -10    8    1      0.27      0.00
   -9    8    1     -0.01      0.00
   -8    8    1     -0.40      0.00
   -7    8    1      0.64      0.00
   -6    8    1      1.17      0.00
   -5    8    1     -0.44      0.00
   -4    8    1     -4.77      0.00
   -3    8    1      1.67      0.00
   -2    8    1      6.62      0.00
   -1    8    1     -2.07      0.00
    0    8    1     -6.02      0.00
    1    8    1      1.52      0.00
    2    8    1      4.28      0.00
    3    8    1     -1.52      0.00
    4    8    1     -2.60      0.00
    5    8    1      1.57      0.00
    6    8    1      2.58      0.00
    7    8    1     -1.27      0.00
    8    8    1     -2.92      0.00
    9    8    1      0.42      0.00
   10    8    1      2.52      0.00
   11    8    1     -0.07      0.00
   12    8    1     -0.53      0.00
   13    8    1     -0.85      0.00
   14    8    1     -0.19      0.00
   15    8    1      0.41      0.00
   16    8    1      0.27      0.00
  -16    9    1     -0.34      0.00
  -15    9    1      0.44      0.00
  -14    9    1      0.20      0.00
  -13    9    1      0.07      0.00
  -12    9    1     -0.44      0.00
  -11    9    1      0.08      0.00
  -10    9    1      0.14      0.00
   -9    9    1     -1.24      0.00
   -8    9    1      0.78      0.00
   -7    9    1      1.42      0.00
   -6    9    1     -0.61      0.00
   -5    9    1     -3.91      0.00
   -4    9    1      1.15      0.00
   -3    9    1      7.23      0.00
   -2    9    1     -1.80      0.00
   -1    9    1     -7.42      0.00
    0    9    1      1.55      0.00
    1    9    1      5.98      0.00
    2    9    1     -1.45      0.00
    3    9    1     -3.96      0.00
    4    9    1      1.68      0.00
    5    9    1      2.83      0.00
    6    9    1     -1.65      0.00
    7    9    1     -2.93      0.00
    8    9    1      0.68      0.00
    9    9    1      3.13      0.00
   10    9    1     -0.18      0.00
   11    9    1     -1.22      0.00
   12    9    1     -0.69      0.00
   13    9    1     -0.51      0.00
   14    9    1      0.80      0.00
   15    9    1      0.92      0.00
  -16   10    1      0.43      0.00
  -15   10    1      0.41      0.00
  -14   10    1     -0.16      0.00
  -13   10    1     -0.27      0.00
  -12   10    1     -0.25      0.00
  -11   10    1      0.01      0.00
  -10   10    1     -0.20      0.00
   -9   10    1      0.64      0.00
   -8   10    1      1.09      0.00
   -7   10    1     -0.96      0.00
   -6   10    1     -0.95      0.00
   -5   10    1      0.90      0.00
   -4   10    1      3.45      0.00
   -3   10    1     -1.62      0.00
   -2   10    1     -4.24      0.00
   -1   10    1      1.41      0.00
    0   10    1      3.13      0.00
    1   10    1     -1.07      0.00
    2   10    1     -1.85      0.00
    3   10    1      1.25      0.00
    4   10    1      0.75      0.00
    5   10    1     -1.45      0.00
    6   10    1     -1.01      0.00
    7   10    1      0.86      0.00
    8   10    1      1.71      0.00
    9   10    1      0.18      0.00
   10   10    1     -1.65      0.00
   11   10    1     -0.55      0.00
   12   10    1     -0.14      0.00
   13   10    1      1.05      0.00
   14   10    1      1.01      0.00
   15   10    1     -0.43      0.00
  -15   11    1     -0.26      0.00
  -14   11    1     -0.05      0.00
  -13   11    1     -0.14      0.00
  -12   11    1      0.11      0.00
  -11   11    1      0.79      0.00
  -10   11    1      0.29      0.00
   -9   11    1      0.03      0.00
   -8   11    1     -0.63      0.00
   -7   11    1      0.31      0.00
   -6   11    1      0.61      0.00
   -5   11    1     -0.41      0.00
   -4   11    1     -0.93      0.00
   -3   11    1     -0.53      0.00
   -2   11    1      1.08      0.00
   -1   11    1     -0.43      0.00
    0   11    1     -0.63      0.00
    1   11    1      1.20      0.00
    2   11    1      0.70      0.00
    3   11    1     -1.93      0.00
    4   11    1     -1.09      0.00
    5   11    1      1.43      0.00
    6   11    1      1.16      0.00
    7   11    1     -0.69      0.00
    8   11    1      0.07      0.00
    9   11    1     -0.56      0.00
   10   11    1     -0.46      0.00
   11   11    1      0.38      0.00
   12   11    1      0.72      0.00
   13   11    1      0.53      0.00
   14   11    1     -0.61      0.00
   15   11    1     -0.64      0.00
  -15   12    1      0.21      0.00
  -14   12    1      0.02      0.00
  -13   12    1     -0.02      0.00
  -12   12    1      0.81      0.00
  -11   12    1     -0.34      0.00
  -10   12    1     -1.04      0.00
   -9   12    1      0.07      0.00
   -8   12    1      0.41      0.00
   -7   12    1      0.17      0.00
   -6   12    1     -1.58      0.00
   -5   12    1     -0.26      0.00
   -4   12    1      1.48      0.00
   -3   12    1      0.39      0.00
   -2   12    1     -1.96      0.00
   -1   12    1     -0.19      0.00
    0   12    1      2.52      0.00
    1   12    1      0.06      0.00
    2   12    1     -3.01      0.00
    3   12    1     -0.48      0.00
    4   12    1      2.83      0.00
    5   12    1      1.03      0.00
    6   12    1     -1.98      0.00
    7   12    1     -0.58      0.00
    8   12    1      1.22      0.00
    9   12    1     -0.12      0.00
   10   12    1      0.10      0.00
   11   12    1     -0.08      0.00
   12   12    1      0.03      0.00
   13   12    1     -0.02      0.00
   14   12    1     -0.43      0.00
  -14   13    1     -0.43      0.00
  -13   13    1      0.32      0.00
  -12   13    1     -0.62      0.00
  -11   13    1     -1.19      0.00
  -10   13    1      0.80      0.00
   -9   13    1      0.54      0.00
   -8   13    1     -0.36      0.00
   -7   13    1     -0.80      0.00
   -6   13    1     -0.11      0.00
   -5   13    1      1.61      0.00
   -4   13    1     -0.09      0.00
   -3   13    1     -1.61      0.00
   -2   13    1      0.19      0.00
   -1   13    1      1.86      0.00
    0   13    1     -0.32      0.00
    1   13    1     -1.85      0.00
    2   13    1      0.34      0.00
    3   13    1      2.45      0.00
    4   13    1      0.12      0.00
    5   13    1     -1.73      0.00
    6   13    1     -0.47      0.00
    7   13    1      1.69      0.00
    8   13    1      0.27      0.00
    9   13    1     -0.80      0.00
   10   13    1     -0.68      0.00
   11   13    1     -0.05      0.00
   12   13    1      1.05      0.00
   13   13    1     -0.28      0.00
   14   13    1     -0.37      0.00
  -14   14    1     -0.08      0.00
  -13   14    1     -0.14      0.00
  -12   14    1     -0.54      0.00
  -11   14    1      1.13      0.00
  -10   14    1      0.57      0.00
   -9   14    1     -0.75      0.00
   -8   14    1      0.06      0.00
   -7   14    1     -0.02      0.00
   -6   14    1      0.67      0.00
   -5   14    1      0.15      0.00
   -4   14    1     -0.77      0.00
   -3   14    1      0.47      0.00
   -2   14    1      0.59      0.00
   -1   14    1     -0.30      0.00
    0   14    1      0.07      0.00
    1   14    1      0.71      0.00
    2   14    1      0.58      0.00
    3   14    1     -0.90      0.00
    4   14    1     -0.88      0.00
    5   14    1      0.63      0.00
    6   14    1      0.74      0.00
    7   14    1     -0.21      0.00
    8   14    1     -1.11      0.00
    9   14    1     -0.56      0.00
   10   14    1      0.22      0.00
   11   14    1      1.44      0.00
   12   14    1     -0.21      0.00
   13   14    1     -1.29      0.00
  -13   15    1      0.26      0.00
  -12   15    1      0.65      0.00
  -11   15    1      0.27      0.00
  -10   15    1     -0.79      0.00
   -9   15    1      0.32      0.00
   -8   15    1      0.27      0.00
   -7   15    1     -0.24      0.00
   -6   15    1      0.44      0.00
   -5   15    1     -0.13      0.00
   -4   15    1      0.36      0.00
   -3   15    1     -0.06      0.00
   -2   15    1     -0.48      0.00
   -1   15    1      0.92      0.00
    0   15    1      0.41      0.00
    1   15    1     -1.21      0.00
    2   15    1     -1.27      0.00
    3   15    1      0.03      0.00
    4   15    1      1.43      0.00
    5   15    1     -0.03      0.00
    6   15    1     -1.28      0.00
    7   15    1     -0.52      0.00
    8   15    1      0.26      0.00
    9   15    1      0.40      0.00
   10   15    1      0.77      0.00
   11   15    1     -0.03      0.00
   12   15    1     -1.45      0.00
  -12   16    1     -0.25      0.00
  -11   16    1     -0.35      0.00
  -10   16    1      0.19      0.00
   -9   16    1      0.37      0.00
   -8   16    1     -0.50      0.00
   -7   16    1      0.04      0.00
   -6   16    1      0.27      0.00
   -5   16    1     -0.08      0.00
   -4   16    1     -0.12      0.00
   -3   16    1     -0.90      0.00
   -2   16    1      0.49      0.00
   -1   16    1      0.28      0.00
    0   16    1     -1.37      0.00
    1   16    1     -1.03      0.00
    2   16    1      0.64      0.00
    3   16    1      1.45      0.00
    4   16    1      0.08      0.00
    5   16    1     -1.52      0.00
    6   16    1     -0.15      0.00
    7   16    1      1.04      0.00
    8   16    1      0.36      0.00
    9   16    1     -0.09      0.00
   10   16    1      0.19      0.00
   11   16    1     -0.57      0.00
   12   16    1      0.28      0.00
  -11   17    1      0.09      0.00
  -10   17    1      0.06      0.00
   -9   17    1     -0.21      0.00
   -8   17    1     -0.53      0.00
   -7   17    1      0.32      0.00
   -6   17    1     -0.07      0.00
   -5   17    1     -0.20      0.00
   -4   17    1     -0.73      0.00
   -3   17    1     -0.12      0.00
   -2   17    1      0.80      0.00
   -1   17    1     -0.31      0.00
    0   17    1     -0.67      0.00
    1   17    1      0.43      0.00
    2   17    1      1.37      0.00
    3   17    1      0.43      0.00
    4   17    1     -0.87      0.00
    5   17    1     -0.59      0.00
    6   17    1      0.96      0.00
    7   17    1      0.46      0.00
    8   17    1     -0.33      0.00
    9   17    1      0.13      0.00
   10   17    1      0.22      0.00
   11   17    1     -0.21      0.00
  -10   18    1      0.13      0.00
   -9   18    1     -0.50      0.00
   -8   18    1      0.04      0.00
   -7   18    1      0.54      0.00
   -6   18    1     -0.35      0.00
   -5   18    1     -0.13      0.00
   -4   18    1     -0.09      0.00
   -3   18    1      1.10      0.00
   -2   18    1      0.43      0.00
   -1   18    1     -0.62      0.00
    0   18    1     -0.25      0.00
    1   18    1      1.29      0.00
    2   18    1      0.55      0.00
    3   18    1     -0.58      0.00
    4   18    1     -1.08      0.00
    5   18    1      0.13      0.00
    6   18    1      0.93      0.00
    7   18    1     -0.13      0.00
    8   18    1     -0.27      0.00
    9   18    1      0.16      0.00
   10   18    1     -0.41      0.00
   -9   19    1     -0.18      0.00
   -8   19    1      0.79      0.00
   -7   19    1     -0.25      0.00
   -6   19    1     -0.06      0.00
   -5   19    1      0.35      0.00
   -4   19    1      0.63      0.00
   -3   19    1      0.34      0.00
   -2   19    1     -0.85      0.00
   -1   19    1     -0.55      0.00
    0   19    1      0.81      0.00
    1   19    1      0.51      0.00
    2   19    1     -0.79      0.00
    3   19    1     -0.92      0.00
    4   19    1     -0.51      0.00
    5   19    1      1.33      0.00
    6   19    1      0.15      0.00
    7   19    1     -0.81      0.00
    8   19    1     -0.12      0.00
    9   19    1     -0.09      0.00
   -8   20    1     -0.11      0.00
   -7   20    1     -0.29      0.00
   -6   20    1      0.54      0.00
   -5   20    1      0.06      0.00
   -4   20    1     -0.04      0.00
   -3   20    1     -0.96      0.00
   -2   20    1     -0.43      0.00
   -1   20    1      0.36      0.00
    0   20    1      0.45      0.00
    1   20    1     -0.57      0.00
    2   20    1     -0.44      0.00
    3   20    1     -0.56      0.00
    4   20    1      1.19      0.00
    5   20    1      0.57      0.00
    6   20    1     -1.22      0.00
    7   20    1      0.00      0.00
    8   20    1      0.40      0.00
   -6   21    1     -0.13      0.00
   -5   21    1     -0.22      0.00
   -4   21    1     -0.64      0.00
   -3   21    1     -0.37      0.00
   -2   21    1      0.44      0.00
   -1   21    1      0.47      0.00
    0   21    1      0.10      0.00
    1   21    1     -0.21      0.00
    2   21    1     -0.38      0.00
    3   21    1      0.62      0.00
    4   21    1      1.02      0.00
    5   21    1     -1.30      0.00
    6   21    1      0.09      0.00
   -4   22    1     -0.39      0.00
   -3   22    1      0.58      0.00
   -2   22    1      0.55      0.00
   -1   22    1      0.46      0.00
    0   22    1     -0.27      0.00
    1   22    1     -0.38      0.00
    2   22    1      0.07      0.00
    3   22    1      0.98      0.00
  -17    0    2      0.29      0.00
  -16    0    2     -0.59      0.00
  -15    0    2     -0.09      0.00
  -14    0    2      1.21      0.00
  -13    0    2     -0.06      0.00
  -12    0    2     -1.26      0.00
  -11    0    2      0.83      0.00
  -10    0    2      2.55      0.00
   -9    0    2     -2.03      0.00
   -8    0    2     -6.50      0.00
   -7    0    2      4.85      0.00
   -6    0    2     12.44      0.00
   -5    0    2    -12.05      0.00
   -4    0    2    -19.18      0.00
   -3    0    2     26.81      0.00
   -2    0    2     23.52      0.00
   -1    0    2    -35.87      0.00
    0    0    2    -32.88      0.00
    1    0    2     26.76      0.00
    2    0    2     35.65      0.00
    3    0    2    -14.19      0.00
    4    0    2    -24.93      0.00
    5    0    2      7.30      0.00
    6    0    2     14.85      0.00
    7    0    2     -4.80      0.00
    8    0    2     -7.87      0.00
    9    0    2      3.05      0.00
   10    0    2      4.06      0.00
   11    0    2     -1.94      0.00
   12    0    2     -1.74      0.00
   13    0    2      1.12      0.00
   14    0    2      1.66      0.00
   15    0    2      0.37      0.00
   16    0    2     -0.47      0.00
  -17    1    2     -0.09      0.00
  -16    1    2     -0.33      0.00
  -15    1    2      0.72      0.00
  -14    1    2     -0.04      0.00
  -13    1    2     -0.92      0.00
  -12    1    2      0.32      0.00
  -11    1    2      0.94      0.00
  -10    1    2     -1.56      0.00
   -9    1    2     -2.54      0.00
   -8    1    2      2.87      0.00
   -7    1    2      6.06      0.00
   -6    1    2     -7.09      0.00
   -5    1    2    -10.15      0.00
   -4    1    2     16.78      0.00
   -3    1    2     13.21      0.00
   -2    1    2    -30.84      0.00
   -1    1    2    -17.12      0.00
    0    1    2     29.25      0.00
    1    1    2     26.62      0.00
    2    1    2    -17.44      0.00
    3    1    2    -22.35      0.00
    4    1    2      7.57      0.00
    5    1    2     14.51      0.00
    6    1    2     -4.76      0.00
    7    1    2     -7.60      0.00
    8    1    2      2.81      0.00
    9    1    2      4.60      0.00
   10    1    2     -2.08      0.00
   11    1    2     -1.68      0.00
   12    1    2      1.19      0.00
   13    1    2      1.36      0.00
   14    1    2     -0.43      0.00
   15    1    2     -0.98      0.00
   16    1    2     -0.52      0.00
  -17    2    2     -0.35      0.00
  -16    2    2     -0.03      0.00
  -15    2    2      0.04      0.00
  -14    2    2     -0.30      0.00
  -13    2    2      0.06      0.00
  -12    2    2     -0.11      0.00
  -11    2    2     -0.94      0.00
  -10    2    2      0.95      0.00
   -9    2    2      2.03      0.00
   -8    2    2     -1.17      0.00
   -7    2    2     -3.32      0.00
   -6    2    2      1.79      0.00
   -5    2    2      7.79      0.00
   -4    2    2     -3.66      0.00
   -3    2    2    -18.24      0.00
   -2    2    2      6.55      0.00
   -1    2    2     24.01      0.00
    0    2    2     -0.59      0.00
    1    2    2    -15.90      0.00
    2    2    2     -5.22      0.00
    3    2    2      5.97      0.00
    4    2    2      3.21      0.00
    5    2    2     -1.91      0.00
    6    2    2     -1.70      0.00
    7    2    2      1.33      0.00
    8    2    2      1.19      0.00
    9    2    2     -1.01      0.00
   10    2    2     -0.76      0.00
   11    2    2      0.67      0.00
   12    2    2      0.13      0.00
   13    2    2     -0.62      0.00
   14    2    2     -0.81      0.00
   15    2    2     -0.08      0.00
   16    2    2      0.14      0.00
  -17    3    2     -0.22      0.00
  -16    3    2      0.16      0.00
  -15    3    2      0.22      0.00
  -14    3    2      0.12      0.00
  -13    3    2     -0.33      0.00
  -12    3    2     -0.04      0.00
  -11    3    2      1.79      0.00
  -10    3    2      1.25      0.00
   -9    3    2     -4.31      0.00
   -8    3    2     -1.33      0.00
   -7    3    2      7.43      0.00
   -6    3    2      2.08      0.00
   -5    3    2    -12.93      0.00
   -4    3    2     -6.52      0.00
   -3    3    2     20.14      0.00
   -2    3    2     13.73      0.00
   -1    3    2    -22.81      0.00
    0    3    2    -11.56      0.00
    1    3    2     14.73      0.00
    2    3    2      3.98      0.00
    3    3    2    -10.56      0.00
    4    3    2      1.14      0.00
    5    3    2      7.09      0.00
    6    3    2     -0.75      0.00
    7    3    2     -4.34      0.00
    8    3    2      0.54      0.00
    9    3    2      1.38      0.00
   10    3    2      0.10      0.00
   11    3    2     -1.17      0.00
   12    3    2      0.01      0.00
   13    3    2     -0.12      0.00
   14    3    2      0.34      0.00
   15    3    2      0.59      0.00
   16    3    2      0.04      0.00
  -17    4    2      0.22      0.00
  -16    4    2      0.09      0.00
  -15    4    2      0.29      0.00
  -14    4    2     -0.31      0.00
  -13    4    2      0.27      0.00
  -12    4    2      0.91      0.00
  -11    4    2     -0.06      0.00
  -10    4    2     -3.44      0.00
   -9    4    2     -0.48      0.00
   -8    4    2      6.56      0.00
   -7    4    2     -0.69      0.00
   -6    4    2    -11.15      0.00
   -5    4    2      0.26      0.00
   -4    4    2     18.13      0.00
   -3    4    2      3.89      0.00
   -2    4    2    -24.79      0.00
   -1    4    2     -6.17      0.00
    0    4    2     22.06      0.00
    1    4    2      2.79      0.00
    2    4    2    -15.40      0.00
    3    4    2      1.56      0.00
    4    4    2     11.02      0.00
    5    4    2     -1.93      0.00
    6    4    2     -7.11      0.00
    7    4    2      1.10      0.00
    8    4    2      3.24      0.00
    9    4    2     -0.19      0.00
   10    4    2     -1.57      0.00
   11    4    2      0.19      0.00
   12    4    2      0.55      0.00
   13    4    2      0.19      0.00
   14    4    2      0.81      0.00
   15    4    2     -0.12      0.00
   16    4    2     -0.69      0.00
  -17    5    2     -0.45      0.00
  -16    5    2      0.00      0.00
  -15    5    2     -0.02      0.00
  -14    5    2     -0.10      0.00
  -13    5    2      0.13      0.00
  -12    5    2     -0.87      0.00
  -11    5    2     -1.15      0.00
  -10    5    2      0.24      0.00
   -9    5    2      3.21      0.00
   -8    5    2     -1.10      0.00
   -7    5    2     -4.86      0.00
   -6    5    2      2.72      0.00
   -5    5    2      8.05      0.00
   -4    5    2     -1.58      0.00
   -3    5    2    -12.54      0.00
   -2    5    2     -1.35      0.00
   -1    5    2     13.82      0.00
    0    5    2      1.97      0.00
    1    5    2     -9.09      0.00
    2    5    2     -0.32      0.00
    3    5    2      6.03      0.00
    4    5    2     -1.12      0.00
    5    5    2     -4.10      0.00
    6    5    2      0.27      0.00
    7    5    2      2.37      0.00
    8    5    2      0.05      0.00
    9    5    2     -0.51      0.00
   10    5    2     -0.59      0.00
   11    5    2      0.52      0.00
   12    5    2      0.04      0.00
   13    5    2      0.80      0.00
   14    5    2     -0.44      0.00
   15    5    2     -1.13      0.00
   16    5    2     -0.13      0.00
  -17    6    2     -0.54      0.00
  -16    6    2      0.56      0.00
  -15    6    2     -0.05      0.00
  -14    6    2     -0.12      0.00
  -13    6    2     -0.65      0.00
  -12    6    2      0.31      0.00
  -11    6    2      0.81      0.00
  -10    6    2      0.46      0.00
   -9    6    2     -0.44      0.00
   -8    6    2     -0.32      0.00
   -7    6    2      2.23      0.00
   -6    6    2     -0.13      0.00
   -5    6    2     -2.85      0.00
   -4    6    2     -0.54      0.00
   -3    6    2      1.00      0.00
   -2    6    2      1.39      0.00
   -1    6    2      0.94      0.00
    0    6    2      0.81      0.00
    1    6    2     -2.08      0.00
    2    6    2     -2.52      0.00
    3    6    2      0.83      0.00
    4    6    2      2.08      0.00
    5    6    2     -0.86      0.00
    6    6    2     -0.85      0.00
    7    6    2      0.67      0.00
    8    6    2      1.35      0.00
    9    6    2     -1.23      0.00
   10    6    2     -0.48      0.00
   11    6    2      0.49      0.00
   12    6    2      0.63      0.00
   13    6    2     -0.45      0.00
   14    6    2     -1.00      0.00
   15    6    2      0.27      0.00
   16    6    2      0.71      0.00
  -17    7    2      0.80      0.00
  -16    7    2      0.57      0.00
  -15    7    2     -0.45      0.00
  -14    7    2     -0.32      0.00
  -13    7    2      0.47      0.00
  -12    7    2      0.95      0.00
  -11    7    2     -0.73      0.00
  -10    7    2     -0.08      0.00
   -9    7    2      1.10      0.00
   -8    7    2      0.56      0.00
   -7    7    2     -2.79      0.00
   -6    7    2     -1.86      0.00
   -5    7    2      3.91      0.00
   -4    7    2      0.97      0.00
   -3    7    2     -4.33      0.00
   -2    7    2      0.45      0.00
   -1    7    2      5.57      0.00
    0    7    2     -2.26      0.00
    1    7    2     -6.66      0.00
    2    7    2      2.25      0.00
    3    7    2      5.55      0.00
    4    7    2     -1.18      0.00
    5    7    2     -3.07      0.00
    6    7    2      0.92      0.00
    7    7    2      2.01      0.00
    8    7    2     -0.78      0.00
    9    7    2     -1.38      0.00
   10    7    2      0.87      0.00
   11    7    2      0.25      0.00
   12    7    2     -0.07      0.00
   13    7    2     -0.67      0.00
   14    7    2      0.56      0.00
   15    7    2      0.33      0.00
   16    7    2      0.04      0.00
  -16    8    2     -0.78      0.00
  -15    8    2     -0.38      0.00
  -14    8    2      0.34      0.00
  -13    8    2      0.74      0.00
  -12    8    2     -0.63      0.00
  -11    8    2     -0.45      0.00
  -10    8    2      0.82      0.00
   -9    8    2     -0.38      0.00
   -8    8    2     -1.95      0.00
   -7    8    2     -0.44      0.00
   -6    8    2      2.84      0.00
   -5    8    2      0.34      0.00
   -4    8    2     -2.86      0.00
   -3    8    2      0.68      0.00
   -2    8    2      3.28      0.00
   -1    8    2     -1.44      0.00
    0    8    2     -4.38      0.00
    1    8    2      2.32      0.00
    2    8    2      3.70      0.00
    3    8    2     -0.81      0.00
    4    8    2     -2.04      0.00
    5    8    2      0.34      0.00
    6    8    2      0.35      0.00
    7    8    2      0.30      0.00
    8    8    2     -0.61      0.00
    9    8    2      0.18      0.00
   10    8    2     -0.45      0.00
   11    8    2      0.33      0.00
   12    8    2      0.08      0.00
   13    8    2      0.05      0.00
   14    8    2      0.10      0.00
   15    8    2     -0.34      0.00
  -16    9    2     -0.23      0.00
  -15    9    2      0.50      0.00
  -14    9    2      0.25      0.00
  -13    9    2     -0.08      0.00
  -12    9    2     -0.93      0.00
  -11    9    2      0.20      0.00
  -10    9    2      0.01      0.00
   -9    9    2     -0.39      0.00
   -8    9    2      0.06      0.00
   -7    9    2      0.81      0.00
   -6    9    2      0.12      0.00
   -5    9    2      0.24      0.00
   -4    9    2      0.51      0.00
   -3    9    2     -1.24      0.00
   -2    9    2     -0.59      0.00
   -1    9    2      0.57      0.00
    0    9    2      1.20      0.00
    1    9    2     -0.44      0.00
    2    9    2     -0.46      0.00
    3    9    2      0.98      0.00
    4    9    2     -0.54      0.00
    5    9    2     -2.06      0.00
    6    9    2      1.02      0.00
    7    9    2      1.67      0.00
    8    9    2     -1.06      0.00
    9    9    2     -1.41      0.00
   10    9    2      0.68      0.00
   11    9    2      1.25      0.00
   12    9    2     -0.64      0.00
   13    9    2     -0.07      0.00
   14    9    2     -0.24      0.00
   15    9    2      0.01      0.00
  -16   10    2      0.50      0.00
  -15   10    2     -0.40      0.00
  -14   10    2     -0.01      0.00
  -13   10    2     -0.59      0.00
  -12   10    2     -0.28      0.00
  -11   10    2      0.91      0.00
  -10   10    2      0.41      0.00
   -9   10    2     -0.39      0.00
   -8   10    2     -0.30      0.00
   -7   10    2      0.45      0.00
   -6   10    2      1.30      0.00
   -5   10    2     -0.20      0.00
   -4   10    2     -3.14      0.00
   -3   10    2      0.23      0.00
   -2   10    2      3.57      0.00
   -1   10    2     -0.31      0.00
    0   10    2     -2.77      0.00
    1   10    2     -0.01      0.00
    2   10    2      2.88      0.00
    3   10    2     -0.96      0.00
    4   10    2     -2.95      0.00
    5   10    2      1.12      0.00
    6   10    2      3.13      0.00
    7   10    2     -1.59      0.00
    8   10    2     -2.16      0.00
    9   10    2      0.98      0.00
   10   10    2      1.93      0.00
   11   10    2     -0.62      0.00
   12   10    2     -0.62      0.00
   13   10    2      0.04      0.00
   14   10    2     -0.24      0.00
   15   10    2      0.25      0.00
  -15   11    2     -0.27      0.00
  -14   11    2      0.42      0.00
  -13   11    2     -0.24      0.00
  -12   11    2      1.11      0.00
  -11   11    2      0.28      0.00
  -10   11    2     -0.97      0.00
   -9   11    2     -0.45      0.00
   -8   11    2      0.99      0.00
   -7   11    2      0.69      0.00
   -6   11    2     -0.65      0.00
   -5   11    2     -2.11      0.00
   -4   11    2      0.84      0.00
   -3   11    2      2.96      0.00
   -2   11    2     -1.23      0.00
   -1   11    2     -2.25      0.00
    0   11    2      0.78      0.00
    1   11    2      1.92      0.00
    2   11    2     -0.90      0.00
    3   11    2     -1.81      0.00
    4   11    2      1.10      0.00
    5   11    2      2.11      0.00
    6   11    2     -1.30      0.00
    7   11    2     -1.95      0.00
    8   11    2      1.07      0.00
    9   11    2      1.53      0.00
   10   11    2     -0.22      0.00
   11   11    2     -1.00      0.00
   12   11    2     -0.23      0.00
   13   11    2     -0.20      0.00
   14   11    2      0.32      0.00
  -15   12    2      0.95      0.00
  -14   12    2      0.32      0.00
  -13   12    2      0.30      0.00
  -12   12    2     -0.25      0.00
  -11   12    2     -1.15      0.00
  -10   12    2      0.23      0.00
   -9   12    2      1.16      0.00
   -8   12    2     -0.14      0.00
   -7   12    2     -0.82      0.00
   -6   12    2     -0.41      0.00
   -5   12    2      0.63      0.00
   -4   12    2      0.76      0.00
   -3   12    2     -1.15      0.00
   -2   12    2     -0.24      0.00
   -1   12    2      1.17      0.00
    0   12    2     -0.59      0.00
    1   12    2     -0.82      0.00
    2   12    2      0.48      0.00
    3   12    2      1.09      0.00
    4   12    2     -0.33      0.00
    5   12    2     -1.15      0.00
    6   12    2     -0.45      0.00
    7   12    2      1.08      0.00
    8   12    2      0.55      0.00
    9   12    2     -0.21      0.00
   10   12    2     -0.57      0.00
   11   12    2     -0.57      0.00
   12   12    2      0.14      0.00
   13   12    2      0.54      0.00
   14   12    2      0.33      0.00
  -14   13    2     -0.50      0.00
  -13   13    2     -0.75      0.00
  -12   13    2     -0.71      0.00
  -11   13    2      1.02      0.00
  -10   13    2      0.83      0.00
   -9   13    2     -0.87      0.00
   -8   13    2     -0.92      0.00
   -7   13    2      0.64      0.00
   -6   13    2      0.05      0.00
   -5   13    2     -0.49      0.00
   -4   13    2     -0.38      0.00
   -3   13    2      1.36      0.00
   -2   13    2      0.66      0.00
   -1   13    2     -2.19      0.00
    0   13    2     -0.68      0.00
    1   13    2      2.41      0.00
    2   13    2      0.88      0.00
    3   13    2     -2.14      0.00
    4   13    2     -1.29      0.00
    5   13    2      1.38      0.00
    6   13    2      1.32      0.00
    7   13    2     -0.39      0.00
    8   13    2     -0.67      0.00
    9   13    2      0.17      0.00
   10   13    2     -0.20      0.00
   11   13    2      0.20      0.00
   12   13    2      0.50      0.00
   13   13    2      0.11      0.00
  -14   14    2     -0.79      0.00
  -13   14    2     -0.01      0.00
  -12   14    2      1.08      0.00
  -11   14    2      0.33      0.00
  -10   14    2     -1.24      0.00
   -9   14    2     -0.65      0.00
   -8   14    2      1.07      0.00
   -7   14    2      0.07      0.00
   -6   14    2     -0.60      0.00
   -5   14    2      0.43      0.00
   -4   14    2      1.37      0.00
   -3   14    2     -0.05      0.00
   -2   14    2     -2.15      0.00
   -1   14    2     -0.27      0.00
    0   14    2      2.53      0.00
    1   14    2      0.56      0.00
    2   14    2     -2.39      0.00
    3   14    2     -1.10      0.00
    4   14    2      2.02      0.00
    5   14    2      1.50      0.00
    6   14    2     -0.98      0.00
    7   14    2     -1.11      0.00
    8   14    2      0.44      0.00
    9   14    2      0.50      0.00
   10   14    2     -0.08      0.00
   11   14    2     -0.12      0.00
   12   14    2     -0.18      0.00
   13   14    2      0.06      0.00
  -13   15    2      0.62      0.00
  -12   15    2     -0.10      0.00
  -11   15    2     -0.78      0.00
  -10   15    2     -0.01      0.00
   -9   15    2      0.88      0.00
   -8   15    2      0.37      0.00
   -7   15    2     -0.58      0.00
   -6   15    2      0.62      0.00
   -5   15    2      0.41      0.00
   -4   15    2     -0.38      0.00
   -3   15    2     -1.28      0.00
   -2   15    2      0.07      0.00
   -1   15    2      1.15      0.00
    0   15    2      0.44      0.00
    1   15    2     -1.26      0.00
    2   15    2     -0.62      0.00
    3   15    2      1.15      0.00
    4   15    2      1.17      0.00
    5   15    2     -0.84      0.00
    6   15    2     -1.10      0.00
    7   15    2      0.26      0.00
    8   15    2      0.73      0.00
    9   15    2     -0.25      0.00
   10   15    2     -0.61      0.00
   11   15    2     -0.23      0.00
   12   15    2      0.47      0.00
  -12   16    2     -0.06      0.00
  -11   16    2      0.41      0.00
  -10   16    2      0.08      0.00
   -9   16    2      0.11      0.00
   -8   16    2     -0.41      0.00
   -7   16    2      0.22      0.00
   -6   16    2     -0.10      0.00
   -5   16    2     -0.51      0.00
   -4   16    2     -0.37      0.00
   -3   16    2      0.07      0.00
   -2   16    2      0.18      0.00
   -1   16    2      0.43      0.00
    0   16    2      0.25      0.00
    1   16    2     -0.45      0.00
    2   16    2     -0.19      0.00
    3   16    2      0.55      0.00
    4   16    2      0.05      0.00
    5   16    2     -0.67      0.00
    6   16    2     -0.10      0.00
    7   16    2      0.41      0.00
    8   16    2     -0.09      0.00
    9   16    2     -0.43      0.00
   10   16    2     -0.07      0.00
   11   16    2      0.55      0.00
  -11   17    2     -0.51      0.00
  -10   17    2     -0.37      0.00
   -9   17    2      0.18      0.00
   -8   17    2      0.00      0.00
   -7   17    2      0.10      0.00
   -6   17    2     -0.50      0.00
   -5   17    2      0.12      0.00
   -4   17    2      0.09      0.00
   -3   17    2      0.28      0.00
   -2   17    2      0.28      0.00
   -1   17    2      0.66      0.00
    0   17    2     -0.51      0.00
    1   17    2     -0.84      0.00
    2   17    2      0.12      0.00
    3   17    2      0.83      0.00
    4   17    2     -0.28      0.00
    5   17    2     -0.53      0.00
    6   17    2      0.01      0.00
    7   17    2      0.23      0.00
    8   17    2     -0.13      0.00
    9   17    2      0.08      0.00
   10   17    2      0.18      0.00
  -10   18    2      0.60      0.00
   -9   18    2      0.24      0.00
   -8   18    2      0.21      0.00
   -7   18    2     -0.32      0.00
   -6   18    2     -0.10      0.00
   -5   18    2      0.25      0.00
   -4   18    2      0.48      0.00
   -3   18    2     -0.04      0.00
   -2   18    2     -0.16      0.00
   -1   18    2     -0.27      0.00
    0   18    2     -0.52      0.00
    1   18    2     -0.07      0.00
    2   18    2      0.82      0.00
    3   18    2     -0.02      0.00
    4   18    2     -0.78      0.00
    5   18    2     -0.10      0.00
    6   18    2      0.51      0.00
    7   18    2     -0.03      0.00
    8   18    2      0.00      0.00
    9   18    2      0.16      0.00
   -9   19    2     -0.01      0.00
   -8   19    2     -0.25      0.00
   -7   19    2     -0.59      0.00
   -6   19    2      0.24      0.00
   -5   19    2      0.42      0.00
   -4   19    2     -0.25      0.00
   -3   19    2     -0.83      0.00
   -2   19    2      0.34      0.00
   -1   19    2      0.21      0.00
    0   19    2     -0.24      0.00
    1   19    2      0.29      0.00
    2   19    2      0.31      0.00
    3   19    2     -0.71      0.00
    4   19    2      0.03      0.00
    5   19    2      0.63      0.00
    6   19    2      0.10      0.00
    7   19    2     -0.27      0.00
    8   19    2      0.53      0.00
   -8   20    2     -0.60      0.00
   -7   20    2      0.11      0.00
   -6   20    2      0.51      0.00
   -5   20    2     -0.15      0.00
   -4   20    2     -0.64      0.00
   -3   20    2      0.80      0.00
   -2   20    2      0.58      0.00
   -1   20    2     -0.55      0.00
    0   20    2     -0.08      0.00
    1   20    2      0.52      0.00
    2   20    2     -0.50      0.00
    3   20    2      0.02      0.00
    4   20    2      0.61      0.00
    5   20    2      0.13      0.00
    6   20    2     -0.48      0.00
    7   20    2      0.39      0.00
   -6   21    2      0.06      0.00
   -5   21    2     -0.23      0.00
   -4   21    2      0.71      0.00
   -3   21    2      0.41      0.00
   -2   21    2     -0.99      0.00
   -1   21    2     -0.09      0.00
    0   21    2      0.40      0.00
    1   21    2     -0.33      0.00
    3   21    2      0.54      0.00
    4   21    2     -0.09      0.00
    5   21    2     -0.40      0.00
   -4   22    2      0.13      0.00
   -3   22    2     -1.18      0.00
   -2   22    2     -0.03      0.00
   -1   22    2      0.34      0.00
    0   22    2     -0.24      0.00
    1   22    2     -0.01      0.00
    3   22    2     -0.26      0.00
  -17    1    3     -0.03      0.00
  -16    1    3     -0.24      0.00
  -15    1    3     -0.28      0.00
  -14    1    3      0.14      0.00
  -13    1    3      0.32      0.00
  -12    1    3     -0.17      0.00
  -11    1    3     -1.31      0.00
  -10    1    3      0.60      0.00
   -9    1    3      2.93      0.00
   -8    1    3     -1.34      0.00
   -7    1    3     -4.90      0.00
   -6    1    3      3.08      0.00
   -5    1    3      7.59      0.00
   -4    1    3     -6.01      0.00
   -3    1    3    -10.32      0.00
   -2    1    3      8.41      0.00
   -1    1    3     14.17      0.00
    0    1    3     -7.57      0.00
    1    1    3    -16.22      0.00
    2    1    3      5.58      0.00
    3    1    3     13.17      0.00
    4    1    3     -4.05      0.00
    5    1    3     -8.32      0.00
    6    1    3      2.98      0.00
    7    1    3      4.22      0.00
    8    1    3     -2.03      0.00
    9    1    3     -1.70      0.00
   10    1    3      1.34      0.00
   11    1    3      0.58      0.00
   12    1    3     -0.44      0.00
   13    1    3     -0.47      0.00
   14    1    3     -0.51      0.00
   15    1    3     -0.13      0.00
   16    1    3      0.71      0.00
  -17    2    3     -0.33      0.00
  -16    2    3     -0.22      0.00
  -15    2    3      0.43      0.00
  -14    2    3      0.31      0.00
  -13    2    3     -0.22      0.00
  -12    2    3     -0.73      0.00
  -11    2    3      0.73      0.00
  -10    2    3      2.73      0.00
   -9    2    3     -1.58      0.00
   -8    2    3     -4.78      0.00
   -7    2    3      3.53      0.00
   -6    2    3      7.46      0.00
   -5    2    3     -7.06      0.00
   -4    2    3    -10.68      0.00
   -3    2    3     12.08      0.00
   -2    2    3     14.50      0.00
   -1    2    3    -12.92      0.00
    0    2    3    -20.28      0.00
    1    2    3      9.74      0.00
    2    2    3     19.45      0.00
    3    2    3     -6.50      0.00
    4    2    3    -13.70      0.00
    5    2    3      4.90      0.00
    6    2    3      7.48      0.00
    7    2    3     -3.32      0.00
    8    2    3     -3.47      0.00
    9    2    3      2.30      0.00
   10    2    3      0.94      0.00
   11    2    3     -1.29      0.00
   12    2    3     -0.57      0.00
   13    2    3     -0.10      0.00
   14    2    3      0.22      0.00
   15    2    3      1.04      0.00
   16    2    3      0.79      0.00
  -17    3    3      0.17      0.00
  -16    3    3      0.65      0.00
  -15    3    3      0.34      0.00
  -14    3    3     -0.47      0.00
  -13    3    3      0.14      0.00
  -12    3    3      0.43      0.00
  -11    3    3      0.83      0.00
  -10    3    3     -1.34      0.00
   -9    3    3     -2.04      0.00
   -8    3    3      2.57      0.00
   -7    3    3      2.57      0.00
   -6    3    3     -5.27      0.00
   -5    3    3     -3.54      0.00
   -4    3    3      9.66      0.00
   -3    3    3      4.43      0.00
   -2    3    3    -13.25      0.00
   -1    3    3     -8.69      0.00
    0    3    3     10.57      0.00
    1    3    3     12.38      0.00
    2    3    3     -6.27      0.00
    3    3    3     -9.69      0.00
    4    3    3      4.10      0.00
    5    3    3      5.56      0.00
    6    3    3     -3.06      0.00
    7    3    3     -2.58      0.00
    8    3    3      1.90      0.00
    9    3    3      0.60      0.00
   10    3    3     -1.35      0.00
   11    3    3      0.33      0.00
   12    3    3      0.53      0.00
   13    3    3      0.26      0.00
   14    3    3      0.61      0.00
   15    3    3      0.69      0.00
   16    3    3     -0.76      0.00
  -17    4    3      0.66      0.00
  -16    4    3      0.17      0.00
  -15    4    3     -0.92      0.00
  -14    4    3      0.20      0.00
  -13    4    3      0.24      0.00
  -12    4    3     -0.79      0.00
  -11    4    3     -0.53      0.00
  -10    4    3      0.42      0.00
   -9    4    3      1.22      0.00
   -8    4    3     -1.53      0.00
   -7    4    3     -2.71      0.00
   -6    4    3      3.66      0.00
   -5    4    3      4.95      0.00
   -4    4    3     -5.75      0.00
   -3    4    3     -8.64      0.00
   -2    4    3      6.49      0.00
   -1    4    3      8.35      0.00
    0    4    3     -2.22      0.00
    1    4    3     -4.24      0.00
    2    4    3      0.81      0.00
    3    4    3      1.35      0.00
    4    4    3     -1.14      0.00
    5    4    3     -1.42      0.00
    6    4    3      1.50      0.00
    7    4    3      0.75      0.00
    8    4    3     -1.05      0.00
    9    4    3     -0.50      0.00
   10    4    3      1.70      0.00
   11    4    3      0.47      0.00
   12    4    3     -0.79      0.00
   13    4    3      0.05      0.00
   14    4    3      0.18      0.00
   15    4    3     -0.43      0.00
   16    4    3     -1.12      0.00
  -17    5    3      0.06      0.00
  -16    5    3     -1.25      0.00
  -15    5    3     -0.13      0.00
  -14    5    3      0.70      0.00
  -13    5    3     -1.05      0.00
  -12    5    3      0.25      0.00
  -11    5    3      1.55      0.00
  -10    5    3      0.02      0.00
   -9    5    3     -2.71      0.00
   -8    5    3     -0.25      0.00
   -7    5    3      5.69      0.00
   -6    5    3      1.29      0.00
   -5    5    3     -9.61      0.00
   -4    5    3     -2.69      0.00
   -3    5    3     13.09      0.00
   -2    5    3      4.26      0.00
   -1    5    3    -12.37      0.00
    0    5    3     -1.93      0.00
    1    5    3      8.80      0.00
    2    5    3     -0.95      0.00
    3    5    3     -6.76      0.00
    4    5    3      0.73      0.00
    5    5    3      5.02      0.00
    6    5    3      0.14      0.00
    7    5    3     -3.03      0.00
    8    5    3      0.13      0.00
    9    5    3      2.34      0.00
   10    5    3      0.09      0.00
   11    5    3     -2.03      0.00
   12    5    3     -0.21      0.00
   13    5    3      0.37      0.00
   14    5    3     -0.16      0.00
   15    5    3     -0.36      0.00
   16    5    3     -0.04      0.00
  -17    6    3     -1.02      0.00
  -16    6    3     -0.26      0.00
  -15    6    3      1.39      0.00
  -14    6    3     -0.33      0.00
  -13    6    3     -0.02      0.00
  -12    6    3      1.38      0.00
  -11    6    3     -0.68      0.00
  -10    6    3     -2.11      0.00
   -9    6    3      1.00      0.00
   -8    6    3      3.77      0.00
   -7    6    3     -1.06      0.00
   -6    6    3     -6.89      0.00
   -5    6    3      0.83      0.00
   -4    6    3     10.34      0.00
   -3    6    3      0.14      0.00
   -2    6    3    -11.95      0.00
   -1    6    3     -0.14      0.00
    0    6    3      9.21      0.00
    1    6    3     -1.54      0.00
    2    6    3     -6.41      0.00
    3    6    3      2.00      0.00
    4    6    3      4.31      0.00
    5    6    3      0.10      0.00
    6    6    3     -2.95      0.00
    7    6    3     -0.38      0.00
    8    6    3      1.48      0.00
    9    6    3      0.30      0.00
   10    6    3     -1.75      0.00
   11    6    3     -0.48      0.00
   12    6    3      0.82      0.00
   13    6    3      0.10      0.00
   14    6    3      0.22      0.00
   15    6    3     -0.04      0.00
  -17    7    3     -0.30      0.00
  -16    7    3      1.40      0.00
  -15    7    3      0.19      0.00
  -14    7    3     -0.91      0.00
  -13    7    3      0.36      0.00
  -12    7    3     -0.47      0.00
  -11    7    3     -0.94      0.00
  -10    7    3      0.85      0.00
   -9    7    3      1.56      0.00
   -8    7    3     -1.85      0.00
   -7    7    3     -2.16      0.00
   -6    7    3      1.81      0.00
   -5    7    3      4.15      0.00
   -4    7    3     -1.71      0.00
   -3    7    3     -5.40      0.00
   -2    7    3      0.92      0.00
   -1    7    3      4.23      0.00
    0    7    3     -0.99      0.00
    1    7    3     -1.63      0.00
    2    7    3      1.68      0.00
    3    7    3      0.25      0.00
    4    7    3     -0.16      0.00
    5    7    3     -0.32      0.00
    6    7    3     -1.36      0.00
    7    7    3     -0.28      0.00
    8    7    3      1.08      0.00
    9    7    3      0.09      0.00
   10    7    3     -0.89      0.00
   11    7    3      0.17      0.00
   12    7    3      0.64      0.00
   13    7    3      0.32      0.00
   14    7    3      0.03      0.00
   15    7    3     -0.30      0.00
  -16    8    3      0.13      0.00
  -15    8    3     -1.22      0.00
  -14    8    3     -0.41      0.00
  -13    8    3      0.29      0.00
  -12    8    3      0.35      0.00
  -11    8    3      0.33      0.00
  -10    8    3      0.15      0.00
   -9    8    3     -0.94      0.00
   -8    8    3      0.26      0.00
   -7    8    3      1.74      0.00
   -6    8    3     -0.41      0.00
   -5    8    3     -1.18      0.00
   -4    8    3     -0.23      0.00
   -3    8    3      0.83      0.00
   -2    8    3     -0.56      0.00
   -1    8    3     -0.19      0.00
    0    8    3      2.36      0.00
    1    8    3      0.46      0.00
    2    8    3     -3.17      0.00
    3    8    3     -0.56      0.00
    4    8    3      2.18      0.00
    5    8    3     -1.33      0.00
    6    8    3     -1.34      0.00
    7    8    3      1.61      0.00
    8    8    3      1.43      0.00
    9    8    3     -1.02      0.00
   10    8    3     -0.97      0.00
   11    8    3      0.91      0.00
   12    8    3      0.76      0.00
   13    8    3     -0.18      0.00
   14    8    3     -0.43      0.00
   15    8    3      0.07      0.00
  -16    9    3     -0.80      0.00
  -15    9    3     -0.13      0.00
  -14    9    3      0.68      0.00
  -13    9    3      1.03      0.00
  -12    9    3      0.04      0.00
  -11    9    3     -0.88      0.00
  -10    9    3      0.01      0.00
   -9    9    3      0.53      0.00
   -8    9    3      0.98      0.00
   -7    9    3     -1.52      0.00
   -6    9    3     -0.53      0.00
   -5    9    3      1.11      0.00
   -4    9    3     -0.26      0.00
   -3    9    3     -1.45      0.00
   -2    9    3      0.52      0.00
   -1    9    3      2.66      0.00
    0    9    3     -0.60      0.00
    1    9    3     -3.27      0.00
    2    9    3     -0.51      0.00
    3    9    3      2.18      0.00
    4    9    3     -0.11      0.00
    5    9    3     -0.52      0.00
    6    9    3      1.18      0.00
    7    9    3      0.74      0.00
    8    9    3     -0.67      0.00
    9    9    3     -0.73      0.00
   10    9    3      0.32      0.00
   11    9    3      1.05      0.00
   12    9    3     -0.31      0.00
   13    9    3     -0.53      0.00
   14    9    3     -0.11      0.00
   15    9    3      0.02      0.00
  -16   10    3      0.42      0.00
  -15   10    3      0.55      0.00
  -14   10    3      0.40      0.00
  -13   10    3     -0.11      0.00
  -12   10    3     -1.18      0.00
  -11   10    3     -0.03      0.00
  -10   10    3      0.54      0.00
   -9   10    3      0.14      0.00
   -8   10    3     -0.60      0.00
   -7   10    3     -0.68      0.00
   -6   10    3      0.45      0.00
   -5   10    3     -0.69      0.00
   -4   10    3      0.48      0.00
   -3   10    3      0.94      0.00
   -2   10    3      0.20      0.00
   -1   10    3     -0.95      0.00
    0   10    3     -0.67      0.00
    1   10    3     -0.06      0.00
    2   10    3      0.13      0.00
    3   10    3      1.00      0.00
    4   10    3      1.56      0.00
    5   10    3      0.03      0.00
    6   10    3     -1.43      0.00
    7   10    3     -0.15      0.00
    8   10    3      0.89      0.00
    9   10    3     -0.53      0.00
   10   10    3     -0.04      0.00
   11   10    3      0.15      0.00
   12   10    3     -0.50      0.00
   13   10    3     -0.21      0.00
   14   10    3      0.05      0.00
  -15   11    3     -0.62      0.00
  -14   11    3     -0.18      0.00
  -13   11    3     -0.47      0.00
  -12   11    3     -0.18      0.00
  -11   11    3      0.49      0.00
  -10   11    3      0.04      0.00
   -9   11    3      0.10      0.00
   -8   11    3     -0.78      0.00
   -7   11    3     -0.28      0.00
   -6   11    3      0.33      0.00
   -5   11    3      1.81      0.00
   -4   11    3      0.60      0.00
   -3   11    3     -2.24      0.00
   -2   11    3     -0.55      0.00
   -1   11    3      1.93      0.00
    0   11    3      0.26      0.00
    1   11    3     -1.98      0.00
    2   11    3      1.15      0.00
    3   11    3      3.00      0.00
    4   11    3     -0.91      0.00
    5   11    3     -3.34      0.00
    6   11    3      0.24      0.00
    7   11    3      2.20      0.00
    8   11    3     -0.75      0.00
    9   11    3     -1.68      0.00
   10   11    3      0.69      0.00
   11   11    3      0.13      0.00
   12   11    3     -0.17      0.00
   13   11    3      0.06      0.00
   14   11    3      0.03      0.00
  -15   12    3     -0.11      0.00
  -14   12    3      0.36      0.00
  -13   12    3      0.05      0.00
  -12   12    3      0.21      0.00
  -11   12    3      0.14      0.00
  -10   12    3      0.15      0.00
   -9   12    3     -0.55      0.00
   -8   12    3     -0.39      0.00
   -7   12    3      1.35      0.00
   -6   12    3      1.40      0.00
   -5   12    3     -0.52      0.00
   -4   12    3     -2.58      0.00
   -3   12    3      0.25      0.00
   -2   12    3      2.52      0.00
   -1   12    3      0.13      0.00
    0   12    3     -2.56      0.00
    1   12    3      0.61      0.00
    2   12    3      2.70      0.00
    3   12    3     -1.11      0.00
    4   12    3     -3.47      0.00
    5   12    3      0.37      0.00
    6   12    3      2.42      0.00
    7   12    3     -0.44      0.00
    8   12    3     -1.99      0.00
    9   12    3      0.70      0.00
   10   12    3      0.95      0.00
   11   12    3      0.02      0.00
   12   12    3      0.00      0.00
   13   12    3     -0.05      0.00
  -14   13    3      0.10      0.00
  -13   13    3      0.24      0.00
  -12   13    3     -0.13      0.00
  -11   13    3     -0.20      0.00
  -10   13    3     -0.29      0.00
   -9   13    3      0.06      0.00
   -8   13    3      1.27      0.00
   -7   13    3      0.37      0.00
   -6   13    3     -1.41      0.00
   -5   13    3     -1.25      0.00
   -4   13    3      0.87      0.00
   -3   13    3      1.25      0.00
   -2   13    3     -0.30      0.00
   -1   13    3     -1.30      0.00
    0   13    3     -0.07      0.00
    1   13    3      1.13      0.00
    2   13    3     -0.71      0.00
    3   13    3     -1.60      0.00
    4   13    3      0.32      0.00
    5   13    3      1.67      0.00
    6   13    3     -0.18      0.00
    7   13    3     -1.02      0.00
    8   13    3      0.53      0.00
    9   13    3      0.92      0.00
   10   13    3      0.07      0.00
   11   13    3     -0.06      0.00
   12   13    3     -0.35      0.00
   13   13    3      0.07      0.00
  -14   14    3      0.48      0.00
  -13   14    3     -0.21      0.00
  -12   14    3     -0.87      0.00
  -11   14    3     -0.04      0.00
  -10   14    3      0.76      0.00
   -9   14    3      0.79      0.00
   -8   14    3     -0.52      0.00
   -7   14    3     -1.32      0.00
   -6   14    3      0.00      0.00
   -5   14    3      0.91      0.00
   -4   14    3     -0.23      0.00
   -3   14    3     -0.52      0.00
   -2   14    3      0.53      0.00
   -1   14    3     -0.39      0.00
    0   14    3     -0.61      0.00
    1   14    3      0.00      0.00
    2   14    3      0.82      0.00
    3   14    3      0.29      0.00
    4   14    3      0.02      0.00
    5   14    3     -0.10      0.00
    6   14    3     -0.04      0.00
    7   14    3      0.60      0.00
    8   14    3      0.19      0.00
    9   14    3     -0.40      0.00
   10   14    3      0.04      0.00
   11   14    3     -0.26      0.00
   12   14    3     -0.02      0.00
  -13   15    3     -1.14      0.00
  -12   15    3      0.05      0.00
  -11   15    3      1.30      0.00
  -10   15    3      0.55      0.00
   -9   15    3     -1.16      0.00
   -8   15    3     -0.88      0.00
   -7   15    3      0.53      0.00
   -6   15    3      0.55      0.00
   -5   15    3     -0.76      0.00
   -4   15    3     -0.30      0.00
   -3   15    3      1.39      0.00
   -2   15    3     -0.16      0.00
   -1   15    3     -1.52      0.00
    0   15    3      0.51      0.00
    1   15    3      1.98      0.00
    2   15    3      0.28      0.00
    3   15    3     -1.70      0.00
    4   15    3     -0.25      0.00
    5   15    3      0.74      0.00
    6   15    3      0.68      0.00
    7   15    3     -0.29      0.00
    8   15    3     -1.00      0.00
    9   15    3      0.24      0.00
   10   15    3      0.41      0.00
   11   15    3     -0.16      0.00
   12   15    3     -0.25      0.00
  -12   16    3      1.17      0.00
  -11   16    3      0.40      0.00
  -10   16    3     -1.24      0.00
   -9   16    3     -0.75      0.00
   -8   16    3      0.67      0.00
   -7   16    3      0.26      0.00
   -6   16    3     -0.44      0.00
   -5   16    3      0.05      0.00
   -4   16    3      1.13      0.00
   -3   16    3      0.21      0.00
   -2   16    3     -1.32      0.00
   -1   16    3      0.25      0.00
    0   16    3      1.62      0.00
    1   16    3      0.22      0.00
    2   16    3     -2.06      0.00
    3   16    3     -0.67      0.00
    4   16    3      1.44      0.00
    5   16    3      0.72      0.00
    6   16    3     -0.44      0.00
    7   16    3     -1.10      0.00
    8   16    3      0.22      0.00
    9   16    3      0.86      0.00
   10   16    3     -0.32      0.00
   11   16    3     -0.64      0.00
  -11   17    3     -0.72      0.00
  -10   17    3     -0.64      0.00
   -9   17    3      0.48      0.00
   -8   17    3      0.28      0.00
   -7   17    3      0.07      0.00
   -6   17    3      0.18      0.00
   -5   17    3      0.48      0.00
   -4   17    3      0.34      0.00
   -3   17    3     -0.69      0.00
   -2   17    3     -0.58      0.00
   -1   17    3      0.80      0.00
    0   17    3      0.32      0.00
    1   17    3     -1.14      0.00
    2   17    3     -1.05      0.00
    3   17    3      1.44      0.00
    4   17    3      1.00      0.00
    5   17    3     -0.73      0.00
    6   17    3     -0.91      0.00
    7   17    3      0.06      0.00
    8   17    3      0.58      0.00
    9   17    3     -0.30      0.00
   10   17    3     -0.43      0.00
  -10   18    3      0.07      0.00
   -9   18    3      0.33      0.00
   -8   18    3      0.37      0.00
   -7   18    3      0.19      0.00
   -6   18    3     -0.13      0.00
   -5   18    3      0.24      0.00
   -4   18    3     -0.32      0.00
   -3   18    3     -1.11      0.00
   -2   18    3      0.37      0.00
   -1   18    3      0.75      0.00
    0   18    3     -0.46      0.00
    1   18    3     -1.01      0.00
    2   18    3      0.67      0.00
    3   18    3      1.40      0.00
    4   18    3     -0.94      0.00
    5   18    3     -0.96      0.00
    6   18    3      0.17      0.00
    7   18    3      0.26      0.00
    8   18    3     -0.12      0.00
    9   18    3      0.34      0.00
   -9   19    3      0.38      0.00
   -8   19    3      0.16      0.00
   -7   19    3     -0.43      0.00
   -6   19    3      0.00      0.00
   -5   19    3     -0.18      0.00
   -4   19    3     -0.97      0.00
   -3   19    3      0.31      0.00
   -2   19    3      1.13      0.00
   -1   19    3     -0.62      0.00
    0   19    3     -0.69      0.00
    1   19    3      0.20      0.00
    2   19    3      1.38      0.00
    3   19    3     -0.60      0.00
    4   19    3     -1.15      0.00
    5   19    3      0.48      0.00
    6   19    3      0.44      0.00
    7   19    3     -0.01      0.00
    8   19    3      0.67      0.00
   -8   20    3     -0.28      0.00
   -7   20    3     -0.21      0.00
   -6   20    3     -0.08      0.00
   -5   20    3     -0.49      0.00
   -4   20    3      0.27      0.00
   -3   20    3      1.00      0.00
   -2   20    3     -0.78      0.00
   -1   20    3     -0.43      0.00
    0   20    3      0.56      0.00
    1   20    3      0.80      0.00
    2   20    3     -0.05      0.00
    3   20    3     -1.13      0.00
    4   20    3      0.46      0.00
    5   20    3      0.63      0.00
    6   20    3     -0.03      0.00
   -6   21    3     -0.11      0.00
   -5   21    3      0.18      0.00
   -4   21    3      0.52      0.00
   -3   21    3     -0.36      0.00
   -2   21    3     -0.24      0.00
   -1   21    3      0.94      0.00
    0   21    3      0.06      0.00
    1   21    3      0.02      0.00
    2   21    3     -0.83      0.00
    3   21    3      0.04      0.00
    4   21    3      0.50      0.00
   -2   22    3      0.57      0.00
   -1   22    3     -0.39      0.00
    0   22    3     -0.36      0.00
    1   22    3     -0.24      0.00
  -14    0    4     -0.92      0.00
  -13    0    4      0.41      0.00
  -12    0    4      0.55      0.00
  -11    0    4     -0.79      0.00
  -10    0    4     -1.35      0.00
   -9    0    4      1.37      0.00
   -8    0    4      1.80      0.00
   -7    0    4     -2.25      0.00
   -6    0    4     -3.14      0.00
   -5    0    4      3.54      0.00
   -4    0    4      5.22      0.00
   -3    0    4     -5.10      0.00
   -2    0    4     -7.74      0.00
   -1    0    4      6.15      0.00
    0    0    4     10.78      0.00
    1    0    4     -5.04      0.00
    2    0    4    -11.33      0.00
    3    0    4      5.21      0.00
    4    0    4      6.46      0.00
    5    0    4     -4.27      0.00
    6    0    4     -2.71      0.00
    7    0    4      3.45      0.00
    8    0    4      0.99      0.00
    9    0    4     -2.67      0.00
   10    0    4     -0.35      0.00
   11    0    4      0.74      0.00
   12    0    4      0.70      0.00
   13    0    4      1.21      0.00
   14    0    4     -0.65      0.00
   15    0    4     -1.33      0.00
  -15    1    4     -0.96      0.00
  -14    1    4      0.33      0.00
  -13    1    4      0.25      0.00
  -12    1    4     -0.26      0.00
  -11    1    4     -0.52      0.00
  -10    1    4      0.80      0.00
   -9    1    4      0.75      0.00
   -8    1    4     -1.29      0.00
   -7    1    4     -0.73      0.00
   -6    1    4      2.10      0.00
   -5    1    4      1.77      0.00
   -4    1    4     -2.90      0.00
   -3    1    4     -2.93      0.00
   -2    1    4      4.10      0.00
   -1    1    4      4.93      0.00
    0    1    4     -3.86      0.00
    1    1    4     -6.94      0.00
    2    1    4      3.25      0.00
    3    1    4      5.26      0.00
    4    1    4     -3.57      0.00
    5    1    4     -1.54      0.00
    6    1    4      2.69      0.00
    7    1    4      0.33      0.00
    8    1    4     -2.36      0.00
    9    1    4     -0.07      0.00
   10    1    4      1.54      0.00
   11    1    4      0.11      0.00
   12    1    4      0.45      0.00
   13    1    4     -0.95      0.00
   14    1    4     -1.01      0.00
   15    1    4     -0.07      0.00
  -16    2    4     -0.48      0.00
  -15    2    4      0.09      0.00
  -14    2    4      0.12      0.00
  -13    2    4     -0.04      0.00
  -12    2    4      0.48      0.00
  -11    2    4     -0.27      0.00
  -10    2    4     -0.52      0.00
   -9    2    4     -0.01      0.00
   -8    2    4      1.79      0.00
   -7    2    4      0.29      0.00
   -6    2    4     -3.15      0.00
   -5    2    4      0.22      0.00
   -4    2    4      3.92      0.00
   -3    2    4     -0.41      0.00
   -2    2    4     -4.59      0.00
   -1    2    4      0.06      0.00
    0    2    4      3.98      0.00
    1    2    4     -0.87      0.00
    2    2    4     -2.88      0.00
    3    2    4     -0.01      0.00
    4    2    4      3.99      0.00
    5    2    4      0.41      0.00
    6    2    4     -3.31      0.00
    7    2    4     -0.65      0.00
    8    2    4      1.77      0.00
    9    2    4      0.74      0.00
   10    2    4     -0.66      0.00
   11    2    4     -0.37      0.00
   12    2    4     -0.20      0.00
   13    2    4     -0.43      0.00
   14    2    4      0.52      0.00
   15    2    4      0.16      0.00
  -17    3    4     -0.22      0.00
  -16    3    4     -0.11      0.00
  -15    3    4      0.12      0.00
  -14    3    4     -0.17      0.00
  -13    3    4      0.80      0.00
  -12    3    4     -0.87      0.00
  -11    3    4     -1.05      0.00
  -10    3    4      1.26      0.00
   -9    3    4      2.25      0.00
   -8    3    4     -1.29      0.00
   -7    3    4     -4.88      0.00
   -6    3    4      2.07      0.00
   -5    3    4      7.35      0.00
   -4    3    4     -4.03      0.00
   -3    3    4     -9.45      0.00
   -2    3    4      4.38      0.00
   -1    3    4     11.13      0.00
    0    3    4     -4.62      0.00
    1    3    4    -10.36      0.00
    2    3    4      4.15      0.00
    3    3    4      9.32      0.00
    4    3    4     -2.33      0.00
    5    3    4     -7.58      0.00
    6    3    4      1.02      0.00
    7    3    4      4.39      0.00
    8    3    4     -0.53      0.00
    9    3    4     -1.71      0.00
   10    3    4     -0.30      0.00
   11    3    4      0.78      0.00
   12    3    4      0.10      0.00
   13    3    4      0.31      0.00
   14    3    4     -0.45      0.00
   15    3    4      0.02      0.00
  -17    4    4     -0.11      0.00
  -16    4    4      0.14      0.00
  -15    4    4     -0.11      0.00
  -14    4    4      0.45      0.00
  -13    4    4     -0.38      0.00
  -12    4    4     -0.93      0.00
  -11    4    4      1.74      0.00
  -10    4    4      1.40      0.00
   -9    4    4     -2.31      0.00
   -8    4    4     -3.00      0.00
   -7    4    4      2.74      0.00
   -6    4    4      5.63      0.00
   -5    4    4     -4.86      0.00
   -4    4    4     -7.55      0.00
   -3    4    4      6.59      0.00
   -2    4    4      9.39      0.00
   -1    4    4     -6.47      0.00
    0    4    4    -10.01      0.00
    1    4    4      6.20      0.00
    2    4    4      8.87      0.00
    3    4    4     -4.24      0.00
    4    4    4     -7.83      0.00
    5    4    4      1.83      0.00
    6    4    4      5.11      0.00
    7    4    4     -0.50      0.00
    8    4    4     -2.22      0.00
    9    4    4      0.08      0.00
   10    4    4      0.65      0.00
   11    4    4      0.70      0.00
   12    4    4     -0.42      0.00
   13    4    4     -0.35      0.00
   14    4    4     -0.13      0.00
   15    4    4      0.87      0.00
  -17    5    4      0.15      0.00
  -16    5    4      0.10      0.00
  -15    5    4      0.07      0.00
  -14    5    4      0.22      0.00
  -13    5    4     -0.40      0.00
  -12    5    4      0.96      0.00
  -11    5    4      0.53      0.00
  -10    5    4     -2.11      0.00
   -9    5    4     -0.72      0.00
   -8    5    4      2.77      0.00
   -7    5    4      1.28      0.00
   -6    5    4     -3.70      0.00
   -5    5    4     -2.30      0.00
   -4    5    4      5.88      0.00
   -3    5    4      2.47      0.00
   -2    5    4     -6.13      0.00
   -1    5    4     -3.07      0.00
    0    5    4      5.68      0.00
    1    5    4      2.58      0.00
    2    5    4     -4.35      0.00
    3    5    4     -2.91      0.00
    4    5    4      2.08      0.00
    5    5    4      2.44      0.00
    6    5    4      0.43      0.00
    7    5    4     -1.15      0.00
    8    5    4     -0.39      0.00
    9    5    4     -0.62      0.00
   10    5    4      1.11      0.00
   11    5    4      0.14      0.00
   12    5    4     -0.49      0.00
   13    5    4      0.05      0.00
   14    5    4      0.37      0.00
   15    5    4     -0.04      0.00
  -17    6    4      0.02      0.00
  -16    6    4      0.05      0.00
  -15    6    4      0.22      0.00
  -14    6    4      0.15      0.00
  -13    6    4     -0.05      0.00
  -12    6    4     -0.16      0.00
  -11    6    4     -0.98      0.00
  -10    6    4      0.16      0.00
   -9    6    4      1.84      0.00
   -8    6    4     -1.34      0.00
   -7    6    4     -2.24      0.00
   -6    6    4      2.10      0.00
   -5    6    4      3.35      0.00
   -4    6    4     -3.06      0.00
   -3    6    4     -4.22      0.00
   -2    6    4      3.74      0.00
   -1    6    4      3.75      0.00
    0    6    4     -3.91      0.00
    1    6    4     -3.07      0.00
    2    6    4      3.10      0.00
    3    6    4      1.89      0.00
    4    6    4     -1.46      0.00
    5    6    4      0.42      0.00
    6    6    4      0.88      0.00
    7    6    4     -1.34      0.00
    8    6    4     -1.56      0.00
    9    6    4      0.93      0.00
   10    6    4      1.88      0.00
   11    6    4     -1.04      0.00
   12    6    4     -0.40      0.00
   13    6    4     -0.35      0.00
   14    6    4     -0.16      0.00
   15    6    4     -0.10      0.00
  -16    7    4      0.27      0.00
  -15    7    4      0.18      0.00
  -14    7    4     -0.30      0.00
  -13    7    4     -0.78      0.00
  -12    7    4     -0.20      0.00
  -11    7    4      0.50      0.00
  -10    7    4      0.57      0.00
   -9    7    4     -1.16      0.00
   -8    7    4     -0.92      0.00
   -7    7    4      3.16      0.00
   -6    7    4      0.97      0.00
   -5    7    4     -4.41      0.00
   -4    7    4     -1.74      0.00
   -3    7    4      5.74      0.00
   -2    7    4      1.63      0.00
   -1    7    4     -5.81      0.00
    0    7    4     -1.55      0.00
    1    7    4      5.30      0.00
    2    7    4      1.27      0.00
    3    7    4     -3.08      0.00
    4    7    4     -0.73      0.00
    5    7    4      1.82      0.00
    6    7    4     -1.10      0.00
    7    7    4     -1.06      0.00
    8    7    4      0.34      0.00
    9    7    4      2.21      0.00
   10    7    4     -0.73      0.00
   11    7    4     -1.34      0.00
   12    7    4     -0.37      0.00
   13    7    4      0.04      0.00
   14    7    4      0.82      0.00
   15    7    4      0.37      0.00
  -16    8    4     -0.13      0.00
  -15    8    4     -0.35      0.00
  -14    8    4     -0.79      0.00
  -13    8    4     -0.18      0.00
  -12    8    4      0.92      0.00
  -11    8    4      0.30      0.00
  -10    8    4     -0.46      0.00
   -9    8    4      0.01      0.00
   -8    8    4      1.56      0.00
   -7    8    4     -0.20      0.00
   -6    8    4     -2.80      0.00
   -5    8    4      0.13      0.00
   -4    8    4      3.57      0.00
   -3    8    4      0.14      0.00
   -2    8    4     -3.47      0.00
   -1    8    4     -0.37      0.00
    0    8    4      2.89      0.00
    1    8    4      0.78      0.00
    2    8    4     -1.48      0.00
    3    8    4     -1.47      0.00
    4    8    4      0.55      0.00
    5    8    4      0.62      0.00
    6    8    4      0.22      0.00
    7    8    4     -0.34      0.00
    8    8    4      0.13      0.00
    9    8    4      0.61      0.00
   10    8    4     -1.03      0.00
   11    8    4     -0.30      0.00
   12    8    4      0.21      0.00
   13    8    4      1.27      0.00
   14    8    4      0.53      0.00
  -16    9    4     -0.66      0.00
  -15    9    4     -0.17      0.00
  -14    9    4     -0.11      0.00
  -13    9    4      0.85      0.00
  -12    9    4      0.68      0.00
  -11    9    4     -0.31      0.00
  -10    9    4     -0.12      0.00
   -9    9    4      0.09      0.00
   -8    9    4     -0.40      0.00
   -7    9    4     -0.58      0.00
   -6    9    4      0.58      0.00
   -5    9    4      0.75      0.00
   -4    9    4     -0.36      0.00
   -3    9    4     -0.37      0.00
   -2    9    4      0.25      0.00
   -1    9    4     -0.75      0.00
    0    9    4      0.60      0.00
    1    9    4      1.27      0.00
    2    9    4     -1.32      0.00
    3    9    4     -1.67      0.00
    4    9    4      1.96      0.00
    5    9    4      1.12      0.00
    6    9    4     -1.04      0.00
    7    9    4     -1.83      0.00
    8    9    4      1.49      0.00
    9    9    4      0.73      0.00
   10    9    4     -0.75      0.00
   11    9    4     -0.33      0.00
   12    9    4      0.98      0.00
   13    9    4      0.59      0.00
   14    9    4     -0.95      0.00
  -15   10    4      0.32      0.00
  -14   10    4      0.26      0.00
  -13   10    4      0.48      0.00
  -12   10    4     -0.09      0.00
  -11   10    4     -0.65      0.00
  -10   10    4     -0.29      0.00
   -9   10    4     -0.04      0.00
   -8   10    4      0.50      0.00
   -7   10    4      0.08      0.00
   -6   10    4     -0.57      0.00
   -5   10    4      0.06      0.00
   -4   10    4      0.86      0.00
   -3   10    4      0.07      0.00
   -2   10    4     -2.08      0.00
   -1   10    4      0.28      0.00
    0   10    4      2.61      0.00
    1   10    4     -1.02      0.00
    2   10    4     -2.52      0.00
    3   10    4      1.71      0.00
    4   10    4      1.22      0.00
    5   10    4     -1.43      0.00
    6   10    4     -1.41      0.00
    7   10    4      1.25      0.00
    8   10    4      1.70      0.00
    9   10    4     -0.93      0.00
   10   10    4     -1.01      0.00
   11   10    4      0.47      0.00
   12   10    4      0.76      0.00
   13   10    4     -0.58      0.00
   14   10    4     -0.63      0.00
  -15   11    4     -0.05      0.00
  -14   11    4     -0.17      0.00
  -13   11    4      0.06      0.00
  -12   11    4     -0.34      0.00
  -11   11    4     -0.45      0.00
  -10   11    4      0.38      0.00
   -9   11    4      0.39      0.00
   -8   11    4     -0.34      0.00
   -7   11    4     -0.56      0.00
   -6   11    4      0.73      0.00
   -5   11    4      0.34      0.00
   -4   11    4     -0.65      0.00
   -3   11    4     -0.79      0.00
   -2   11    4     -0.01      0.00
   -1   11    4      1.53      0.00
    0   11    4     -0.51      0.00
    1   11    4     -1.23      0.00
    2   11    4      0.75      0.00
    3   11    4      0.35      0.00
    4   11    4     -0.92      0.00
    5   11    4      0.51      0.00
    6   11    4      0.61      0.00
    7   11    4      0.60      0.00
    8   11    4     -0.46      0.00
    9   11    4     -0.63      0.00
   10   11    4     -0.07      0.00
   11   11    4      0.64      0.00
   12   11    4      0.11      0.00
   13   11    4     -0.67      0.00
  -15   12    4     -0.44      0.00
  -14   12    4     -0.21      0.00
  -13   12    4      0.35      0.00
  -12   12    4     -0.23      0.00
  -11   12    4      0.20      0.00
  -10   12    4      0.13      0.00
   -9   12    4     -0.39      0.00
   -8   12    4     -0.02      0.00
   -7   12    4      0.82      0.00
   -6   12    4     -0.41      0.00
   -5   12    4     -1.00      0.00
   -4   12    4      0.88      0.00
   -3   12    4      0.21      0.00
   -2   12    4     -0.70      0.00
   -1   12    4      0.39      0.00
    0   12    4      0.93      0.00
    1   12    4     -0.03      0.00
    2   12    4     -1.34      0.00
    3   12    4      0.11      0.00
    4   12    4      2.10      0.00
    5   12    4     -0.02      0.00
    6   12    4     -1.27      0.00
    7   12    4     -0.05      0.00
    8   12    4      0.60      0.00
    9   12    4     -0.47      0.00
   10   12    4     -0.20      0.00
   11   12    4      0.44      0.00
   12   12    4     -0.40      0.00
   13   12    4     -0.55      0.00
  -14   13    4      0.50      0.00
  -13   13    4      0.52      0.00
  -12   13    4     -0.22      0.00
  -11   13    4     -0.12      0.00
  -10   13    4     -0.27      0.00
   -9   13    4      0.36      0.00
   -8   13    4      0.42      0.00
   -7   13    4     -0.68      0.00
   -6   13    4     -0.58      0.00
   -5   13    4      1.34      0.00
   -4   13    4      0.46      0.00
   -3   13    4     -1.85      0.00
   -2   13    4      0.78      0.00
   -1   13    4      2.29      0.00
    0   13    4     -0.80      0.00
    1   13    4     -2.68      0.00
    2   13    4      0.70      0.00
    3   13    4      2.81      0.00
    4   13    4     -0.61      0.00
    5   13    4     -2.30      0.00
    6   13    4      0.08      0.00
    7   13    4      1.32      0.00
    8   13    4     -0.34      0.00
    9   13    4     -1.23      0.00
   10   13    4      0.41      0.00
   11   13    4      0.26      0.00
   12   13    4     -0.48      0.00
  -13   14    4     -0.19      0.00
  -12   14    4     -0.59      0.00
  -11   14    4     -0.17      0.00
  -10   14    4      0.31      0.00
   -9   14    4      0.16      0.00
   -8   14    4     -0.56      0.00
   -7   14    4      0.03      0.00
   -6   14    4      1.02      0.00
   -5   14    4      0.09      0.00
   -4   14    4     -1.28      0.00
   -3   14    4      0.24      0.00
   -2   14    4      2.12      0.00
   -1   14    4     -1.25      0.00
    0   14    4     -2.60      0.00
    1   14    4      0.83      0.00
    2   14    4      2.62      0.00
    3   14    4     -0.75      0.00
    4   14    4     -2.26      0.00
    5   14    4      0.23      0.00
    6   14    4      1.12      0.00
    7   14    4      0.05      0.00
    8   14    4     -1.38      0.00
    9   14    4      0.27      0.00
   10   14    4      1.12      0.00
   11   14    4      0.06      0.00
   12   14    4      0.09      0.00
  -13   15    4     -0.61      0.00
  -12   15    4     -0.24      0.00
  -11   15    4      0.17      0.00
  -10   15    4      0.15      0.00
   -9   15    4     -0.03      0.00
   -8   15    4      0.21      0.00
   -7   15    4      0.63      0.00
   -6   15    4     -0.38      0.00
   -5   15    4     -0.41      0.00
   -4   15    4     -0.27      0.00
   -3   15    4      0.86      0.00
   -2   15    4     -0.59      0.00
   -1   15    4     -1.58      0.00
    0   15    4      0.90      0.00
    1   15    4      1.55      0.00
    2   15    4     -0.42      0.00
    3   15    4     -1.49      0.00
    4   15    4      0.13      0.00
    5   15    4      0.68      0.00
    6   15    4      0.17      0.00
    7   15    4     -0.57      0.00
    8   15    4      0.17      0.00
    9   15    4      1.51      0.00
   10   15    4      0.14      0.00
   11   15    4     -0.67      0.00
  -12   16    4      0.16      0.00
  -11   16    4      0.20      0.00
  -10   16    4      0.49      0.00
   -9   16    4      0.14      0.00
   -8   16    4      0.04      0.00
   -7   16    4     -0.31      0.00
   -6   16    4     -0.28      0.00
   -5   16    4     -0.21      0.00
   -4   16    4     -0.26      0.00
   -3   16    4      0.60      0.00
   -2   16    4     -0.60      0.00
   -1   16    4      0.58      0.00
    0   16    4      0.43      0.00
    1   16    4     -0.30      0.00
    2   16    4     -0.40      0.00
    3   16    4     -0.19      0.00
    4   16    4      0.34      0.00
    5   16    4      0.27      0.00
    6   16    4      0.15      0.00
    7   16    4      0.19      0.00
    8   16    4      0.95      0.00
    9   16    4     -0.27      0.00
   10   16    4     -1.33      0.00
  -11   17    4      0.37      0.00
  -10   17    4      0.09      0.00
   -9   17    4     -0.54      0.00
   -8   17    4     -0.05      0.00
   -7   17    4     -0.39      0.00
   -6   17    4     -0.16      0.00
   -5   17    4     -0.38      0.00
   -4   17    4      1.07      0.00
   -3   17    4      0.07      0.00
   -2   17    4     -0.33      0.00
   -1   17    4      0.10      0.00
    0   17    4     -0.39      0.00
    1   17    4      0.36      0.00
    2   17    4     -0.07      0.00
    3   17    4     -0.04      0.00
    4   17    4      0.47      0.00
    5   17    4      0.19      0.00
    6   17    4      0.14      0.00
    7   17    4      0.05      0.00
    8   17    4     -0.50      0.00
    9   17    4     -1.17      0.00
  -10   18    4     -0.46      0.00
   -9   18    4     -0.05      0.00
   -8   18    4     -0.20      0.00
   -7   18    4     -0.27      0.00
   -6   18    4      0.18      0.00
   -5   18    4      0.76      0.00
   -4   18    4      0.44      0.00
   -3   18    4     -1.03      0.00
   -2   18    4      0.20      0.00
   -1   18    4     -0.07      0.00
    0   18    4      0.44      0.00
    1   18    4      0.35      0.00
    2   18    4     -0.34      0.00
    3   18    4      0.17      0.00
    4   18    4      0.03      0.00
    5   18    4     -0.07      0.00
    6   18    4     -0.25      0.00
    7   18    4     -0.44      0.00
    8   18    4     -0.33      0.00
   -9   19    4     -0.03      0.00
   -8   19    4     -0.19      0.00
   -7   19    4      0.57      0.00
   -6   19    4      0.38      0.00
   -5   19    4      0.38      0.00
   -4   19    4     -0.87      0.00
   -3   19    4      0.03      0.00
   -2   19    4      0.46      0.00
   -1   19    4      0.18      0.00
    0   19    4      0.26      0.00
    1   19    4     -0.43      0.00
    2   19    4     -0.47      0.00
    3   19    4      0.08      0.00
    4   19    4     -0.02      0.00
    5   19    4     -0.03      0.00
    6   19    4     -0.38      0.00
    7   19    4      0.24      0.00
   -7   20    4      0.20      0.00
   -6   20    4      0.06      0.00
   -5   20    4     -0.31      0.00
   -4   20    4     -0.40      0.00
   -3   20    4      0.53      0.00
   -2   20    4      0.01      0.00
   -1   20    4     -0.19      0.00
    0   20    4     -0.44      0.00
    1   20    4     -0.46      0.00
    2   20    4      0.13      0.00
    3   20    4      0.37      0.00
    4   20    4      0.06      0.00
    5   20    4     -0.29      0.00
   -5   21    4     -0.64      0.00
   -4   21    4      0.19      0.00
   -3   21    4      0.10      0.00
   -2   21    4     -0.25      0.00
   -1   21    4     -0.36      0.00
    0   21    4      0.07      0.00
    1   21    4      0.09      0.00
    2   21    4      0.47      0.00
    3   21    4      0.06      0.00
  -16    1    5     -0.15      0.00
  -15    1    5      0.93      0.00
  -14    1    5     -0.02      0.00
  -13    1    5     -0.47      0.00
  -12    1    5      0.71      0.00
  -11    1    5     -0.13      0.00
  -10    1    5     -1.03      0.00
   -9    1    5     -0.51      0.00
   -8    1    5      1.02      0.00
   -7    1    5      1.52      0.00
   -6    1    5     -1.38      0.00
   -5    1    5     -2.66      0.00
   -4    1    5      1.96      0.00
   -3    1    5      3.69      0.00
   -2    1    5     -2.67      0.00
   -1    1    5     -5.11      0.00
    0    1    5      3.10      0.00
    1    1    5      6.04      0.00
    2    1    5     -3.17      0.00
    3    1    5     -5.02      0.00
    4    1    5      2.39      0.00
    5    1    5      3.40      0.00
    6    1    5     -1.55      0.00
    7    1    5     -1.78      0.00
    8    1    5      0.82      0.00
    9    1    5      0.97      0.00
   10    1    5     -0.21      0.00
   11    1    5     -0.35      0.00
   12    1    5      0.43      0.00
   13    1    5     -0.20      0.00
   14    1    5     -0.12      0.00
  -16    2    5      0.85      0.00
  -15    2    5      0.25      0.00
  -14    2    5     -1.21      0.00
  -13    2    5      0.42      0.00
  -12    2    5     -0.29      0.00
  -11    2    5     -1.42      0.00
  -10    2    5      0.19      0.00
   -9    2    5      1.63      0.00
   -8    2    5      0.89      0.00
   -7    2    5     -1.68      0.00
   -6    2    5     -2.26      0.00
   -5    2    5      2.34      0.00
   -4    2    5      3.28      0.00
   -3    2    5     -3.02      0.00
   -2    2    5     -4.64      0.00
   -1    2    5      4.08      0.00
    0    2    5      6.50      0.00
    1    2    5     -4.32      0.00
    2    2    5     -6.59      0.00
    3    2    5      3.91      0.00
    4    2    5      4.64      0.00
    5    2    5     -2.21      0.00
    6    2    5     -2.75      0.00
    7    2    5      1.31      0.00
    8    2    5      1.29      0.00
    9    2    5     -0.05      0.00
   10    2    5     -0.98      0.00
   11    2    5      0.30      0.00
   12    2    5      0.12      0.00
   13    2    5     -0.75      0.00
   14    2    5      0.22      0.00
  -17    3    5      0.18      0.00
  -16    3    5     -0.02      0.00
  -15    3    5     -1.22      0.00
  -14    3    5     -0.20      0.00
  -13    3    5      0.18      0.00
  -12    3    5     -0.76      0.00
  -11    3    5      1.03      0.00
  -10    3    5      1.47      0.00
   -9    3    5     -0.41      0.00
   -8    3    5     -1.49      0.00
   -7    3    5      0.10      0.00
   -6    3    5      1.51      0.00
   -5    3    5      0.25      0.00
   -4    3    5     -1.62      0.00
   -3    3    5     -0.09      0.00
   -2    3    5      2.40      0.00
   -1    3    5      0.98      0.00
    0    3    5     -3.03      0.00
    1    3    5     -2.22      0.00
    2    3    5      3.14      0.00
    3    3    5      1.45      0.00
    4    3    5     -1.72      0.00
    5    3    5     -0.81      0.00
    6    3    5      0.52      0.00
    7    3    5     -0.03      0.00
    8    3    5      0.46      0.00
    9    3    5     -0.36      0.00
   10    3    5     -0.70      0.00
   11    3    5      0.45      0.00
   12    3    5     -0.99      0.00
   13    3    5     -0.02      0.00
   14    3    5      0.78      0.00
  -17    4    5     -0.53      0.00
  -16    4    5     -0.61      0.00
  -15    4    5     -0.03      0.00
  -14    4    5      0.80      0.00
  -13    4    5      0.05      0.00
  -12    4    5      0.88      0.00
  -11    4    5      0.59      0.00
  -10    4    5     -1.04      0.00
   -9    4    5     -0.87      0.00
   -8    4    5      1.58      0.00
   -7    4    5      0.48      0.00
   -6    4    5     -2.49      0.00
   -5    4    5      0.00      0.00
   -4    4    5      3.81      0.00
   -3    4    5     -0.36      0.00
   -2    4    5     -4.86      0.00
   -1    4    5     -0.58      0.00
    0    4    5      4.40      0.00
    1    4    5      0.87      0.00
    2    4    5     -3.85      0.00
    3    4    5     -0.65      0.00
    4    4    5      3.37      0.00
    5    4    5     -0.73      0.00
    6    4    5     -2.33      0.00
    7    4    5      1.09      0.00
    8    4    5      1.58      0.00
    9    4    5     -1.69      0.00
   10    4    5     -0.21      0.00
   11    4    5     -0.24      0.00
   12    4    5      0.07      0.00
   13    4    5      1.82      0.00
   14    4    5      0.14      0.00
  -17    5    5     -0.24      0.00
  -16    5    5      0.56      0.00
  -15    5    5      0.88      0.00
  -14    5    5     -0.13      0.00
  -13    5    5     -0.09      0.00
  -12    5    5      0.10      0.00
  -11    5    5     -0.91      0.00
  -10    5    5      0.03      0.00
   -9    5    5      1.12      0.00
   -8    5    5     -0.28      0.00
   -7    5    5     -2.95      0.00
   -6    5    5      1.15      0.00
   -5    5    5      4.37      0.00
   -4    5    5     -2.13      0.00
   -3    5    5     -6.28      0.00
   -2    5    5      1.88      0.00
   -1    5    5      7.24      0.00
    0    5    5     -0.96      0.00
    1    5    5     -6.77      0.00
    2    5    5      0.43      0.00
    3    5    5      6.07      0.00
    4    5    5     -1.02      0.00
    5    5    5     -3.91      0.00
    6    5    5      1.24      0.00
    7    5    5      2.66      0.00
    8    5    5     -1.62      0.00
    9    5    5     -1.25      0.00
   10    5    5      0.63      0.00
   11    5    5      0.59      0.00
   12    5    5      2.04      0.00
   13    5    5     -0.13      0.00
   14    5    5     -1.80      0.00
  -16    6    5      0.51      0.00
  -15    6    5     -0.85      0.00
  -14    6    5     -0.73      0.00
  -13    6    5      0.64      0.00
  -12    6    5     -0.27      0.00
  -11    6    5      0.05      0.00
  -10    6    5      0.40      0.00
   -9    6    5     -0.81      0.00
   -8    6    5     -1.35      0.00
   -7    6    5      1.59      0.00
   -6    6    5      2.60      0.00
   -5    6    5     -2.59      0.00
   -4    6    5     -3.50      0.00
   -3    6    5      3.22      0.00
   -2    6    5      4.68      0.00
   -1    6    5     -1.96      0.00
    0    6    5     -5.03      0.00
    1    6    5      0.93      0.00
    2    6    5      4.74      0.00
    3    6    5     -0.45      0.00
    4    6    5     -3.40      0.00
    5    6    5      0.56      0.00
    6    6    5      1.63      0.00
    7    6    5     -0.54      0.00
    8    6    5     -0.97      0.00
    9    6    5      0.57      0.00
   10    6    5      0.56      0.00
   11    6    5      1.49      0.00
   12    6    5     -0.41      0.00
   13    6    5     -2.60      0.00
   14    6    5     -0.22      0.00
  -16    7    5     -0.93      0.00
  -15    7    5     -0.54      0.00
  -14    7    5      1.39      0.00
  -13    7    5      0.45      0.00
  -12    7    5     -0.96      0.00
  -11    7    5      0.22      0.00
  -10    7    5     -0.51      0.00
   -9    7    5      0.06      0.00
   -8    7    5      1.39      0.00
   -7    7    5      0.56      0.00
   -6    7    5     -2.31      0.00
   -5    7    5     -0.15      0.00
   -4    7    5      3.07      0.00
   -3    7    5      0.24      0.00
   -2    7    5     -2.58      0.00
   -1    7    5     -0.67      0.00
    0    7    5      0.93      0.00
    1    7    5      0.88      0.00
    2    7    5     -0.06      0.00
    3    7    5     -0.96      0.00
    4    7    5     -0.23      0.00
    5    7    5     -0.21      0.00
    6    7    5      0.58      0.00
    7    7    5      0.60      0.00
    8    7    5     -0.16      0.00
    9    7    5     -0.43      0.00
   10    7    5      0.93      0.00
   11    7    5      0.01      0.00
   12    7    5     -2.22      0.00
   13    7    5     -0.31      0.00
   14    7    5      1.51      0.00
  -16    8    5     -0.03      0.00
  -15    8    5      1.46      0.00
  -14    8    5      0.63      0.00
  -13    8    5     -1.57      0.00
  -12    8    5     -0.36      0.00
  -11    8    5      0.65      0.00
  -10    8    5      0.15      0.00
   -9    8    5      0.68      0.00
   -8    8    5     -0.51      0.00
   -7    8    5     -1.42      0.00
   -6    8    5      1.11      0.00
   -5    8    5      2.10      0.00
   -4    8    5     -2.24      0.00
   -3    8    5     -2.50      0.00
   -2    8    5      2.31      0.00
   -1    8    5      1.16      0.00
    0    8    5     -1.98      0.00
    1    8    5     -0.11      0.00
    2    8    5      1.39      0.00
    3    8    5     -0.13      0.00
    4    8    5     -1.23      0.00
    5    8    5      0.74      0.00
    6    8    5      1.55      0.00
    7    8    5     -0.61      0.00
    8    8    5     -1.22      0.00
    9    8    5      0.52      0.00
   10    8    5      0.59      0.00
   11    8    5     -1.16      0.00
   12    8    5     -0.66      0.00
   13    8    5      1.22      0.00
  -16    9    5      1.06      0.00
  -15    9    5      0.24      0.00
  -14    9    5     -1.22      0.00
  -13    9    5     -1.14      0.00
  -12    9    5      1.17      0.00
  -11    9    5      0.41      0.00
  -10    9    5     -0.31      0.00
   -9    9    5     -0.45      0.00
   -8    9    5     -0.27      0.00
   -7    9    5      0.74      0.00
   -6    9    5      0.86      0.00
   -5    9    5     -1.86      0.00
   -4    9    5     -1.50      0.00
   -3    9    5      2.30      0.00
   -2    9    5      1.51      0.00
   -1    9    5     -1.94      0.00
    0    9    5     -0.45      0.00
    1    9    5      1.50      0.00
    2    9    5      0.68      0.00
    3    9    5     -0.92      0.00
    4    9    5     -0.33      0.00
    5    9    5      0.87      0.00
    6    9    5     -0.32      0.00
    7    9    5     -0.72      0.00
    8    9    5      0.01      0.00
    9    9    5      0.19      0.00
   10    9    5     -0.26      0.00
   11    9    5     -0.47      0.00
   12    9    5      0.22      0.00
   13    9    5      0.79      0.00
  -15   10    5     -0.79      0.00
  -14   10    5     -0.93      0.00
  -13   10    5      0.46      0.00
  -12   10    5      1.40      0.00
  -11   10    5     -0.80      0.00
  -10   10    5     -0.26      0.00
   -9   10    5      0.57      0.00
   -8   10    5      0.16      0.00
   -7   10    5     -0.30      0.00
   -6   10    5     -0.40      0.00
   -5   10    5     -0.21      0.00
   -4   10    5      0.85      0.00
   -3   10    5      1.16      0.00
   -2   10    5     -0.24      0.00
   -1   10    5     -0.99      0.00
    0   10    5     -0.34      0.00
    1   10    5      1.25      0.00
    2   10    5      0.55      0.00
    3   10    5     -1.80      0.00
    4   10    5     -0.58      0.00
    5   10    5      0.61      0.00
    6   10    5      0.55      0.00
    7   10    5     -0.43      0.00
    8   10    5     -0.96      0.00
    9   10    5      0.26      0.00
   10   10    5      0.74      0.00
   11   10    5     -0.40      0.00
   12   10    5      0.46      0.00
   13   10    5      0.52      0.00
  -15   11    5     -0.09      0.00
  -14   11    5     -0.16      0.00
  -13   11    5      1.47      0.00
  -12   11    5     -0.24      0.00
  -11   11    5     -0.72      0.00
  -10   11    5      0.86      0.00
   -9   11    5     -0.25      0.00
   -8   11    5     -0.84      0.00
   -7   11    5      0.38      0.00
   -6   11    5      0.62      0.00
   -5   11    5     -0.13      0.00
   -4   11    5      0.13      0.00
   -3   11    5      0.75      0.00
   -2   11    5     -1.18      0.00
   -1   11    5     -1.83      0.00
    0   11    5      1.40      0.00
    1   11    5      2.16      0.00
    2   11    5     -2.50      0.00
    3   11    5     -1.77      0.00
    4   11    5      1.74      0.00
    5   11    5      1.40      0.00
    6   11    5     -0.62      0.00
    7   11    5     -1.61      0.00
    8   11    5      0.44      0.00
    9   11    5      2.01      0.00
   10   11    5     -0.25      0.00
   11   11    5     -0.41      0.00
   12   11    5      0.66      0.00
  -14   12    5      0.35      0.00
  -13   12    5      0.50      0.00
  -12   12    5     -1.04      0.00
  -11   12    5      0.54      0.00
  -10   12    5     -0.31      0.00
   -9   12    5     -0.72      0.00
   -8   12    5      0.55      0.00
   -7   12    5      0.67      0.00
   -6   12    5     -0.20      0.00
   -5   12    5     -0.63      0.00
   -4   12    5      0.30      0.00
   -3   12    5     -0.54      0.00
   -2   12    5     -1.51      0.00
   -1   12    5      1.35      0.00
    0   12    5      2.42      0.00
    1   12    5     -2.16      0.00
    2   12    5     -2.20      0.00
    3   12    5      2.29      0.00
    4   12    5      1.41      0.00
    5   12    5     -0.77      0.00
    6   12    5     -1.26      0.00
    7   12    5      0.39      0.00
    8   12    5      2.14      0.00
    9   12    5      0.06      0.00
   10   12    5     -1.44      0.00
   11   12    5      0.11      0.00
   12   12    5     -0.13      0.00
  -14   13    5      0.49      0.00
  -13   13    5     -0.53      0.00
  -12   13    5     -0.10      0.00
  -11   13    5      0.08      0.00
  -10   13    5     -0.37      0.00
   -9   13    5      0.59      0.00
   -8   13    5      0.16      0.00
   -7   13    5      0.05      0.00
   -6   13    5     -0.59      0.00
   -5   13    5     -0.58      0.00
   -4   13    5      0.37      0.00
   -3   13    5     -0.13      0.00
   -2   13    5      0.86      0.00
   -1   13    5      1.23      0.00
    0   13    5     -1.47      0.00
    1   13    5     -1.60      0.00
    2   13    5      1.87      0.00
    3   13    5      0.92      0.00
    4   13    5     -0.81      0.00
    5   13    5     -0.40      0.00
    6   13    5      0.33      0.00
    7   13    5      1.18      0.00
    8   13    5      0.00      0.00
    9   13    5     -1.96      0.00
   10   13    5     -0.35      0.00
   11   13    5      0.19      0.00
  -13   14    5     -0.42      0.00
  -12   14    5      0.40      0.00
  -11   14    5     -0.01      0.00
  -10   14    5      0.32      0.00
   -9   14    5     -0.29      0.00
   -8   14    5      0.13      0.00
   -7   14    5     -0.11      0.00
   -6   14    5     -1.05      0.00
   -5   14    5      0.76      0.00
   -4   14    5      0.94      0.00
   -3   14    5     -0.01      0.00
   -2   14    5      0.02      0.00
   -1   14    5     -0.86      0.00
    0   14    5     -0.52      0.00
    1   14    5      1.10      0.00
    2   14    5      0.26      0.00
    3   14    5     -0.43      0.00
    4   14    5      0.32      0.00
    5   14    5      0.17      0.00
    6   14    5      0.00      0.00
    7   14    5     -0.35      0.00
    8   14    5     -1.56      0.00
    9   14    5     -0.26      0.00
   10   14    5      0.97      0.00
   11   14    5      0.42      0.00
  -12   15    5      0.25      0.00
  -11   15    5     -0.13      0.00
  -10   15    5     -0.35      0.00
   -9   15    5      0.10      0.00
   -8   15    5      0.28      0.00
   -7   15    5     -1.10      0.00
   -6   15    5      0.68      0.00
   -5   15    5      1.39      0.00
   -4   15    5     -0.61      0.00
   -3   15    5     -0.49      0.00
   -2   15    5     -0.24      0.00
   -1   15    5     -0.07      0.00
    0   15    5      0.68      0.00
    1   15    5     -0.16      0.00
    2   15    5     -0.09      0.00
    3   15    5      0.61      0.00
    4   15    5     -0.28      0.00
    5   15    5     -0.68      0.00
    6   15    5     -0.62      0.00
    7   15    5     -0.48      0.00
    8   15    5      0.10      0.00
    9   15    5      1.36      0.00
   10   15    5      0.32      0.00
  -11   16    5     -0.20      0.00
  -10   16    5      0.04      0.00
   -9   16    5      0.35      0.00
   -8   16    5     -0.84      0.00
   -7   16    5      0.49      0.00
   -6   16    5      1.55      0.00
   -5   16    5     -0.72      0.00
   -4   16    5     -0.84      0.00
   -3   16    5      0.17      0.00
   -2   16    5     -0.27      0.00
   -1   16    5      0.44      0.00
    0   16    5      0.04      0.00
    1   16    5     -0.33      0.00
    2   16    5      0.51      0.00
    3   16    5     -0.50      0.00
    4   16    5     -0.74      0.00
    5   16    5     -0.49      0.00
    6   16    5      0.44      0.00
    7   16    5      0.53      0.00
    8   16    5      0.76      0.00
    9   16    5      0.27      0.00
  -11   17    5     -0.05      0.00
  -10   17    5      0.20      0.00
   -9   17    5     -0.36      0.00
   -8   17    5      0.18      0.00
   -7   17    5      1.44      0.00
   -6   17    5     -0.64      0.00
   -5   17    5     -1.36      0.00
   -4   17    5      0.07      0.00
   -3   17    5     -0.14      0.00
   -2   17    5      0.16      0.00
   -1   17    5      0.65      0.00
    0   17    5     -0.60      0.00
    1   17    5      0.14      0.00
    2   17    5      0.01      0.00
    3   17    5     -0.49      0.00
    4   17    5     -0.23      0.00
    5   17    5      0.63      0.00
    6   17    5      1.01      0.00
    7   17    5     -0.17      0.00
    8   17    5      0.23      0.00
   -9   18    5     -0.14      0.00
   -8   18    5      1.00      0.00
   -7   18    5     -0.39      0.00
   -6   18    5     -1.69      0.00
   -5   18    5     -0.20      0.00
   -4   18    5      0.62      0.00
   -3   18    5      0.28      0.00
   -2   18    5      0.91      0.00
   -1   18    5     -0.32      0.00
    0   18    5     -0.40      0.00
    1   18    5      0.48      0.00
    2   18    5     -0.24      0.00
    3   18    5     -0.24      0.00
    4   18    5      0.37      0.00
    5   18    5      1.20      0.00
    6   18    5     -0.48      0.00
    7   18    5     -0.35      0.00
   -8   19    5      0.05      0.00
   -7   19    5     -1.53      0.00
   -6   19    5     -0.21      0.00
   -5   19    5      1.36      0.00
   -4   19    5      0.81      0.00
   -3   19    5      0.41      0.00
   -2   19    5     -0.16      0.00
   -1   19    5     -0.89      0.00
    0   19    5      0.22      0.00
    1   19    5      0.01      0.00
    2   19    5     -0.23      0.00
    3   19    5      0.14      0.00
    4   19    5      0.87      0.00
    5   19    5     -0.22      0.00
    6   19    5     -1.06      0.00
   -6   20    5      1.49      0.00
   -5   20    5      0.93      0.00
   -4   20    5     -0.40      0.00
   -3   20    5     -0.63      0.00
   -2   20    5     -0.97      0.00
   -1   20    5     -0.09      0.00
    0   20    5      0.35      0.00
    1   20    5      0.16      0.00
    2   20    5      0.03      0.00
    3   20    5      0.22      0.00
    4   20    5      0.04      0.00
   -3   21    5     -0.54      0.00
   -2   21    5      0.21      0.00
   -1   21    5      0.62      0.00
    0   21    5      0.40      0.00
    1   21    5     -0.04      0.00
  -16    0    6      0.54      0.00
  -15    0    6     -0.04      0.00
  -14    0    6     -0.03      0.00
  -13    0    6     -1.85      0.00
  -12    0    6      0.65      0.00
  -11    0    6      1.55      0.00
  -10    0    6      0.21      0.00
   -9    0    6     -1.37      0.00
   -8    0    6     -0.70      0.00
   -7    0    6      1.02      0.00
   -6    0    6      1.35      0.00
   -5    0    6     -1.06      0.00
   -4    0    6     -1.15      0.00
   -3    0    6      1.66      0.00
   -2    0    6      1.66      0.00
   -1    0    6     -2.84      0.00
    0    0    6     -3.99      0.00
    1    0    6      3.13      0.00
    2    0    6      4.53      0.00
    3    0    6     -1.42      0.00
    4    0    6     -3.73      0.00
    5    0    6      0.76      0.00
    6    0    6      2.45      0.00
    7    0    6     -0.68      0.00
    8    0    6     -1.62      0.00
    9    0    6     -0.24      0.00
   10    0    6      0.56      0.00
   11    0    6     -0.33      0.00
   12    0    6      0.78      0.00
   13    0    6      0.30      0.00
   14    0    6      0.02      0.00
  -16    1    6      0.14      0.00
  -15    1    6     -0.58      0.00
  -14    1    6     -0.60      0.00
  -13    1    6      0.52      0.00
  -12    1    6      1.66      0.00
  -11    1    6     -0.51      0.00
  -10    1    6     -0.99      0.00
   -9    1    6     -0.28      0.00
   -8    1    6      0.86      0.00
   -7    1    6      0.52      0.00
   -6    1    6     -0.54      0.00
   -5    1    6     -0.49      0.00
   -4    1    6      0.52      0.00
   -3    1    6      0.00      0.00
   -2    1    6     -1.43      0.00
   -1    1    6     -0.98      0.00
    0    1    6      2.18      0.00
    1    1    6      2.66      0.00
    2    1    6     -1.50      0.00
    3    1    6     -2.33      0.00
    4    1    6      0.07      0.00
    5    1    6      1.82      0.00
    6    1    6     -0.42      0.00
    7    1    6     -1.05      0.00
    8    1    6     -0.22      0.00
    9    1    6      0.84      0.00
   10    1    6      0.43      0.00
   11    1    6      0.37      0.00
   12    1    6      0.28      0.00
   13    1    6     -0.25      0.00
   14    1    6      0.01      0.00
  -17    2    6      0.77      0.00
  -16    2    6     -1.10      0.00
  -15    2    6      0.28      0.00
  -14    2    6      0.76      0.00
  -13    2    6      0.96      0.00
  -12    2    6     -0.96      0.00
  -11    2    6     -0.35      0.00
  -10    2    6      0.17      0.00
   -9    2    6      0.21      0.00
   -8    2    6     -0.43      0.00
   -7    2    6      0.27      0.00
   -6    2    6      0.67      0.00
   -5    2    6     -0.74      0.00
   -4    2    6     -1.76      0.00
   -3    2    6      0.84      0.00
   -2    2    6      2.81      0.00
   -1    2    6     -0.10      0.00
    0    2    6     -2.10      0.00
    1    2    6      0.01      0.00
    2    2    6      1.49      0.00
    3    2    6     -1.17      0.00
    4    2    6     -1.24      0.00
    5    2    6      1.01      0.00
    6    2    6      0.84      0.00
    7    2    6     -0.48      0.00
    8    2    6     -0.40      0.00
    9    2    6      1.16      0.00
   10    2    6      0.30      0.00
   11    2    6     -0.48      0.00
   12    2    6     -0.41      0.00
   13    2    6      0.00      0.00
   14    2    6     -0.48      0.00
  -17    3    6     -0.48      0.00
  -16    3    6     -0.23      0.00
  -15    3    6      1.02      0.00
  -14    3    6      0.10      0.00
  -13    3    6     -0.70      0.00
  -12    3    6     -0.25      0.00
  -11    3    6      0.40      0.00
  -10    3    6     -0.65      0.00
   -9    3    6     -0.29      0.00
   -8    3    6      0.69      0.00
   -7    3    6      1.03      0.00
   -6    3    6     -1.29      0.00
   -5    3    6     -1.78      0.00
   -4    3    6      2.04      0.00
   -3    3    6      3.57      0.00
   -2    3    6     -1.89      0.00
   -1    3    6     -5.00      0.00
    0    3    6      1.42      0.00
    1    3    6      4.50      0.00
    2    3    6     -1.91      0.00
    3    3    6     -3.95      0.00
    4    3    6      2.24      0.00
    5    3    6      2.77      0.00
    6    3    6     -1.05      0.00
    7    3    6     -1.69      0.00
    8    3    6      0.94      0.00
    9    3    6      1.14      0.00
   10    3    6     -1.06      0.00
   11    3    6     -0.80      0.00
   12    3    6      0.05      0.00
   13    3    6     -0.17      0.00
   14    3    6      0.15      0.00
  -17    4    6     -0.85      0.00
  -16    4    6      0.47      0.00
  -15    4    6      0.15      0.00
  -14    4    6     -0.29      0.00
  -13    4    6     -0.56      0.00
  -12    4    6      0.24      0.00
  -11    4    6     -0.69      0.00
  -10    4    6      0.19      0.00
   -9    4    6      0.87      0.00
   -8    4    6      0.36      0.00
   -7    4    6     -1.13      0.00
   -6    4    6     -0.44      0.00
   -5    4    6      1.68      0.00
   -4    4    6      1.22      0.00
   -3    4    6     -2.27      0.00
   -2    4    6     -3.17      0.00
   -1    4    6      1.65      0.00
    0    4    6      4.04      0.00
    1    4    6     -1.49      0.00
    2    4    6     -3.43      0.00
    3    4    6      1.95      0.00
    4    4    6      2.81      0.00
    5    4    6     -1.36      0.00
    6    4    6     -1.45      0.00
    7    4    6      0.25      0.00
    8    4    6      1.23      0.00
    9    4    6     -0.50      0.00
   10    4    6     -1.21      0.00
   11    4    6     -0.03      0.00
   12    4    6      0.44      0.00
   13    4    6      0.58      0.00
   14    4    6      0.32      0.00
  -16    5    6      0.73      0.00
  -15    5    6     -0.13      0.00
  -14    5    6     -0.80      0.00
  -13    5    6     -0.05      0.00
  -12    5    6      0.26      0.00
  -11    5    6      0.07      0.00
  -10    5    6      0.80      0.00
   -9    5    6     -0.30      0.00
   -8    5    6     -0.61      0.00
   -7    5    6      0.66      0.00
   -6    5    6      0.82      0.00
   -5    5    6     -1.49      0.00
   -4    5    6     -1.40      0.00
   -3    5    6      1.00      0.00
   -2    5    6      1.29      0.00
   -1    5    6      0.34      0.00
    0    5    6     -0.47      0.00
    1    5    6     -0.15      0.00
    2    5    6      0.59      0.00
    3    5    6      0.20      0.00
    4    5    6     -0.77      0.00
    5    5    6      0.07      0.00
    6    5    6     -0.02      0.00
    7    5    6     -0.30      0.00
    8    5    6      0.54      0.00
    9    5    6     -0.72      0.00
   10    5    6     -0.31      0.00
   11    5    6      0.53      0.00
   12    5    6      0.93      0.00
   13    5    6      0.35      0.00
  -16    6    6     -0.08      0.00
  -15    6    6     -0.90      0.00
  -14    6    6      0.11      0.00
  -13    6    6      0.99      0.00
  -12    6    6     -0.25      0.00
  -11    6    6      0.18      0.00
  -10    6    6     -0.03      0.00
   -9    6    6     -0.22      0.00
   -8    6    6      0.76      0.00
   -7    6    6      0.13      0.00
   -6    6    6     -2.23      0.00
   -5    6    6     -0.35      0.00
   -4    6    6      3.32      0.00
   -3    6    6      0.85      0.00
   -2    6    6     -3.15      0.00
   -1    6    6     -0.08      0.00
    0    6    6      2.99      0.00
    1    6    6     -0.35      0.00
    2    6    6     -3.10      0.00
    3    6    6      0.16      0.00
    4    6    6      1.84      0.00
    5    6    6      0.08      0.00
    6    6    6     -1.77      0.00
    7    6    6      0.70      0.00
    8    6    6      0.51      0.00
    9    6    6     -0.52      0.00
   10    6    6      0.05      0.00
   11    6    6      0.62      0.00
   12    6    6      0.68      0.00
   13    6    6     -0.90      0.00
  -16    7    6     -0.82      0.00
  -15    7    6      0.43      0.00
  -14    7    6      0.91      0.00
  -13    7    6     -0.27      0.00
  -12    7    6     -0.46      0.00
  -11    7    6      0.42      0.00
  -10    7    6      0.04      0.00
   -9    7    6      0.29      0.00
   -8    7    6     -0.32      0.00
   -7    7    6     -1.42      0.00
   -6    7    6      0.20      0.00
   -5    7    6      2.57      0.00
   -4    7    6      0.34      0.00
   -3    7    6     -3.37      0.00
   -2    7    6     -0.38      0.00
   -1    7    6      3.55      0.00
    0    7    6     -0.21      0.00
    1    7    6     -4.06      0.00
    2    7    6      0.23      0.00
    3    7    6      2.82      0.00
    4    7    6      0.15      0.00
    5    7    6     -1.65      0.00
    6    7    6     -0.16      0.00
    7    7    6      1.05      0.00
    8    7    6     -0.29      0.00
    9    7    6     -0.09      0.00
   10    7    6     -0.09      0.00
   11    7    6      0.78      0.00
   12    7    6     -0.30      0.00
   13    7    6     -1.40      0.00
  -16    8    6      0.25      0.00
  -15    8    6      0.62      0.00
  -14    8    6     -0.13      0.00
  -13    8    6     -0.46      0.00
  -12    8    6      0.09      0.00
  -11    8    6      0.28      0.00
  -10    8    6     -0.03      0.00
   -9    8    6     -0.49      0.00
   -8    8    6     -0.82      0.00
   -7    8    6      0.48      0.00
   -6    8    6      0.91      0.00
   -5    8    6     -0.06      0.00
   -4    8    6     -1.09      0.00
   -3    8    6     -0.51      0.00
   -2    8    6      1.50      0.00
   -1    8    6      0.28      0.00
    0    8    6     -1.98      0.00
    1    8    6     -0.43      0.00
    2    8    6      1.97      0.00
    3    8    6      0.39      0.00
    4    8    6     -0.40      0.00
    5    8    6     -0.90      0.00
    6    8    6      0.25      0.00
    7    8    6      0.38      0.00
    8    8    6      0.43      0.00
    9    8    6     -0.46      0.00
   10    8    6      0.16      0.00
   11    8    6      0.43      0.00
   12    8    6     -0.96      0.00
   13    8    6      0.07      0.00
  -15    9    6      0.10      0.00
  -14    9    6     -0.22      0.00
  -13    9    6     -0.48      0.00
  -12    9    6      0.24      0.00
  -11    9    6      0.16      0.00
  -10    9    6     -0.52      0.00
   -9    9    6     -0.70      0.00
   -8    9    6      0.59      0.00
   -7    9    6      0.60      0.00
   -6    9    6     -0.34      0.00
   -5    9    6      0.65      0.00
   -4    9    6     -0.26      0.00
   -3    9    6     -0.88      0.00
   -2    9    6      0.37      0.00
   -1    9    6      0.86      0.00
    0    9    6     -0.64      0.00
    1    9    6     -0.40      0.00
    2    9    6      0.81      0.00
    3    9    6      1.03      0.00
    4    9    6     -0.82      0.00
    5    9    6     -1.11      0.00
    6    9    6      0.89      0.00
    7    9    6      1.01      0.00
    8    9    6     -0.41      0.00
    9    9    6     -0.66      0.00
   10    9    6      0.44      0.00
   11    9    6     -0.13      0.00
   12    9    6     -0.22      0.00
  -15   10    6     -0.09      0.00
  -14   10    6     -0.53      0.00
  -13   10    6     -0.03      0.00
  -12   10    6      0.39      0.00
  -11   10    6     -0.37      0.00
  -10   10    6     -0.29      0.00
   -9   10    6      0.41      0.00
   -8   10    6      1.13      0.00
   -7   10    6     -0.44      0.00
   -6   10    6      0.32      0.00
   -5   10    6      0.05      0.00
   -4   10    6     -1.57      0.00
   -3   10    6      0.21      0.00
   -2   10    6      1.99      0.00
   -1   10    6     -0.15      0.00
    0   10    6     -2.13      0.00
    1   10    6      0.74      0.00
    2   10    6      2.03      0.00
    3   10    6     -0.33      0.00
    4   10    6     -2.03      0.00
    5   10    6      0.60      0.00
    6   10    6      1.19      0.00
    7   10    6     -0.31      0.00
    8   10    6     -0.92      0.00
    9   10    6      0.00      0.00
   10   10    6      0.04      0.00
   11   10    6      0.14      0.00
   12   10    6     -0.25      0.00
  -14   11    6     -0.13      0.00
  -13   11    6      0.18      0.00
  -12   11    6      0.09      0.00
  -11   11    6      0.29      0.00
  -10   11    6      0.05      0.00
   -9   11    6      0.74      0.00
   -8   11    6     -0.13      0.00
   -7   11    6     -0.91      0.00
   -6   11    6      0.29      0.00
   -5   11    6     -0.65      0.00
   -4   11    6      0.09      0.00
   -3   11    6      1.31      0.00
   -2   11    6      0.19      0.00
   -1   11    6     -1.82      0.00
    0   11    6     -0.01      0.00
    1   11    6      1.90      0.00
    2   11    6      0.10      0.00
    3   11    6     -2.01      0.00
    4   11    6     -0.30      0.00
    5   11    6      1.12      0.00
    6   11    6     -0.08      0.00
    7   11    6     -0.68      0.00
    8   11    6     -0.14      0.00
    9   11    6     -0.29      0.00
   10   11    6      0.61      0.00
   11   11    6      0.16      0.00
   12   11    6     -0.41      0.00
  -14   12    6     -0.02      0.00
  -13   12    6      0.42      0.00
  -12   12    6      0.58      0.00
  -11   12    6     -0.44      0.00
  -10   12    6     -0.30      0.00
   -9   12    6      0.43      0.00
   -8   12    6     -1.14      0.00
   -7   12    6      0.27      0.00
   -6   12    6      0.48      0.00
   -5   12    6     -0.17      0.00
   -4   12    6      0.25      0.00
   -3   12    6      0.09      0.00
   -2   12    6     -0.61      0.00
   -1   12    6     -0.56      0.00
    0   12    6      0.66      0.00
    1   12    6      0.57      0.00
    2   12    6     -0.98      0.00
    3   12    6     -1.05      0.00
    4   12    6      0.88      0.00
    5   12    6      0.51      0.00
    6   12    6     -0.32      0.00
    7   12    6     -0.13      0.00
    8   12    6     -0.28      0.00
    9   12    6      0.47      0.00
   10   12    6      1.00      0.00
   11   12    6     -0.60      0.00
  -13   13    6      0.45      0.00
  -12   13    6     -0.78      0.00
  -11   13    6     -0.70      0.00
  -10   13    6      0.77      0.00
   -9   13    6     -0.27      0.00
   -8   13    6      0.03      0.00
   -7   13    6      0.75      0.00
   -6   13    6     -0.63      0.00
   -5   13    6     -0.25      0.00
   -4   13    6      0.18      0.00
   -3   13    6     -0.07      0.00
   -2   13    6     -0.38      0.00
   -1   13    6     -0.26      0.00
    0   13    6      0.85      0.00
    1   13    6      0.45      0.00
    2   13    6     -1.33      0.00
    3   13    6      0.29      0.00
    4   13    6      1.18      0.00
    5   13    6     -0.06      0.00
    6   13    6     -0.52      0.00
    7   13    6     -0.05      0.00
    8   13    6      0.24      0.00
    9   13    6      1.21      0.00
   10   13    6     -0.54      0.00
  -12   14    6     -0.48      0.00
  -11   14    6      0.79      0.00
  -10   14    6      0.35      0.00
   -9   14    6     -0.07      0.00
   -8   14    6      0.05      0.00
   -7   14    6     -1.02      0.00
   -6   14    6     -0.04      0.00
   -5   14    6      0.75      0.00
   -4   14    6     -0.19      0.00
   -3   14    6     -0.16      0.00
   -2   14    6      0.10      0.00
   -1   14    6      0.49      0.00
    0   14    6      1.07      0.00
    1   14    6     -1.09      0.00
    2   14    6     -0.62      0.00
    3   14    6      1.40      0.00
    4   14    6      0.08      0.00
    5   14    6     -1.04      0.00
    6   14    6     -0.17      0.00
    7   14    6      0.70      0.00
    8   14    6      0.83      0.00
    9   14    6     -0.48      0.00
   10   14    6     -1.18      0.00
  -12   15    6      0.54      0.00
  -11   15    6      0.32      0.00
  -10   15    6     -0.05      0.00
   -9   15    6     -0.66      0.00
   -8   15    6     -1.16      0.00
   -7   15    6      0.74      0.00
   -6   15    6      1.33      0.00
   -5   15    6     -0.43      0.00
   -4   15    6     -0.47      0.00
   -3   15    6      0.87      0.00
   -2   15    6     -0.10      0.00
   -1   15    6      0.28      0.00
    0   15    6     -0.33      0.00
    1   15    6     -1.16      0.00
    2   15    6      0.87      0.00
    3   15    6      0.29      0.00
    4   15    6     -0.96      0.00
    5   15    6     -0.38      0.00
    6   15    6      1.26      0.00
    7   15    6      0.62      0.00
    8   15    6     -0.87      0.00
    9   15    6     -1.43      0.00
  -11   16    6     -0.13      0.00
  -10   16    6     -0.59      0.00
   -9   16    6     -0.92      0.00
   -8   16    6      1.43      0.00
   -7   16    6      1.48      0.00
   -6   16    6     -0.89      0.00
   -5   16    6     -0.86      0.00
   -4   16    6      1.02      0.00
   -3   16    6     -0.18      0.00
   -2   16    6     -1.02      0.00
   -1   16    6      0.52      0.00
    0   16    6     -0.66      0.00
    1   16    6     -0.15      0.00
    2   16    6      0.63      0.00
    3   16    6     -0.18      0.00
    4   16    6     -0.34      0.00
    5   16    6      0.84      0.00
    6   16    6      0.65      0.00
    7   16    6     -1.26      0.00
    8   16    6     -1.18      0.00
  -10   17    6     -0.30      0.00
   -9   17    6      1.18      0.00
   -8   17    6      1.10      0.00
   -7   17    6     -1.37      0.00
   -6   17    6     -0.82      0.00
   -5   17    6      0.75      0.00
   -4   17    6      0.09      0.00
   -3   17    6     -1.51      0.00
   -2   17    6      0.80      0.00
   -1   17    6      0.56      0.00
    0   17    6     -0.89      0.00
    1   17    6      0.50      0.00
    2   17    6      0.72      0.00
    3   17    6     -0.30      0.00
    4   17    6     -0.23      0.00
    5   17    6      0.49      0.00
    6   17    6     -0.80      0.00
    7   17    6     -0.67      0.00
   -9   18    6      0.40      0.00
   -8   18    6     -1.22      0.00
   -7   18    6     -0.52      0.00
   -6   18    6      0.61      0.00
   -5   18    6      0.14      0.00
   -4   18    6     -1.02      0.00
   -3   18    6      0.57      0.00
   -2   18    6      1.28      0.00
   -1   18    6     -0.96      0.00
    0   18    6     -0.28      0.00
    1   18    6      1.08      0.00
    2   18    6     -0.19      0.00
    3   18    6     -0.87      0.00
    4   18    6      0.18      0.00
    5   18    6      0.12      0.00
    6   18    6     -0.21      0.00
   -7   19    6      0.56      0.00
   -6   19    6      0.03      0.00
   -5   19    6     -0.35      0.00
   -4   19    6      0.32      0.00
   -3   19    6      1.02      0.00
   -2   19    6     -0.73      0.00
   -1   19    6     -0.79      0.00
    0   19    6      0.80      0.00
    1   19    6      0.28      0.00
    2   19    6     -0.82      0.00
    3   19    6      0.01      0.00
    4   19    6      0.44      0.00
   -5   20    6      0.15      0.00
   -4   20    6      0.42      0.00
   -3   20    6     -0.58      0.00
   -2   20    6     -0.52      0.00
   -1   20    6      0.50      0.00
    0   20    6      0.62      0.00
    1   20    6     -0.53      0.00
    2   20    6     -0.13      0.00
  -16    1    7     -0.83      0.00
  -15    1    7     -0.28      0.00
  -14    1    7      0.87      0.00
  -13    1    7      0.11      0.00
  -12    1    7     -0.84      0.00
  -11    1    7      0.37      0.00
  -10    1    7      0.88      0.00
   -9    1    7      0.21      0.00
   -8    1    7     -1.05      0.00
   -7    1    7     -0.89      0.00
   -6    1    7      1.03      0.00
   -5    1    7      1.07      0.00
   -4    1    7     -1.11      0.00
   -3    1    7     -1.43      0.00
   -2    1    7      1.44      0.00
   -1    1    7      2.02      0.00
    0    1    7     -1.65      0.00
    1    1    7     -2.47      0.00
    2    1    7      1.39      0.00
    3    1    7      2.83      0.00
    4    1    7     -0.88      0.00
    5    1    7     -2.30      0.00
    6    1    7      0.33      0.00
    7    1    7      1.65      0.00
    8    1    7     -0.78      0.00
    9    1    7     -0.72      0.00
   10    1    7      0.67      0.00
   11    1    7      0.07      0.00
   12    1    7     -0.20      0.00
   13    1    7      0.04      0.00
  -16    2    7      0.18      0.00
  -15    2    7      1.31      0.00
  -14    2    7      0.16      0.00
  -13    2    7     -1.29      0.00
  -12    2    7      0.78      0.00
  -11    2    7      1.19      0.00
  -10    2    7     -0.81      0.00
   -9    2    7     -1.23      0.00
   -8    2    7     -0.61      0.00
   -7    2    7      1.41      0.00
   -6    2    7      0.96      0.00
   -5    2    7     -1.16      0.00
   -4    2    7     -1.22      0.00
   -3    2    7      1.58      0.00
   -2    2    7      1.83      0.00
   -1    2    7     -1.97      0.00
    0    2    7     -2.56      0.00
    1    2    7      1.91      0.00
    2    2    7      3.34      0.00
    3    2    7     -1.40      0.00
    4    2    7     -3.42      0.00
    5    2    7      0.51      0.00
    6    2    7      2.52      0.00
    7    2    7     -0.47      0.00
    8    2    7     -1.64      0.00
    9    2    7      0.97      0.00
   10    2    7      0.47      0.00
   11    2    7     -0.11      0.00
   12    2    7     -0.18      0.00
   13    2    7     -0.19      0.00
  -16    3    7      1.16      0.00
  -15    3    7     -0.22      0.00
  -14    3    7     -1.33      0.00
  -13    3    7      0.69      0.00
  -12    3    7      1.12      0.00
  -11    3    7     -1.73      0.00
  -10    3    7     -0.75      0.00
   -9    3    7      0.67      0.00
   -8    3    7      0.86      0.00
   -7    3    7      0.19      0.00
   -6    3    7     -0.64      0.00
   -5    3    7      0.12      0.00
   -4    3    7      0.60      0.00
   -3    3    7     -0.04      0.00
   -2    3    7     -1.06      0.00
   -1    3    7     -0.38      0.00
    0    3    7      1.16      0.00
    1    3    7      1.01      0.00
    2    3    7     -0.71      0.00
    3    3    7     -2.13      0.00
    4    3    7      0.47      0.00
    5    3    7      1.72      0.00
    6    3    7      0.25      0.00
    7    3    7     -1.46      0.00
    8    3    7      0.46      0.00
    9    3    7      0.60      0.00
   10    3    7      0.21      0.00
   11    3    7     -0.31      0.00
   12    3    7     -0.87      0.00
   13    3    7      0.47      0.00
  -16    4    7     -0.41      0.00
  -15    4    7     -0.97      0.00
  -14    4    7      0.04      0.00
  -13    4    7      1.14      0.00
  -12    4    7     -1.34      0.00
  -11    4    7     -0.41      0.00
  -10    4    7      1.45      0.00
   -9    4    7     -0.08      0.00
   -8    4    7     -0.29      0.00
   -7    4    7     -0.10      0.00
   -6    4    7      0.95      0.00
   -5    4    7     -0.35      0.00
   -4    4    7     -1.62      0.00
   -3    4    7     -0.10      0.00
   -2    4    7      2.06      0.00
   -1    4    7      0.22      0.00
    0    4    7     -1.94      0.00
    1    4    7      0.24      0.00
    2    4    7      0.71      0.00
    3    4    7     -0.27      0.00
    4    4    7      0.11      0.00
    5    4    7      0.38      0.00
    6    4    7     -0.19      0.00
    7    4    7     -0.26      0.00
    8    4    7      0.20      0.00
    9    4    7      0.19      0.00
   10    4    7      0.19      0.00
   11    4    7     -1.33      0.00
   12    4    7      0.23      0.00
   13    4    7      1.05      0.00
  -16    5    7     -0.43      0.00
  -15    5    7     -0.71      0.00
  -14    5    7      1.08      0.00
  -13    5    7      0.02      0.00
  -12    5    7     -0.64      0.00
  -11    5    7      0.93      0.00
  -10    5    7     -0.47      0.00
   -9    5    7     -0.21      0.00
   -8    5    7      0.45      0.00
   -7    5    7      0.25      0.00
   -6    5    7     -0.39      0.00
   -5    5    7     -1.63      0.00
   -4    5    7      0.35      0.00
   -3    5    7      2.53      0.00
   -2    5    7      0.08      0.00
   -1    5    7     -3.15      0.00
    0    5    7      0.21      0.00
    1    5    7      2.55      0.00
    2    5    7     -0.81      0.00
    3    5    7     -1.01      0.00
    4    5    7      0.20      0.00
    5    5    7      0.75      0.00
    6    5    7     -0.30      0.00
    7    5    7     -0.13      0.00
    8    5    7     -0.14      0.00
    9    5    7      0.66      0.00
   10    5    7     -0.80      0.00
   11    5    7     -0.41      0.00
   12    5    7      1.12      0.00
   13    5    7      0.23      0.00
  -16    6    7     -0.94      0.00
  -15    6    7      0.49      0.00
  -14    6    7      1.12      0.00
  -13    6    7     -1.06      0.00
  -12    6    7      0.02      0.00
  -11    6    7     -0.15      0.00
  -10    6    7      0.02      0.00
   -9    6    7      0.77      0.00
   -8    6    7     -0.85      0.00
   -7    6    7     -0.04      0.00
   -6    6    7     -0.23      0.00
   -5    6    7      0.10      0.00
   -4    6    7      1.13      0.00
   -3    6    7      0.37      0.00
   -2    6    7     -1.88      0.00
   -1    6    7     -0.51      0.00
    0    6    7      1.89      0.00
    1    6    7     -0.12      0.00
    2    6    7     -0.67      0.00
    3    6    7      0.08      0.00
    4    6    7      0.34      0.00
    5    6    7      0.33      0.00
    6    6    7     -0.08      0.00
    7    6    7     -0.40      0.00
    8    6    7      0.21      0.00
    9    6    7      0.17      0.00
   10    6    7     -0.75      0.00
   11    6    7      0.51      0.00
   12    6    7      0.38      0.00
  -15    7    7      1.14      0.00
  -14    7    7     -0.85      0.00
  -13    7    7     -0.33      0.00
  -12    7    7      0.38      0.00
  -11    7    7      0.01      0.00
  -10    7    7      0.68      0.00
   -9    7    7     -0.82      0.00
   -8    7    7     -0.13      0.00
   -7    7    7      1.16      0.00
   -6    7    7     -0.55      0.00
   -5    7    7     -0.30      0.00
   -4    7    7      0.51      0.00
   -3    7    7      0.34      0.00
   -2    7    7     -0.81      0.00
   -1    7    7     -0.30      0.00
    0    7    7      0.81      0.00
    1    7    7      1.00      0.00
    2    7    7     -0.29      0.00
    3    7    7     -1.21      0.00
    4    7    7      0.78      0.00
    5    7    7      0.31      0.00
    6    7    7     -0.63      0.00
    7    7    7     -0.55      0.00
    8    7    7      0.47      0.00
    9    7    7     -0.35      0.00
   10    7    7      0.00      0.00
   11    7    7      0.10      0.00
   12    7    7     -0.04      0.00
  -15    8    7     -0.11      0.00
  -14    8    7     -0.27      0.00
  -13    8    7      0.72      0.00
  -12    8    7     -0.18      0.00
  -11    8    7      0.40      0.00
  -10    8    7     -0.17      0.00
   -9    8    7     -0.48      0.00
   -8    8    7      1.18      0.00
   -7    8    7     -0.75      0.00
   -6    8    7     -0.78      0.00
   -5    8    7      0.73      0.00
   -4    8    7      1.10      0.00
   -3    8    7     -0.55      0.00
   -2    8    7     -1.85      0.00
   -1    8    7      0.66      0.00
    0    8    7      2.44      0.00
    1    8    7     -0.58      0.00
    2    8    7     -2.78      0.00
    3    8    7      0.64      0.00
    4    8    7      1.10      0.00
    5    8    7     -0.82      0.00
    6    8    7     -0.55      0.00
    7    8    7      0.25      0.00
    8    8    7      0.29      0.00
    9    8    7      0.21      0.00
   10    8    7      0.10      0.00
   11    8    7     -0.18      0.00
   12    8    7      0.63      0.00
  -15    9    7     -0.19      0.00
  -14    9    7      0.73      0.00
  -13    9    7     -0.08      0.00
  -12    9    7     -0.16      0.00
  -11    9    7     -0.12      0.00
  -10    9    7     -0.59      0.00
   -9    9    7      0.45      0.00
   -8    9    7     -0.30      0.00
   -7    9    7     -0.62      0.00
   -6    9    7      1.01      0.00
   -5    9    7      0.09      0.00
   -4    9    7     -0.43      0.00
   -3    9    7     -1.42      0.00
   -2    9    7     -0.01      0.00
   -1    9    7      2.24      0.00
    0    9    7     -0.10      0.00
    1    9    7     -2.94      0.00
    2    9    7      0.18      0.00
    3    9    7      1.97      0.00
    4    9    7     -0.64      0.00
    5    9    7     -0.17      0.00
    6    9    7      0.28      0.00
    7    9    7      0.37      0.00
    8    9    7      0.59      0.00
    9    9    7      0.27      0.00
   10    9    7     -0.65      0.00
   11    9    7      0.27      0.00
  -14   10    7      0.36      0.00
  -13   10    7     -1.00      0.00
  -12   10    7     -0.60      0.00
  -11   10    7     -0.15      0.00
  -10   10    7      0.44      0.00
   -9   10    7      0.15      0.00
   -8   10    7     -0.36      0.00
   -7   10    7      0.92      0.00
   -6   10    7     -0.82      0.00
   -5   10    7     -0.68      0.00
   -4   10    7      0.44      0.00
   -3   10    7     -0.07      0.00
   -2   10    7      0.74      0.00
   -1   10    7      0.66      0.00
    0   10    7     -1.34      0.00
    1   10    7     -0.48      0.00
    2   10    7      1.83      0.00
    3   10    7     -0.09      0.00
    4   10    7     -0.31      0.00
    5   10    7      0.44      0.00
    6   10    7     -0.01      0.00
    7   10    7      0.38      0.00
    8   10    7      0.06      0.00
    9   10    7     -0.89      0.00
   10   10    7     -0.59      0.00
   11   10    7      0.59      0.00
  -14   11    7     -1.42      0.00
  -13   11    7     -0.85      0.00
  -12   11    7      0.78      0.00
  -11   11    7      0.90      0.00
  -10   11    7      0.17      0.00
   -9   11    7     -0.40      0.00
   -8   11    7      0.48      0.00
   -7   11    7     -0.60      0.00
   -6   11    7     -0.86      0.00
   -5   11    7      1.84      0.00
   -4   11    7      0.27      0.00
   -3   11    7     -0.81      0.00
   -2   11    7      0.65      0.00
   -1   11    7      0.57      0.00
    0   11    7     -1.19      0.00
    1   11    7      0.31      0.00
    2   11    7      0.62      0.00
    3   11    7     -0.62      0.00
    4   11    7      0.24      0.00
    5   11    7     -0.05      0.00
    6   11    7     -0.05      0.00
    7   11    7     -0.32      0.00
    8   11    7     -0.72      0.00
    9   11    7     -0.49      0.00
   10   11    7      0.50      0.00
   11   11    7      0.58      0.00
  -13   12    7      1.44      0.00
  -12   12    7      0.85      0.00
  -11   12    7     -0.18      0.00
  -10   12    7     -0.56      0.00
   -9   12    7     -0.08      0.00
   -8   12    7      0.14      0.00
   -7   12    7     -0.69      0.00
   -6   12    7      1.57      0.00
   -5   12    7      0.37      0.00
   -4   12    7     -1.53      0.00
   -3   12    7      0.13      0.00
   -2   12    7      1.20      0.00
   -1   12    7     -1.29      0.00
    0   12    7     -1.25      0.00
    1   12    7      1.37      0.00
    2   12    7     -0.15      0.00
    3   12    7     -0.35      0.00
    4   12    7      0.45      0.00
    5   12    7     -0.03      0.00
    6   12    7     -0.55      0.00
    7   12    7     -0.65      0.00
    8   12    7      0.35      0.00
    9   12    7      0.60      0.00
   10   12    7      0.60      0.00
  -13   13    7      0.37      0.00
  -12   13    7     -0.58      0.00
  -11   13    7     -0.45      0.00
  -10   13    7     -0.49      0.00
   -9   13    7      0.59      0.00
   -8   13    7     -0.13      0.00
   -7   13    7      0.21      0.00
   -6   13    7      0.34      0.00
   -5   13    7     -1.20      0.00
   -4   13    7      0.01      0.00
   -3   13    7      0.61      0.00
   -2   13    7     -0.62      0.00
   -1   13    7     -1.27      0.00
    0   13    7      1.62      0.00
    1   13    7      0.79      0.00
    2   13    7     -1.04      0.00
    3   13    7      0.66      0.00
    4   13    7      0.33      0.00
    5   13    7     -0.88      0.00
    6   13    7     -0.90      0.00
    7   13    7      0.84      0.00
    8   13    7      1.17      0.00
    9   13    7     -0.08      0.00
  -12   14    7     -0.25      0.00
  -11   14    7     -0.43      0.00
  -10   14    7      0.54      0.00
   -9   14    7      0.59      0.00
   -8   14    7     -0.83      0.00
   -7   14    7      0.34      0.00
   -6   14    7     -0.13      0.00
   -5   14    7      0.06      0.00
   -4   14    7     -0.20      0.00
   -3   14    7     -0.09      0.00
   -2   14    7      0.12      0.00
   -1   14    7      0.88      0.00
    0   14    7      0.81      0.00
    1   14    7     -1.23      0.00
    2   14    7      0.08      0.00
    3   14    7      0.53      0.00
    4   14    7     -1.15      0.00
    5   14    7     -0.88      0.00
    6   14    7      1.01      0.00
    7   14    7      1.71      0.00
    8   14    7     -0.62      0.00
    9   14    7     -1.01      0.00
  -11   15    7      0.34      0.00
  -10   15    7      0.77      0.00
   -9   15    7     -0.81      0.00
   -8   15    7      0.06      0.00
   -7   15    7      0.71      0.00
   -6   15    7     -0.34      0.00
   -5   15    7     -0.64      0.00
   -4   15    7     -0.07      0.00
   -3   15    7      1.37      0.00
   -2   15    7     -0.11      0.00
   -1   15    7     -0.51      0.00
    0   15    7     -0.51      0.00
    1   15    7     -0.30      0.00
    2   15    7      0.36      0.00
    3   15    7     -0.76      0.00
    4   15    7     -0.28      0.00
    5   15    7      1.23      0.00
    6   15    7      1.42      0.00
    7   15    7     -0.85      0.00
    8   15    7     -1.37      0.00
  -10   16    7     -0.22      0.00
   -9   16    7     -0.26      0.00
   -8   16    7      0.49      0.00
   -7   16    7     -0.67      0.00
   -6   16    7     -0.57      0.00
   -5   16    7      0.10      0.00
   -4   16    7      1.42      0.00
   -3   16    7     -0.24      0.00
   -2   16    7     -1.78      0.00
   -1   16    7      0.52      0.00
    0   16    7      0.47      0.00
    1   16    7     -0.18      0.00
    2   16    7     -0.11      0.00
    3   16    7      0.33      0.00
    4   16    7      1.21      0.00
    5   16    7      0.33      0.00
    6   16    7     -1.06      0.00
    7   16    7     -1.13      0.00
   -9   17    7     -0.28      0.00
   -8   17    7     -0.36      0.00
   -7   17    7     -0.03      0.00
   -6   17    7      0.52      0.00
   -5   17    7      0.62      0.00
   -4   17    7      0.15      0.00
   -3   17    7     -1.62      0.00
   -2   17    7      0.66      0.00
   -1   17    7      1.47      0.00
    0   17    7     -0.75      0.00
    1   17    7     -0.23      0.00
    2   17    7      0.50      0.00
    3   17    7      0.77      0.00
    4   17    7     -0.46      0.00
    5   17    7     -1.25      0.00
    6   17    7     -0.40      0.00
   -7   18    7      0.44      0.00
   -6   18    7     -0.01      0.00
   -5   18    7      0.15      0.00
   -4   18    7     -0.53      0.00
   -3   18    7     -0.07      0.00
   -2   18    7      1.27      0.00
   -1   18    7     -0.80      0.00
    0   18    7     -0.75      0.00
    1   18    7      0.46      0.00
    2   18    7      0.40      0.00
    3   18    7     -0.33      0.00
    4   18    7     -1.18      0.00
   -5   19    7      0.01      0.00
   -4   19    7     -0.53      0.00
   -3   19    7      0.30      0.00
   -2   19    7     -0.28      0.00
   -1   19    7     -0.63      0.00
    0   19    7      0.42      0.00
    1   19    7      0.27      0.00
    2   19    7      0.05      0.00
  -16    0    8     -0.42      0.00
  -15    0    8     -0.61      0.00
  -14    0    8     -0.40      0.00
  -13    0    8     -0.40      0.00
  -12    0    8     -0.96      0.00
  -11    0    8      0.77      0.00
  -10    0    8      0.96      0.00
   -9    0    8     -0.23      0.00
   -8    0    8      0.98      0.00
   -7    0    8     -0.38      0.00
   -6    0    8     -1.15      0.00
   -5    0    8      0.61      0.00
   -4    0    8      0.99      0.00
   -3    0    8     -1.19      0.00
   -2    0    8     -0.92      0.00
   -1    0    8      1.16      0.00
    0    0    8      0.21      0.00
    1    0    8     -1.40      0.00
    2    0    8     -1.64      0.00
    3    0    8      1.33      0.00
    4    0    8      2.42      0.00
    5    0    8     -0.68      0.00
    6    0    8     -1.83      0.00
    7    0    8      1.12      0.00
    8    0    8      1.71      0.00
    9    0    8     -0.33      0.00
   10    0    8     -1.23      0.00
   11    0    8      0.53      0.00
   12    0    8     -0.46      0.00
  -16    1    8     -0.78      0.00
  -15    1    8     -0.05      0.00
  -14    1    8     -0.02      0.00
  -13    1    8     -0.16      0.00
  -12    1    8      0.50      0.00
  -11    1    8      1.89      0.00
  -10    1    8     -0.87      0.00
   -9    1    8     -0.19      0.00
   -8    1    8     -0.19      0.00
   -7    1    8     -0.53      0.00
   -6    1    8      0.01      0.00
   -5    1    8      0.62      0.00
   -4    1    8     -0.74      0.00
   -3    1    8     -0.38      0.00
   -2    1    8      0.69      0.00
   -1    1    8     -0.11      0.00
    0    1    8     -0.86      0.00
    1    1    8      0.24      0.00
    2    1    8      1.10      0.00
    3    1    8      1.47      0.00
    4    1    8     -0.59      0.00
    5    1    8     -1.38      0.00
    6    1    8      0.73      0.00
    7    1    8      1.21      0.00
    8    1    8     -0.47      0.00
    9    1    8     -1.50      0.00
   10    1    8      0.12      0.00
   11    1    8      0.28      0.00
   12    1    8     -0.45      0.00
  -16    2    8      0.08      0.00
  -15    2    8      0.49      0.00
  -14    2    8      0.25      0.00
  -13    2    8      0.16      0.00
  -12    2    8      1.49      0.00
  -11    2    8     -0.72      0.00
  -10    2    8     -1.88      0.00
   -9    2    8      0.60      0.00
   -8    2    8      0.51      0.00
   -7    2    8     -0.21      0.00
   -6    2    8     -0.54      0.00
   -5    2    8      0.25      0.00
   -4    2    8      0.65      0.00
   -3    2    8      0.02      0.00
   -2    2    8     -0.99      0.00
   -1    2    8      0.07      0.00
    0    2    8      2.17      0.00
    1    2    8      0.14      0.00
    2    2    8     -1.18      0.00
    3    2    8     -0.23      0.00
    4    2    8      0.23      0.00
    5    2    8      0.08      0.00
    6    2    8     -0.10      0.00
    7    2    8     -0.28      0.00
    8    2    8     -0.70      0.00
    9    2    8     -0.38      0.00
   10    2    8      0.79      0.00
   11    2    8     -0.20      0.00
   12    2    8      0.33      0.00
  -16    3    8      0.43      0.00
  -15    3    8      0.86      0.00
  -14    3    8     -0.36      0.00
  -13    3    8     -0.10      0.00
  -12    3    8      0.03      0.00
  -11    3    8     -1.77      0.00
  -10    3    8      0.81      0.00
   -9    3    8      0.97      0.00
   -8    3    8     -0.20      0.00
   -7    3    8     -1.08      0.00
   -6    3    8      0.51      0.00
   -5    3    8      1.27      0.00
   -4    3    8     -0.30      0.00
   -3    3    8     -1.59      0.00
   -2    3    8      0.52      0.00
   -1    3    8      2.51      0.00
    0    3    8     -0.38      0.00
    1    3    8     -3.14      0.00
    2    3    8      0.22      0.00
    3    3    8      1.83      0.00
    4    3    8     -0.16      0.00
    5    3    8     -1.39      0.00
    6    3    8     -0.10      0.00
    7    3    8      0.45      0.00
    8    3    8     -0.46      0.00
    9    3    8      0.55      0.00
   10    3    8      0.09      0.00
   11    3    8      0.20      0.00
   12    3    8      0.44      0.00
  -16    4    8      1.36      0.00
  -15    4    8     -0.59      0.00
  -14    4    8     -1.50      0.00
  -13    4    8      0.61      0.00
  -12    4    8      0.06      0.00
  -11    4    8      0.09      0.00
  -10    4    8      0.43      0.00
   -9    4    8     -0.27      0.00
   -8    4    8     -0.14      0.00
   -7    4    8     -0.13      0.00
   -6    4    8      0.96      0.00
   -5    4    8     -0.10      0.00
   -4    4    8     -1.22      0.00
   -3    4    8      0.13      0.00
   -2    4    8      1.54      0.00
   -1    4    8     -0.20      0.00
    0    4    8     -2.56      0.00
    1    4    8      0.01      0.00
    2    4    8      2.15      0.00
    3    4    8      0.04      0.00
    4    4    8     -1.55      0.00
    5    4    8     -0.30      0.00
    6    4    8      1.02      0.00
    7    4    8     -0.09      0.00
    8    4    8      0.21      0.00
    9    4    8      0.18      0.00
   10    4    8      0.02      0.00
   11    4    8      0.87      0.00
   12    4    8     -0.76      0.00
  -15    5    8     -1.70      0.00
  -14    5    8      0.66      0.00
  -13    5    8      1.31      0.00
  -12    5    8     -0.52      0.00
  -11    5    8     -0.38      0.00
  -10    5    8     -0.18      0.00
   -9    5    8      0.91      0.00
   -8    5    8     -0.49      0.00
   -7    5    8     -0.29      0.00
   -6    5    8      0.46      0.00
   -5    5    8     -0.23      0.00
   -4    5    8     -0.44      0.00
   -3    5    8      0.19      0.00
   -2    5    8      0.29      0.00
   -1    5    8     -0.38      0.00
    0    5    8     -0.51      0.00
    1    5    8      0.76      0.00
    2    5    8      0.56      0.00
    3    5    8     -0.55      0.00
    4    5    8     -0.62      0.00
    5    5    8      0.71      0.00
    6    5    8      0.44      0.00
    7    5    8      0.18      0.00
    8    5    8      0.21      0.00
    9    5    8     -0.40      0.00
   10    5    8      0.87      0.00
   11    5    8     -0.63      0.00
   12    5    8     -1.09      0.00
  -15    6    8      0.22      0.00
  -14    6    8      1.00      0.00
  -13    6    8     -0.41      0.00
  -12    6    8     -0.43      0.00
  -11    6    8     -0.10      0.00
  -10    6    8      0.64      0.00
   -9    6    8     -0.12      0.00
   -8    6    8     -1.09      0.00
   -7    6    8      0.68      0.00
   -6    6    8      0.60      0.00
   -5    6    8     -0.54      0.00
   -4    6    8     -0.74      0.00
   -3    6    8      0.55      0.00
   -2    6    8      1.24      0.00
   -1    6    8     -0.52      0.00
    0    6    8     -1.25      0.00
    1    6    8      0.82      0.00
    2    6    8      0.87      0.00
    3    6    8     -0.69      0.00
    4    6    8     -0.09      0.00
    5    6    8      0.63      0.00
    6    6    8      0.16      0.00
    7    6    8      0.27      0.00
    8    6    8     -0.83      0.00
    9    6    8      0.18      0.00
   10    6    8     -0.16      0.00
   11    6    8     -1.05      0.00
  -15    7    8      0.21      0.00
  -14    7    8     -0.05      0.00
  -13    7    8     -0.02      0.00
  -12    7    8     -0.23      0.00
  -11    7    8     -0.31      0.00
  -10    7    8      0.42      0.00
   -9    7    8     -0.42      0.00
   -8    7    8      0.25      0.00
   -7    7    8      0.70      0.00
   -6    7    8     -0.21      0.00
   -5    7    8     -0.78      0.00
   -4    7    8      0.28      0.00
   -3    7    8      1.38      0.00
   -2    7    8     -0.20      0.00
   -1    7    8     -2.11      0.00
    0    7    8      0.30      0.00
    1    7    8      1.89      0.00
    2    7    8     -0.40      0.00
    3    7    8     -0.70      0.00
    4    7    8      0.24      0.00
    5    7    8     -0.06      0.00
    6    7    8      0.30      0.00
    7    7    8     -0.76      0.00
    8    7    8     -0.64      0.00
    9    7    8      0.29      0.00
   10    7    8     -0.32      0.00
   11    7    8      0.35      0.00
  -14    8    8     -0.09      0.00
  -13    8    8     -0.19      0.00
  -12    8    8     -0.47      0.00
  -11    8    8      0.67      0.00
  -10    8    8      0.55      0.00
   -9    8    8     -0.23      0.00
   -8    8    8     -0.01      0.00
   -7    8    8      0.21      0.00
   -6    8    8     -0.27      0.00
   -5    8    8     -0.28      0.00
   -4    8    8      0.46      0.00
   -3    8    8      0.06      0.00
   -2    8    8     -1.33      0.00
   -1    8    8     -0.36      0.00
    0    8    8      1.91      0.00
    1    8    8      0.19      0.00
    2    8    8     -0.91      0.00
    3    8    8     -0.33      0.00
    4    8    8     -0.33      0.00
    5    8    8      0.42      0.00
    6    8    8     -0.11      0.00
    7    8    8     -0.85      0.00
    8    8    8      0.61      0.00
    9    8    8      0.30      0.00
   10    8    8      0.56      0.00
   11    8    8     -0.10      0.00
  -14    9    8      0.08      0.00
  -13    9    8      0.29      0.00
  -12    9    8      0.42      0.00
  -11    9    8      0.44      0.00
  -10    9    8     -0.35      0.00
   -9    9    8     -0.66      0.00
   -8    9    8      0.23      0.00
   -7    9    8      0.29      0.00
   -6    9    8     -0.68      0.00
   -5    9    8     -0.45      0.00
   -4    9    8      0.30      0.00
   -3    9    8      0.15      0.00
   -2    9    8     -0.40      0.00
   -1    9    8      0.96      0.00
    0    9    8      0.73      0.00
    1    9    8     -0.86      0.00
    2    9    8     -0.63      0.00
    3    9    8     -0.42      0.00
    4    9    8      0.59      0.00
    5    9    8      0.60      0.00
    6    9    8     -0.46      0.00
    7    9    8      0.50      0.00
    8    9    8      0.22      0.00
    9    9    8      0.20      0.00
   10    9    8     -0.06      0.00
  -14   10    8      0.84      0.00
  -13   10    8     -0.07      0.00
  -12   10    8     -0.24      0.00
  -11   10    8     -0.27      0.00
  -10   10    8     -0.47      0.00
   -9   10    8     -0.11      0.00
   -8   10    8      0.66      0.00
   -7   10    8     -0.56      0.00
   -6   10    8     -0.57      0.00
   -5   10    8      0.60      0.00
   -4   10    8      1.09      0.00
   -3   10    8     -0.16      0.00
   -2   10    8     -0.19      0.00
   -1   10    8      0.73      0.00
    0   10    8     -0.65      0.00
    1   10    8     -0.74      0.00
    2   10    8     -0.17      0.00
    3   10    8      0.58      0.00
    4   10    8      0.82      0.00
    5   10    8     -0.09      0.00
    6   10    8     -0.08      0.00
    7   10    8     -0.36      0.00
    8   10    8     -0.34      0.00
    9   10    8      0.38      0.00
   10   10    8     -0.61      0.00
  -13   11    8     -0.44      0.00
  -12   11    8     -0.09      0.00
  -11   11    8      0.01      0.00
  -10   11    8     -0.20      0.00
   -9   11    8      0.55      0.00
   -8   11    8      0.00      0.00
   -7   11    8     -0.24      0.00
   -6   11    8      0.67      0.00
   -5   11    8      0.75      0.00
   -4   11    8     -0.24      0.00
   -3   11    8     -0.72      0.00
   -2   11    8      0.30      0.00
   -1   11    8     -0.41      0.00
    0   11    8     -0.77      0.00
    1   11    8      0.24      0.00
    2   11    8      0.46      0.00
    3   11    8      0.57      0.00
    4   11    8     -0.02      0.00
    5   11    8     -0.52      0.00
    6   11    8     -0.71      0.00
    7   11    8     -0.17      0.00
    8   11    8      0.81      0.00
    9   11    8     -0.04      0.00
  -12   12    8      0.05      0.00
  -11   12    8      0.00      0.00
  -10   12    8      0.04      0.00
   -9   12    8      0.36      0.00
   -8   12    8      0.02      0.00
   -7   12    8      0.27      0.00
   -6   12    8     -0.39      0.00
   -5   12    8     -0.41      0.00
   -4   12    8     -0.20      0.00
   -3   12    8     -0.01      0.00
   -2   12    8     -0.50      0.00
   -1   12    8     -0.47      0.00
    0   12    8      0.63      0.00
    1   12    8      0.45      0.00
    2   12    8      0.27      0.00
    3   12    8     -0.02      0.00
    4   12    8     -0.54      0.00
    5   12    8     -0.55      0.00
    6   12    8      0.33      0.00
    7   12    8      0.99      0.00
    8   12    8     -0.07      0.00
    9   12    8     -0.13      0.00
  -12   13    8      0.04      0.00
  -11   13    8     -0.26      0.00
  -10   13    8      0.26      0.00
   -9   13    8      0.24      0.00
   -8   13    8     -0.25      0.00
   -7   13    8     -1.05      0.00
   -6   13    8     -0.18      0.00
   -5   13    8      0.93      0.00
   -4   13    8      0.01      0.00
   -3   13    8     -1.01      0.00
   -2   13    8      0.13      0.00
   -1   13    8      1.16      0.00
    0   13    8      0.31      0.00
    1   13    8     -0.03      0.00
    2   13    8      0.01      0.00
    3   13    8     -0.60      0.00
    4   13    8     -0.32      0.00
    5   13    8      0.52      0.00
    6   13    8      0.81      0.00
    7   13    8     -0.46      0.00
    8   13    8     -0.41      0.00
  -11   14    8      0.18      0.00
  -10   14    8      0.39      0.00
   -9   14    8     -0.38      0.00
   -8   14    8     -0.72      0.00
   -7   14    8      0.28      0.00
   -6   14    8      1.47      0.00
   -5   14    8      0.02      0.00
   -4   14    8     -1.41      0.00
   -3   14    8      0.43      0.00
   -2   14    8      1.70      0.00
   -1   14    8     -0.21      0.00
    0   14    8     -0.68      0.00
    1   14    8      0.00      0.00
    2   14    8     -0.62      0.00
    3   14    8     -0.28      0.00
    4   14    8      0.65      0.00
    5   14    8      0.49      0.00
    6   14    8     -0.54      0.00
    7   14    8     -0.81      0.00
  -10   15    8     -0.29      0.00
   -9   15    8     -0.11      0.00
   -8   15    8      0.37      0.00
   -7   15    8      0.85      0.00
   -6   15    8     -0.14      0.00
   -5   15    8     -1.13      0.00
   -4   15    8      0.11      0.00
   -3   15    8      1.52      0.00
   -2   15    8     -0.57      0.00
   -1   15    8     -1.36      0.00
    0   15    8     -0.01      0.00
    1   15    8     -0.03      0.00
    2   15    8     -0.03      0.00
    3   15    8      0.74      0.00
    4   15    8      0.25      0.00
    5   15    8     -0.52      0.00
    6   15    8     -0.70      0.00
   -9   16    8      0.12      0.00
   -8   16    8     -0.07      0.00
   -7   16    8     -0.13      0.00
   -6   16    8     -0.38      0.00
   -5   16    8     -0.33      0.00
   -4   16    8      0.48      0.00
   -3   16    8     -0.19      0.00
   -2   16    8     -1.05      0.00
   -1   16    8     -0.03      0.00
    0   16    8      0.81      0.00
    1   16    8      0.61      0.00
    2   16    8      0.21      0.00
    3   16    8     -0.26      0.00
    4   16    8     -0.51      0.00
    5   16    8     -0.15      0.00
   -7   17    8      0.04      0.00
   -6   17    8     -0.43      0.00
   -5   17    8     -0.32      0.00
   -4   17    8      0.54      0.00
   -3   17    8      0.18      0.00
   -2   17    8     -0.23      0.00
   -1   17    8      0.66      0.00
    0   17    8      1.14      0.00
    1   17    8     -0.62      0.00
    2   17    8     -1.15      0.00
    3   17    8     -0.15      0.00
    4   17    8      0.49      0.00
   -5   18    8      0.73      0.00
   -4   18    8      0.88      0.00
   -3   18    8     -0.49      0.00
   -2   18    8     -0.39      0.00
   -1   18    8      1.08      0.00
    0   18    8     -0.73      0.00
    1   18    8     -1.74      0.00
    2   18    8      0.42      0.00
  -15    1    9     -0.42      0.00
  -14    1    9      0.15      0.00
  -13    1    9     -0.32      0.00
  -12    1    9     -0.38      0.00
  -11    1    9      0.78      0.00
  -10    1    9      0.09      0.00
   -9    1    9     -0.76      0.00
   -8    1    9      0.08      0.00
   -7    1    9      1.19      0.00
   -6    1    9     -0.29      0.00
   -5    1    9     -1.14      0.00
   -4    1    9      0.41      0.00
   -3    1    9      0.61      0.00
   -2    1    9     -0.14      0.00
   -1    1    9     -0.53      0.00
    0    1    9      0.30      0.00
    1    1    9      0.68      0.00
    2    1    9     -0.93      0.00
    3    1    9     -1.22      0.00
    4    1    9      0.68      0.00
    5    1    9      1.07      0.00
    6    1    9     -0.30      0.00
    7    1    9     -0.49      0.00
    8    1    9     -0.08      0.00
    9    1    9      0.82      0.00
   10    1    9      0.28      0.00
   11    1    9     -0.26      0.00
  -15    2    9     -0.11      0.00
  -14    2    9      0.55      0.00
  -13    2    9     -0.53      0.00
  -12    2    9      0.37      0.00
  -11    2    9      0.45      0.00
  -10    2    9     -0.44      0.00
   -9    2    9      0.02      0.00
   -8    2    9      0.72      0.00
   -7    2    9     -0.02      0.00
   -6    2    9     -1.68      0.00
   -5    2    9      0.41      0.00
   -4    2    9      0.93      0.00
   -3    2    9     -0.23      0.00
   -2    2    9     -0.33      0.00
   -1    2    9     -0.07      0.00
    0    2    9      0.12      0.00
    1    2    9     -0.77      0.00
    2    2    9     -0.67      0.00
    3    2    9      0.98      0.00
    4    2    9      1.65      0.00
    5    2    9     -0.40      0.00
    6    2    9     -0.59      0.00
    7    2    9     -0.12      0.00
    8    2    9      0.97      0.00
    9    2    9      0.34      0.00
   10    2    9     -0.98      0.00
   11    2    9     -0.67      0.00
  -15    3    9      1.23      0.00
  -14    3    9     -0.30      0.00
  -13    3    9     -0.65      0.00
  -12    3    9      0.51      0.00
  -11    3    9      0.52      0.00
  -10    3    9     -0.13      0.00
   -9    3    9     -0.86      0.00
   -8    3    9      0.16      0.00
   -7    3    9     -0.41      0.00
   -6    3    9     -0.17      0.00
   -5    3    9      0.82      0.00
   -4    3    9      0.02      0.00
   -3    3    9      0.24      0.00
   -2    3    9     -0.33      0.00
   -1    3    9     -1.08      0.00
    0    3    9      0.21      0.00
    1    3    9      1.37      0.00
    2    3    9      0.55      0.00
    3    3    9      0.22      0.00
    4    3    9      0.04      0.00
    5    3    9     -0.54      0.00
    6    3    9     -0.37      0.00
    7    3    9     -0.01      0.00
    8    3    9      0.55      0.00
    9    3    9     -1.41      0.00
   10    3    9     -0.48      0.00
   11    3    9      0.35      0.00
  -15    4    9      0.04      0.00
  -14    4    9     -0.80      0.00
  -13    4    9      0.15      0.00
  -12    4    9      0.77      0.00
  -11    4    9     -0.05      0.00
  -10    4    9     -1.51      0.00
   -9    4    9     -0.13      0.00
   -8    4    9      1.58      0.00
   -7    4    9     -0.44      0.00
   -6    4    9     -0.01      0.00
   -5    4    9      0.47      0.00
   -4    4    9      0.64      0.00
   -3    4    9     -0.52      0.00
   -2    4    9     -1.74      0.00
   -1    4    9      0.67      0.00
    0    4    9      3.02      0.00
    1    4    9     -0.15      0.00
    2    4    9     -2.36      0.00
    3    4    9      0.36      0.00
    4    4    9      0.21      0.00
    5    4    9     -0.74      0.00
    6    4    9     -0.88      0.00
    7    4    9      0.91      0.00
    8    4    9     -0.76      0.00
    9    4    9     -0.29      0.00
   10    4    9      1.00      0.00
   11    4    9      0.45      0.00
  -15    5    9     -0.07      0.00
  -14    5    9     -0.04      0.00
  -13    5    9     -0.13      0.00
  -12    5    9      0.38      0.00
  -11    5    9     -0.52      0.00
  -10    5    9     -0.38      0.00
   -9    5    9      1.81      0.00
   -8    5    9      0.16      0.00
   -7    5    9     -1.19      0.00
   -6    5    9      0.44      0.00
   -5    5    9      0.63      0.00
   -4    5    9     -0.64      0.00
   -3    5    9     -1.59      0.00
   -2    5    9      0.55      0.00
   -1    5    9      3.00      0.00
    0    5    9     -0.39      0.00
    1    5    9     -3.77      0.00
    2    5    9      0.00      0.00
    3    5    9      1.57      0.00
    4    5    9     -0.49      0.00
    5    5    9     -0.80      0.00
    6    5    9      0.77      0.00
    7    5    9      0.52      0.00
    8    5    9     -0.66      0.00
    9    5    9      1.63      0.00
   10    5    9     -0.21      0.00
  -14    6    9     -0.75      0.00
  -13    6    9      0.45      0.00
  -12    6    9      0.80      0.00
  -11    6    9     -0.40      0.00
  -10    6    9      0.28      0.00
   -9    6    9      0.60      0.00
   -8    6    9     -1.50      0.00
   -7    6    9     -0.27      0.00
   -6    6    9      0.51      0.00
   -5    6    9     -0.25      0.00
   -4    6    9     -0.96      0.00
   -3    6    9      0.39      0.00
   -2    6    9      1.85      0.00
   -1    6    9     -0.26      0.00
    0    6    9     -3.14      0.00
    1    6    9     -0.45      0.00
    2    6    9      2.32      0.00
    3    6    9      0.59      0.00
    4    6    9     -0.27      0.00
    5    6    9     -0.17      0.00
    6    6    9      1.01      0.00
    7    6    9     -0.85      0.00
    8    6    9      1.15      0.00
    9    6    9      0.01      0.00
   10    6    9     -1.21      0.00
  -14    7    9     -0.05      0.00
  -13    7    9      0.97      0.00
  -12    7    9     -0.29      0.00
  -11    7    9     -0.78      0.00
  -10    7    9      0.09      0.00
   -9    7    9     -0.68      0.00
   -8    7    9     -0.74      0.00
   -7    7    9      0.69      0.00
   -6    7    9      0.46      0.00
   -5    7    9     -0.12      0.00
   -4    7    9      0.03      0.00
   -3    7    9      0.79      0.00
   -2    7    9     -0.15      0.00
   -1    7    9     -1.56      0.00
    0    7    9     -0.26      0.00
    1    7    9      1.87      0.00
    2    7    9      1.39      0.00
    3    7    9     -0.04      0.00
    4    7    9     -1.29      0.00
    5    7    9      0.16      0.00
    6    7    9     -0.15      0.00
    7    7    9     -0.17      0.00
    8    7    9      1.00      0.00
    9    7    9     -1.79      0.00
   10    7    9      0.15      0.00
  -14    8    9      0.10      0.00
  -13    8    9      0.02      0.00
  -12    8    9     -0.47      0.00
  -11    8    9     -0.52      0.00
  -10    8    9      0.04      0.00
   -9    8    9     -0.15      0.00
   -8    8    9      0.93      0.00
   -7    8    9      0.81      0.00
   -6    8    9      0.28      0.00
   -5    8    9     -0.50      0.00
   -4    8    9      0.06      0.00
   -3    8    9      0.09      0.00
   -2    8    9     -0.49      0.00
   -1    8    9      0.25      0.00
    0    8    9      0.84      0.00
    1    8    9      0.90      0.00
    2    8    9     -0.15      0.00
    3    8    9     -1.65      0.00
    4    8    9     -0.83      0.00
    5    8    9      0.67      0.00
    6    8    9     -0.59      0.00
    7    8    9      1.47      0.00
    8    8    9     -0.81      0.00
    9    8    9     -1.01      0.00
  -13    9    9      0.11      0.00
  -12    9    9     -0.46      0.00
  -11    9    9      0.03      0.00
  -10    9    9      0.77      0.00
   -9    9    9      0.72      0.00
   -8    9    9      0.45      0.00
   -7    9    9     -0.12      0.00
   -6    9    9     -0.69      0.00
   -5    9    9     -0.53      0.00
   -4    9    9      0.45      0.00
   -3    9    9     -0.22      0.00
   -2    9    9      0.21      0.00
   -1    9    9      0.09      0.00
    0    9    9     -0.29      0.00
    1    9    9     -0.11      0.00
    2    9    9     -1.00      0.00
    3    9    9     -0.75      0.00
    4    9    9      0.76      0.00
    5    9    9      0.16      0.00
    6    9    9      1.14      0.00
    7    9    9      0.36      0.00
    8    9    9     -2.01      0.00
    9    9    9      0.75      0.00
  -13   10    9     -0.07      0.00
  -12   10    9     -0.07      0.00
  -11   10    9      0.83      0.00
  -10   10    9      0.21      0.00
   -9   10    9     -0.24      0.00
   -8   10    9     -0.55      0.00
   -7   10    9     -0.48      0.00
   -6   10    9     -0.63      0.00
   -5   10    9      0.46      0.00
   -4   10    9     -0.15      0.00
   -3   10    9     -0.26      0.00
   -2   10    9      0.06      0.00
   -1   10    9     -0.73      0.00
    0   10    9      0.35      0.00
    1   10    9      0.21      0.00
    2   10    9     -0.20      0.00
    3   10    9      0.33      0.00
    4   10    9      0.53      0.00
    5   10    9      0.66      0.00
    6   10    9      0.42      0.00
    7   10    9     -1.94      0.00
    8   10    9      0.05      0.00
    9   10    9      1.30      0.00
  -12   11    9      0.25      0.00
  -11   11    9     -0.11      0.00
  -10   11    9     -0.52      0.00
   -9   11    9     -0.36      0.00
   -8   11    9     -0.13      0.00
   -7   11    9     -0.24      0.00
   -6   11    9      0.20      0.00
   -5   11    9      0.05      0.00
   -4   11    9     -0.27      0.00
   -3   11    9      0.56      0.00
   -2   11    9     -0.23      0.00
   -1   11    9      0.61      0.00
    0   11    9      1.04      0.00
    1   11    9     -0.42      0.00
    2   11    9     -0.32      0.00
    3   11    9      0.14      0.00
    4   11    9      0.33      0.00
    5   11    9      0.06      0.00
    6   11    9     -1.12      0.00
    7   11    9     -0.30      0.00
    8   11    9      1.06      0.00
  -11   12    9     -0.30      0.00
  -10   12    9     -0.03      0.00
   -9   12    9      0.11      0.00
   -8   12    9      0.08      0.00
   -7   12    9      0.05      0.00
   -6   12    9      0.26      0.00
   -5   12    9      0.12      0.00
   -4   12    9      0.87      0.00
   -3   12    9      0.06      0.00
   -2   12    9      0.06      0.00
   -1   12    9      0.86      0.00
    0   12    9     -1.01      0.00
    1   12    9     -1.07      0.00
    2   12    9      0.14      0.00
    3   12    9      0.31      0.00
    4   12    9      0.10      0.00
    5   12    9     -0.25      0.00
    6   12    9     -0.31      0.00
    7   12    9      0.40      0.00
  -11   13    9     -0.07      0.00
  -10   13    9      0.12      0.00
   -9   13    9      0.11      0.00
   -8   13    9      0.02      0.00
   -7   13    9      0.37      0.00
   -6   13    9      0.12      0.00
   -5   13    9      0.44      0.00
   -4   13    9     -0.24      0.00
   -3   13    9     -0.67      0.00
   -2   13    9      0.20      0.00
   -1   13    9     -0.84      0.00
    0   13    9     -1.21      0.00
    1   13    9      0.71      0.00
    2   13    9      0.77      0.00
    3   13    9      0.11      0.00
    4   13    9      0.12      0.00
    5   13    9     -0.32      0.00
    6   13    9     -0.21      0.00
  -10   14    9      0.07      0.00
   -9   14    9      0.05      0.00
   -8   14    9      0.26      0.00
   -7   14    9     -0.24      0.00
   -6   14    9     -0.33      0.00
   -5   14    9     -0.17      0.00
   -4   14    9     -0.52      0.00
   -3   14    9      0.00      0.00
   -2   14    9     -0.20      0.00
   -1   14    9     -0.37      0.00
    0   14    9      0.88      0.00
    1   14    9      1.05      0.00
    2   14    9     -0.22      0.00
    3   14    9     -0.15      0.00
    4   14    9     -0.27      0.00
    5   14    9     -0.50      0.00
    6   14    9      0.42      0.00
   -9   15    9      0.01      0.00
   -8   15    9     -0.36      0.00
   -7   15    9     -0.49      0.00
   -6   15    9      0.48      0.00
   -5   15    9      0.17      0.00
   -4   15    9     -0.02      0.00
   -3   15    9     -0.12      0.00
   -2   15    9      0.50      0.00
   -1   15    9      0.56      0.00
    0   15    9      0.30      0.00
    1   15    9     -0.46      0.00
    2   15    9     -0.47      0.00
    3   15    9     -0.08      0.00
    4   15    9     -0.33      0.00
   -7   16    9      0.74      0.00
   -6   16    9      0.29      0.00
   -5   16    9     -0.42      0.00
   -4   16    9     -0.38      0.00
   -3   16    9      0.58      0.00
   -2   16    9      0.42      0.00
   -1   16    9     -0.84      0.00
    0   16    9     -0.37      0.00
    1   16    9     -0.12      0.00
    2   16    9      0.13      0.00
    3   16    9      0.01      0.00
   -5   17    9     -0.16      0.00
   -4   17    9      0.32      0.00
   -3   17    9      0.39      0.00
   -2   17    9     -1.05      0.00
   -1   17    9     -0.14      0.00
    0   17    9      0.64      0.00
    1   17    9      0.17      0.00
  -14    0   10      0.34      0.00
  -13    0   10      0.33      0.00
  -12    0   10     -0.65      0.00
  -11    0   10     -0.65      0.00
  -10    0   10      0.61      0.00
   -9    0   10     -0.08      0.00
   -8    0   10     -1.46      0.00
   -7    0   10      1.02      0.00
   -6    0   10      2.20      0.00
   -5    0   10      0.07      0.00
   -4    0   10     -1.90      0.00
   -3    0   10     -0.65      0.00
   -2    0   10      0.76      0.00
   -1    0   10      0.39      0.00
    0    0   10     -1.07      0.00
    1    0   10      1.04      0.00
    2    0   10      0.48      0.00
    3    0   10     -1.60      0.00
    4    0   10     -0.94      0.00
    5    0   10      1.19      0.00
    6    0   10      0.55      0.00
    7    0   10     -0.11      0.00
    8    0   10     -0.65      0.00
    9    0   10     -0.12      0.00
   10    0   10      0.66      0.00
  -14    1   10     -0.32      0.00
  -13    1   10     -0.09      0.00
  -12    1   10     -0.57      0.00
  -11    1   10      0.19      0.00
  -10    1   10      0.38      0.00
   -9    1   10     -0.40      0.00
   -8    1   10      0.48      0.00
   -7    1   10      1.29      0.00
   -6    1   10     -0.42      0.00
   -5    1   10     -1.69      0.00
   -4    1   10     -0.57      0.00
   -3    1   10      0.70      0.00
   -2    1   10      0.72      0.00
   -1    1   10     -0.50      0.00
    0    1   10      0.08      0.00
    1    1   10      0.14      0.00
    2    1   10     -0.71      0.00
    3    1   10     -0.23      0.00
    4    1   10      1.03      0.00
    5    1   10      0.38      0.00
    6    1   10     -0.24      0.00
    7    1   10     -0.32      0.00
    8    1   10      0.12      0.00
    9    1   10      0.33      0.00
   10    1   10      0.33      0.00
  -14    2   10      0.28      0.00
  -13    2   10      0.20      0.00
  -12    2   10     -0.62      0.00
  -11    2   10      0.34      0.00
  -10    2   10      0.60      0.00
   -9    2   10     -0.29      0.00
   -8    2   10     -0.17      0.00
   -7    2   10     -0.22      0.00
   -6    2   10     -0.17      0.00
   -5    2   10     -0.58      0.00
   -4    2   10      0.33      0.00
   -3    2   10      0.65      0.00
   -2    2   10      0.58      0.00
   -1    2   10     -0.61      0.00
    0    2   10     -0.57      0.00
    1    2   10      0.51      0.00
    2    2   10      1.22      0.00
    3    2   10     -0.57      0.00
    4    2   10     -0.47      0.00
    5    2   10      0.20      0.00
    6    2   10      0.27      0.00
    7    2   10     -0.07      0.00
    8    2   10     -0.21      0.00
    9    2   10     -0.19      0.00
   10    2   10      0.10      0.00
  -14    3   10      0.72      0.00
  -13    3   10     -0.63      0.00
  -12    3   10     -0.35      0.00
  -11    3   10      0.73      0.00
  -10    3   10     -0.30      0.00
   -9    3   10     -0.56      0.00
   -8    3   10      0.32      0.00
   -7    3   10      0.83      0.00
   -6    3   10     -0.53      0.00
   -5    3   10     -0.52      0.00
   -4    3   10      0.82      0.00
   -3    3   10      0.83      0.00
   -2    3   10     -0.46      0.00
   -1    3   10     -1.17      0.00
    0    3   10      0.70      0.00
    1    3   10      1.74      0.00
    2    3   10     -1.54      0.00
    3    3   10     -1.63      0.00
    4    3   10      1.11      0.00
    5    3   10      0.68      0.00
    6    3   10     -0.50      0.00
    7    3   10     -0.36      0.00
    8    3   10     -0.19      0.00
    9    3   10      0.48      0.00
  -14    4   10      0.31      0.00
  -13    4   10     -0.97      0.00
  -12    4   10      0.19      0.00
  -11    4   10      0.31      0.00
  -10    4   10      0.19      0.00
   -9    4   10      0.41      0.00
   -8    4   10      0.17      0.00
   -7    4   10     -0.40      0.00
   -6    4   10     -0.85      0.00
   -5    4   10      0.87      0.00
   -4    4   10      0.51      0.00
   -3    4   10     -0.45      0.00
   -2    4   10     -1.03      0.00
   -1    4   10      0.13      0.00
    0    4   10      1.09      0.00
    1    4   10     -0.85      0.00
    2    4   10     -1.68      0.00
    3    4   10      1.19      0.00
    4    4   10      0.92      0.00
    5    4   10     -0.47      0.00
    6    4   10     -0.06      0.00
    7    4   10      0.13      0.00
    8    4   10      0.13      0.00
    9    4   10      0.13      0.00
  -14    5   10     -0.65      0.00
  -13    5   10     -0.41      0.00
  -12    5   10      0.82      0.00
  -11    5   10      0.61      0.00
  -10    5   10      0.04      0.00
   -9    5   10     -0.96      0.00
   -8    5   10     -0.26      0.00
   -7    5   10     -0.06      0.00
   -6    5   10      0.41      0.00
   -5    5   10      0.22      0.00
   -4    5   10     -0.63      0.00
   -3    5   10     -0.34      0.00
   -2    5   10      0.01      0.00
   -1    5   10      0.34      0.00
    0    5   10      0.25      0.00
    1    5   10     -0.42      0.00
    2    5   10      0.21      0.00
    3    5   10      0.64      0.00
    4    5   10      0.23      0.00
    5    5   10      0.23      0.00
    6    5   10     -0.17      0.00
    7    5   10     -0.45      0.00
    8    5   10     -0.34      0.00
    9    5   10      0.21      0.00
  -13    6   10      0.61      0.00
  -12    6   10      0.22      0.00
  -11    6   10     -0.32      0.00
  -10    6   10     -0.82      0.00
   -9    6   10     -0.18      0.00
   -8    6   10      0.71      0.00
   -7    6   10     -0.04      0.00
   -6    6   10     -0.03      0.00
   -5    6   10     -0.29      0.00
   -4    6   10      0.11      0.00
   -3    6   10      0.34      0.00
   -2    6   10      0.01      0.00
   -1    6   10      0.45      0.00
    0    6   10      0.57      0.00
    1    6   10     -0.54      0.00
    2    6   10     -0.28      0.00
    3    6   10      0.81      0.00
    4    6   10      0.34      0.00
    5    6   10     -0.84      0.00
    6    6   10     -0.81      0.00
    7    6   10     -0.29      0.00
    8    6   10      0.38      0.00
    9    6   10      0.74      0.00
  -13    7   10     -0.24      0.00
  -12    7   10     -0.38      0.00
  -11    7   10      0.21      0.00
  -10    7   10     -0.06      0.00
   -9    7   10      0.42      0.00
   -8    7   10     -0.09      0.00
   -7    7   10     -0.10      0.00
   -6    7   10      0.22      0.00
   -5    7   10      0.08      0.00
   -4    7   10      0.22      0.00
   -3    7   10      0.02      0.00
   -2    7   10      0.08      0.00
   -1    7   10      0.52      0.00
    0    7   10     -0.56      0.00
    1    7   10     -0.94      0.00
    2    7   10      0.55      0.00
    3    7   10      0.41      0.00
    4    7   10     -0.83      0.00
    5    7   10     -0.83      0.00
    6    7   10      0.15      0.00
    7    7   10      0.41      0.00
    8    7   10      1.15      0.00
  -13    8   10     -0.13      0.00
  -12    8   10      0.56      0.00
  -11    8   10      0.19      0.00
  -10    8   10     -0.27      0.00
   -9    8   10      0.06      0.00
   -8    8   10     -0.01      0.00
   -7    8   10      0.34      0.00
   -6    8   10     -0.14      0.00
   -5    8   10     -0.20      0.00
   -4    8   10      0.11      0.00
   -3    8   10      0.03      0.00
   -2    8   10      0.08      0.00
   -1    8   10     -0.46      0.00
    0    8   10     -0.81      0.00
    1    8   10      0.04      0.00
    2    8   10      0.47      0.00
    3    8   10     -0.12      0.00
    4    8   10     -0.41      0.00
    5    8   10      0.08      0.00
    6    8   10      0.72      0.00
    7    8   10      0.70      0.00
    8    8   10      0.11      0.00
  -12    9   10      0.32      0.00
  -11    9   10     -0.29      0.00
  -10    9   10      0.04      0.00
   -9    9   10     -0.11      0.00
   -8    9   10      0.14      0.00
   -7    9   10     -0.15      0.00
   -6    9   10     -0.31      0.00
   -5    9   10      0.14      0.00
   -4    9   10      0.22      0.00
   -3    9   10     -0.16      0.00
   -2    9   10     -0.58      0.00
   -1    9   10     -0.36      0.00
    0    9   10      0.07      0.00
    1    9   10      0.45      0.00
    2    9   10      0.43      0.00
    3    9   10      0.16      0.00
    4    9   10     -0.18      0.00
    5    9   10      0.73      0.00
    6    9   10      0.09      0.00
    7    9   10     -0.20      0.00
  -11   10   10     -0.15      0.00
  -10   10   10     -0.30      0.00
   -9   10   10     -0.16      0.00
   -8   10   10      0.22      0.00
   -7   10   10     -0.23      0.00
   -6   10   10      0.10      0.00
   -5   10   10      0.16      0.00
   -4   10   10     -0.13      0.00
   -3   10   10     -0.54      0.00
   -2   10   10      0.01      0.00
   -1   10   10      0.48      0.00
    0   10   10      0.28      0.00
    1   10   10      0.56      0.00
    2   10   10      0.32      0.00
    3   10   10     -0.06      0.00
    4   10   10     -0.02      0.00
    5   10   10     -0.39      0.00
    6   10   10     -0.74      0.00
    7   10   10      0.37      0.00
  -11   11   10     -0.15      0.00
  -10   11   10     -0.31      0.00
   -9   11   10      0.49      0.00
   -8   11   10     -0.03      0.00
   -7   11   10     -0.01      0.00
   -6   11   10      0.11      0.00
   -5   11   10      0.07      0.00
   -4   11   10     -0.13      0.00
   -3   11   10      0.16      0.00
   -2   11   10      0.61      0.00
   -1   11   10     -0.09      0.00
    0   11   10      0.46      0.00
    1   11   10      0.22      0.00
    2   11   10     -0.15      0.00
    3   11   10     -0.71      0.00
    4   11   10     -0.91      0.00
    5   11   10     -0.48      0.00
    6   11   10      1.09      0.00
  -10   12   10      0.18      0.00
   -9   12   10      0.29      0.00
   -8   12   10     -0.09      0.00
   -7   12   10      0.29      0.00
   -6   12   10      0.15      0.00
   -5   12   10      0.09      0.00
   -4   12   10     -0.13      0.00
   -3   12   10      0.21      0.00
   -2   12   10     -0.33      0.00
   -1   12   10      0.17      0.00
    0   12   10      0.35      0.00
    1   12   10     -0.79      0.00
    2   12   10     -0.71      0.00
    3   12   10     -0.93      0.00
    4   12   10      0.39      0.00
    5   12   10      1.28      0.00
   -9   13   10      0.00      0.00
   -8   13   10      0.28      0.00
   -7   13   10     -0.05      0.00
   -6   13   10     -0.33      0.00
   -5   13   10     -0.54      0.00
   -4   13   10     -0.19      0.00
   -3   13   10      0.01      0.00
   -2   13   10     -0.05      0.00
   -1   13   10      0.45      0.00
    0   13   10     -0.96      0.00
    1   13   10     -0.46      0.00
    2   13   10     -0.05      0.00
    3   13   10      0.78      0.00
    4   13   10      1.14      0.00
   -8   14   10     -0.30      0.00
   -7   14   10     -0.73      0.00
   -6   14   10     -0.41      0.00
   -5   14   10      0.10      0.00
   -4   14   10      0.61      0.00
   -3   14   10      0.08      0.00
   -2   14   10      0.07      0.00
   -1   14   10     -0.28      0.00
    0   14   10     -0.29      0.00
    1   14   10      0.66      0.00
    2   14   10      0.44      0.00
    3   14   10      0.65      0.00
   -6   15   10      0.68      0.00
   -5   15   10      0.68      0.00
   -4   15   10      0.13      0.00
   -3   15   10     -0.36      0.00
   -2   15   10      0.16      0.00
   -1   15   10     -0.08      0.00
    0   15   10      0.31      0.00
    1   15   10      0.07      0.00
    2   15   10      0.08      0.00
   -2   16   10      0.01      0.00
  -13    1   11      0.80      0.00
  -12    1   11     -0.26      0.00
  -11    1   11     -0.37      0.00
  -10    1   11      0.65      0.00
   -9    1   11      0.47      0.00
   -8    1   11     -0.51      0.00
   -7    1   11     -1.17      0.00
   -6    1   11     -0.20      0.00
   -5    1   11      1.24      0.00
   -4    1   11     -0.19      0.00
   -3    1   11     -0.82      0.00
   -2    1   11      0.36      0.00
   -1    1   11      0.96      0.00
    0    1   11     -0.52      0.00
    1    1   11     -0.65      0.00
    2    1   11      1.21      0.00
    3    1   11      0.30      0.00
    4    1   11     -0.76      0.00
    5    1   11     -0.07      0.00
    6    1   11     -0.06      0.00
    7    1   11     -0.23      0.00
    8    1   11     -0.03      0.00
  -13    2   11      0.00      0.00
  -12    2   11     -0.76      0.00
  -11    2   11      0.74      0.00
  -10    2   11     -0.16      0.00
   -9    2   11     -1.13      0.00
   -8    2   11     -0.73      0.00
   -7    2   11      0.19      0.00
   -6    2   11      1.64      0.00
   -5    2   11      0.18      0.00
   -4    2   11     -1.31      0.00
   -3    2   11      0.57      0.00
   -2    2   11      1.33      0.00
   -1    2   11     -0.24      0.00
    0    2   11     -1.27      0.00
    1    2   11      0.93      0.00
    2    2   11      0.42      0.00
    3    2   11     -1.46      0.00
    4    2   11     -0.01      0.00
    5    2   11      0.04      0.00
    6    2   11     -0.52      0.00
    7    2   11     -0.02      0.00
    8    2   11      0.71      0.00
  -13    3   11     -0.82      0.00
  -12    3   11      0.24      0.00
  -11    3   11     -0.52      0.00
  -10    3   11     -0.99      0.00
   -9    3   11      0.89      0.00
   -8    3   11      0.97      0.00
   -7    3   11      0.37      0.00
   -6    3   11      0.30      0.00
   -5    3   11     -1.07      0.00
   -4    3   11      0.45      0.00
   -3    3   11      0.95      0.00
   -2    3   11     -0.14      0.00
   -1    3   11     -1.50      0.00
    0    3   11     -0.26      0.00
    1    3   11      0.40      0.00
    2    3   11     -0.73      0.00
    3    3   11      0.39      0.00
    4    3   11      0.09      0.00
    5    3   11     -0.67      0.00
    6    3   11      0.38      0.00
    7    3   11      1.56      0.00
    8    3   11      0.48      0.00
  -13    4   11     -0.24      0.00
  -12    4   11      0.08      0.00
  -11    4   11     -0.35      0.00
  -10    4   11      1.67      0.00
   -9    4   11      0.91      0.00
   -8    4   11     -1.26      0.00
   -7    4   11     -0.35      0.00
   -6    4   11      0.11      0.00
   -5    4   11      0.11      0.00
   -4    4   11      0.33      0.00
   -3    4   11     -0.50      0.00
   -2    4   11     -1.05      0.00
   -1    4   11     -0.72      0.00
    0    4   11      0.63      0.00
    1    4   11      0.50      0.00
    2    4   11      0.86      0.00
    3    4   11     -0.17      0.00
    4    4   11     -0.89      0.00
    5    4   11      0.98      0.00
    6    4   11      1.40      0.00
    7    4   11      0.38      0.00
    8    4   11     -1.79      0.00
  -12    5   11      0.17      0.00
  -11    5   11      0.84      0.00
  -10    5   11      0.14      0.00
   -9    5   11     -1.73      0.00
   -8    5   11     -0.63      0.00
   -7    5   11      1.13      0.00
   -6    5   11      0.17      0.00
   -5    5   11     -0.26      0.00
   -4    5   11     -0.64      0.00
   -3    5   11     -0.24      0.00
   -2    5   11     -0.27      0.00
   -1    5   11      0.86      0.00
    0    5   11      0.75      0.00
    1    5   11      0.81      0.00
    2    5   11     -0.20      0.00
    3    5   11     -1.27      0.00
    4    5   11      0.91      0.00
    5    5   11      0.72      0.00
    6    5   11     -0.28      0.00
    7    5   11     -1.59      0.00
  -12    6   11     -0.15      0.00
  -11    6   11     -0.31      0.00
  -10    6   11     -1.30      0.00
   -9    6   11      0.13      0.00
   -8    6   11      1.25      0.00
   -7    6   11      0.40      0.00
   -6    6   11     -0.71      0.00
   -5    6   11     -0.45      0.00
   -4    6   11      0.30      0.00
   -3    6   11      0.14      0.00
   -2    6   11      0.47      0.00
   -1    6   11      0.42      0.00
    0    6   11      0.21      0.00
    1    6   11      0.26      0.00
    2    6   11     -1.47      0.00
    3    6   11     -0.10      0.00
    4    6   11      0.59      0.00
    5    6   11     -0.55      0.00
    6    6   11     -0.36      0.00
    7    6   11     -0.68      0.00
  -12    7   11     -0.28      0.00
  -11    7   11     -0.96      0.00
  -10    7   11      0.72      0.00
   -9    7   11      1.35      0.00
   -8    7   11     -0.12      0.00
   -7    7   11     -0.98      0.00
   -6    7   11     -0.39      0.00
   -5    7   11      0.60      0.00
   -4    7   11      0.12      0.00
   -3    7   11     -0.30      0.00
   -2    7   11      0.37      0.00
   -1    7   11     -0.10      0.00
    0    7   11      0.50      0.00
    1    7   11     -1.16      0.00
    2    7   11     -1.06      0.00
    3    7   11      1.02      0.00
    4    7   11      0.00      0.00
    5    7   11      0.27      0.00
    6    7   11     -0.25      0.00
    7    7   11      0.11      0.00
  -11    8   11      0.37      0.00
  -10    8   11      1.90      0.00
   -9    8   11     -0.89      0.00
   -8    8   11     -1.39      0.00
   -7    8   11     -0.19      0.00
   -6    8   11      1.02      0.00
   -5    8   11      0.17      0.00
   -4    8   11     -0.82      0.00
   -3    8   11      0.50      0.00
   -2    8   11      0.24      0.00
   -1    8   11      0.25      0.00
    0    8   11     -0.61      0.00
    1    8   11     -1.16      0.00
    2    8   11      1.21      0.00
    3    8   11      0.53      0.00
    4    8   11     -0.25      0.00
    5    8   11      0.30      0.00
    6    8   11     -0.48      0.00
  -11    9   11      1.81      0.00
  -10    9   11     -0.72      0.00
   -9    9   11     -1.93      0.00
   -8    9   11      0.44      0.00
   -7    9   11      1.41      0.00
   -6    9   11      0.43      0.00
   -5    9   11     -1.11      0.00
   -4    9   11      0.28      0.00
   -3    9   11      0.68      0.00
   -2    9   11      0.03      0.00
   -1    9   11     -0.21      0.00
    0    9   11     -1.01      0.00
    1    9   11      0.76      0.00
    2    9   11      0.52      0.00
    3    9   11     -0.78      0.00
    4    9   11      0.72      0.00
    5    9   11     -0.18      0.00
  -10   10   11     -1.77      0.00
   -9   10   11      0.75      0.00
   -8   10   11      1.40      0.00
   -7   10   11      0.32      0.00
   -6   10   11     -1.22      0.00
   -5   10   11     -0.39      0.00
   -4   10   11      0.93      0.00
   -3   10   11      0.11      0.00
   -2   10   11     -0.13      0.00
   -1   10   11     -1.27      0.00
    0   10   11      0.01      0.00
    1   10   11      0.69      0.00
    2   10   11     -0.40      0.00
    3   10   11      0.73      0.00
    4   10   11      0.36      0.00
    5   10   11     -1.25      0.00
   -9   11   11      0.92      0.00
   -8   11   11     -0.18      0.00
   -7   11   11     -0.88      0.00
   -6   11   11     -0.82      0.00
   -5   11   11      1.00      0.00
   -4   11   11      0.45      0.00
   -3   11   11     -0.48      0.00
   -2   11   11     -1.40      0.00
   -1   11   11     -0.33      0.00
    0   11   11      1.47      0.00
    1   11   11      0.44      0.00
    2   11   11      0.18      0.00
    3   11   11      0.08      0.00
    4   11   11     -1.10      0.00
   -8   12   11     -0.30      0.00
   -7   12   11     -0.51      0.00
   -6   12   11      0.70      0.00
   -5   12   11      0.82      0.00
   -4   12   11     -1.00      0.00
   -3   12   11     -0.97      0.00
   -2   12   11      0.20      0.00
   -1   12   11      1.94      0.00
    0   12   11      0.62      0.00
    1   12   11     -0.64      0.00
    2   12   11     -0.69      0.00
    3   12   11     -0.38      0.00
   -6   13   11      0.76      0.00
   -5   13   11     -0.98      0.00
   -4   13   11     -0.57      0.00
   -3   13   11      1.07      0.00
   -2   13   11      1.32      0.00
   -1   13   11     -0.09      0.00
    0   13   11     -1.11      0.00
    1   13   11     -0.82      0.00
   -4   14   11      1.28      0.00
   -3   14   11      0.36      0.00
   -2   14   11     -0.88      0.00
   -1   14   11     -0.86      0.00
  -11    0   12     -0.68      0.00
  -10    0   12      0.22      0.00
   -9    0   12      0.95      0.00
   -8    0   12      0.49      0.00
   -7    0   12      0.29      0.00
   -6    0   12     -1.95      0.00
   -5    0   12      1.23      0.00
   -4    0   12      1.27      0.00
   -3    0   12     -1.71      0.00
   -2    0   12      0.04      0.00
   -1    0   12      0.29      0.00
    0    0   12     -0.01      0.00
    5    0   12      0.01      0.00
  -11    1   12      0.14      0.00
  -10    1   12      1.00      0.00
   -9    1   12     -0.29      0.00
   -8    1   12     -0.28      0.00
   -7    1   12     -1.09      0.00
   -6    1   12      0.10      0.00
   -5    1   12      1.56      0.00
   -4    1   12     -1.43      0.00
   -3    1   12     -0.54      0.00
   -2    1   12      0.45      0.00
   -1    1   12     -0.23      0.00
    0    1   12     -0.17      0.00
    1    1   12     -0.28      0.00
    4    1   12      0.34      0.00
    5    1   12     -0.99      0.00
    6    1   12      0.31      0.00
  -11    2   12      0.40      0.00
  -10    2   12     -0.56      0.00
   -9    2   12     -0.82      0.00
   -8    2   12      0.12      0.00
   -7    2   12     -0.07      0.00
   -6    2   12      0.95      0.00
   -5    2   12     -0.27      0.00
   -4    2   12     -0.75      0.00
   -3    2   12     -0.10      0.00
   -2    2   12      0.06      0.00
   -1    2   12      0.71      0.00
    0    2   12      0.02      0.00
    1    2   12      0.18      0.00
    2    2   12      0.08      0.00
    3    2   12      0.45      0.00
    4    2   12     -0.45      0.00
    5    2   12     -0.03      0.00
    6    2   12      0.21      0.00
  -11    3   12     -0.21      0.00
  -10    3   12     -0.39      0.00
   -9    3   12      0.40      0.00
   -8    3   12      0.33      0.00
   -7    3   12      0.23      0.00
   -6    3   12      0.15      0.00
   -5    3   12     -0.39      0.00
   -4    3   12     -0.86      0.00
   -3    3   12      0.27      0.00
   -2    3   12      1.49      0.00
   -1    3   12      0.09      0.00
    0    3   12     -0.43      0.00
    1    3   12     -0.08      0.00
    2    3   12      0.27      0.00
    3    3   12      0.17      0.00
    4    3   12     -0.57      0.00
    5    3   12      0.14      0.00
    6    3   12     -0.34      0.00
  -11    4   12      0.20      0.00
  -10    4   12     -0.03      0.00
   -9    4   12     -0.08      0.00
   -8    4   12      0.28      0.00
   -7    4   12      0.01      0.00
   -6    4   12     -0.19      0.00
   -5    4   12     -0.85      0.00
   -4    4   12      0.02      0.00
   -3    4   12      2.02      0.00
   -2    4   12      0.09      0.00
   -1    4   12     -1.03      0.00
    0    4   12     -0.15      0.00
    1    4   12     -0.22      0.00
    2    4   12      0.32      0.00
    3    4   12     -0.61      0.00
    4    4   12      0.00      0.00
    5    4   12     -0.18      0.00
  -11    5   12     -0.24      0.00
  -10    5   12     -0.75      0.00
   -9    5   12      0.49      0.00
   -8    5   12      0.60      0.00
   -7    5   12     -0.45      0.00
   -6    5   12     -0.45      0.00
   -5    5   12     -0.22      0.00
   -4    5   12      1.79      0.00
   -3    5   12      0.30      0.00
   -2    5   12     -1.73      0.00
   -1    5   12     -0.34      0.00
    0    5   12     -0.31      0.00
    1    5   12      0.22      0.00
    2    5   12      0.04      0.00
    3    5   12     -0.09      0.00
    4    5   12      0.09      0.00
    5    5   12     -0.41      0.00
  -10    6   12      0.14      0.00
   -9    6   12      1.48      0.00
   -8    6   12     -0.45      0.00
   -7    6   12     -0.76      0.00
   -6    6   12     -0.18      0.00
   -5    6   12      1.05      0.00
   -4    6   12      0.54      0.00
   -3    6   12     -1.85      0.00
   -2    6   12     -0.60      0.00
   -1    6   12      0.50      0.00
    0    6   12      0.26      0.00
    1    6   12      0.55      0.00
    2    6   12     -0.07      0.00
    3    6   12      0.22      0.00
    4    6   12     -0.45      0.00
    5    6   12      0.39      0.00
  -10    7   12      1.20      0.00
   -9    7   12      0.16      0.00
   -8    7   12     -1.57      0.00
   -7    7   12     -0.19      0.00
   -6    7   12      0.70      0.00
   -5    7   12      0.60      0.00
   -4    7   12     -1.13      0.00
   -3    7   12     -0.64      0.00
   -2    7   12      1.11      0.00
   -1    7   12      0.41      0.00
    0    7   12      0.19      0.00
    1    7   12      0.01      0.00
    2    7   12      0.14      0.00
    3    7   12     -0.25      0.00
    4    7   12     -0.02      0.00
   -9    8   12     -1.52      0.00
   -8    8   12     -0.37      0.00
   -7    8   12      0.92      0.00
   -6    8   12      0.50      0.00
   -5    8   12     -0.34      0.00
   -4    8   12     -0.39      0.00
   -3    8   12      0.57      0.00
   -2    8   12      0.37      0.00
   -1    8   12     -0.34      0.00
    0    8   12      0.14      0.00
    1    8   12      0.03      0.00
    2    8   12     -0.24      0.00
    3    8   12     -0.35      0.00
    4    8   12      0.35      0.00
   -8    9   12      1.04      0.00
   -7    9   12      0.23      0.00
   -6    9   12     -0.08      0.00
   -5    9   12     -0.11      0.00
   -4    9   12     -0.28      0.00
   -3    9   12      0.04      0.00
   -2    9   12     -0.04      0.00
   -1    9   12      0.24      0.00
    0    9   12     -0.03      0.00
    1    9   12     -0.49      0.00
    2    9   12     -0.20      0.00
    3    9   12      0.28      0.00
   -7   10   12     -0.20      0.00
   -6   10   12      0.11      0.00
   -5   10   12     -0.52      0.00
   -4   10   12     -0.25      0.00
   -3   10   12      0.57      0.00
   -2   10   12      0.24      0.00
   -1   10   12     -0.17      0.00
    0   10   12     -0.62      0.00
    1   10   12      0.09      0.00
    2   10   12      0.56      0.00
   -6   11   12     -0.27      0.00
   -5   11   12     -0.26      0.00
   -4   11   12      0.58      0.00
   -3   11   12      0.13      0.00
   -2   11   12     -0.27      0.00
   -1   11   12     -0.34      0.00
    0   11   12      0.13      0.00
   -9    1   13      1.10      0.00
   -8    1   13      0.24      0.00
   -7    1   13     -0.29      0.00
   -6    1   13     -0.54      0.00
   -5    1   13     -0.40      0.00
   -4    1   13      0.93      0.00
   -3    1   13     -0.43      0.00
   -2    1   13     -1.08      0.00
   -1    1   13      0.86      0.00
    0    1   13      0.54      0.00
   -9    2   13      0.28      0.00
   -8    2   13     -1.49      0.00
   -7    2   13     -0.61      0.00
   -6    2   13     -0.38      0.00
   -5    2   13      0.73      0.00
   -4    2   13      0.22      0.00
   -3    2   13     -1.63      0.00
   -2    2   13      1.57      0.00
   -1    2   13      1.38      0.00
    0    2   13     -0.63      0.00
   -9    3   13     -2.14      0.00
   -8    3   13     -0.70      0.00
   -7    3   13      0.55      0.00
   -6    3   13      0.17      0.00
   -5    3   13      0.78      0.00
   -4    3   13     -0.49      0.00
   -3    3   13      1.04      0.00
   -2    3   13      1.80      0.00
   -1    3   13     -1.85      0.00
    0    3   13     -1.42      0.00
    1    3   13     -0.42      0.00
    3    3   13      1.12      0.00
   -9    4   13     -0.92      0.00
   -8    4   13      1.35      0.00
   -7    4   13      0.35      0.00
   -6    4   13      0.47      0.00
   -5    4   13      1.13      0.00
   -4    4   13     -0.05      0.00
   -3    4   13      0.65      0.00
   -2    4   13     -2.28      0.00
   -1    4   13     -1.89      0.00
    0    4   13      0.81      0.00
    1    4   13      1.54      0.00
    2    4   13      0.89      0.00
    3    4   13     -0.29      0.00
   -8    5   13      0.93      0.00
   -7    5   13     -0.07      0.00
   -6    5   13      1.20      0.00
   -5    5   13     -0.50      0.00
   -4    5   13     -1.61      0.00
   -3    5   13     -1.44      0.00
   -2    5   13     -1.33      0.00
   -1    5   13      2.11      0.00
    0    5   13      2.06      0.00
    1    5   13      0.17      0.00
    2    5   13     -1.20      0.00
   -7    6   13      0.07      0.00
   -6    6   13     -0.35      0.00
   -5    6   13     -2.63      0.00
   -4    6   13     -0.36      0.00
   -3    6   13      0.61      0.00
   -2    6   13      2.27      0.00
   -1    6   13      1.73      0.00
    0    6   13     -0.92      0.00
    1    6   13     -1.66      0.00
   -7    7   13     -0.08      0.00
   -6    7   13     -1.58      0.00
   -5    7   13      0.05      0.00
   -4    7   13      2.38      0.00
   -3    7   13      1.30      0.00
   -2    7   13      0.41      0.00
   -1    7   13     -1.63      0.00
    0    7   13     -1.33      0.00
    1    7   13      0.05      0.00
   -5    8   13      2.19      0.00
   -4    8   13      0.39      0.00
   -3    8   13     -1.17      0.00
   -2    8   13     -1.37      0.00
   -1    8   13     -0.47      0.00
   -5    0   14     -0.48      0.00
   -4    0   14     -1.40      0.00
   -3    0   14      1.66      0.00
   -2    0   14      0.55      0.00
   -5    1   14     -1.16      0.00
   -4    1   14      1.08      0.00
   -3    1   14      0.95      0.00
   -2    1   14     -1.16      0.00
   -4    2   14      0.92      0.00
   -3    2   14     -1.22      0.00
   -2    2   14     -0.54      0.00
   17    6    0     -0.29      0.00
   17    7    0      0.01      0.00
   16    9    0     -0.25      0.00
   16   10    0      0.10      0.00
   15   12    0      0.37      0.00
   14   14    0     -0.07      0.00
   12   17    0      0.10      0.00
    0   18    0      0.03      0.00
   11   18    0      0.07      0.00
   10   19    0     -0.08      0.00
    7   21    0      0.08      0.00
    0   22    0      0.38      0.00
    1   22    0      0.07      0.00
    5   22    0     -0.33      0.00
   17    5    1      0.33      0.00
   17    6    1     -0.53      0.00
  -17    7    1      0.96      0.00
   16    9    1      0.00      0.00
   13   15    1      0.53      0.00
  -13   16    1     -0.02      0.00
  -12   17    1      0.11      0.00
  -11   18    1     -0.26      0.00
  -10   19    1     -0.03      0.00
   -9   20    1      0.31      0.00
   -7   21    1      0.38      0.00
    7   21    1      0.71      0.00
   -5   22    1     -0.10      0.00
    4   22    1     -0.87      0.00
    5   22    1     -0.30      0.00
   17    0    2     -0.42      0.00
   17    1    2     -0.21      0.00
   17    2    2      0.00      0.00
   17    3    2      0.14      0.00
  -17    8    2      0.64      0.00
   16    8    2      0.05      0.00
   15   11    2      0.30      0.00
  -15   13    2      0.54      0.00
   14   13    2     -0.12      0.00
  -13   16    2     -0.16      0.00
   12   16    2      0.05      0.00
  -12   17    2      0.27      0.00
   11   17    2      0.14      0.00
  -11   18    2     -0.33      0.00
   10   18    2      0.10      0.00
  -10   19    2      0.35      0.00
    9   19    2     -0.02      0.00
   -9   20    2     -0.29      0.00
    8   20    2      0.02      0.00
   -7   21    2      0.54      0.00
    2   21    2     -0.14      0.00
    6   21    2     -0.16      0.00
   -5   22    2      0.25      0.00
    2   22    2      0.47      0.00
    4   22    2     -0.20      0.00
   16    6    3      0.15      0.00
  -17    8    3      0.66      0.00
   14   12    3      0.10      0.00
   13   14    3      0.12      0.00
  -13   16    3     -0.05      0.00
  -12   17    3      0.19      0.00
  -11   18    3     -0.28      0.00
  -10   19    3      0.16      0.00
    7   20    3      0.19      0.00
   -7   21    3     -0.11      0.00
    5   21    3     -0.02      0.00
   -4   22    3      0.16      0.00
   -3   22    3      0.00      0.00
    2   22    3     -0.24      0.00
    3   22    3      0.39      0.00
  -17    0    4     -0.17      0.00
  -16    0    4      0.83      0.00
  -15    0    4     -0.02      0.00
   16    0    4     -0.27      0.00
  -17    1    4      0.22      0.00
  -16    1    4      0.24      0.00
   16    1    4      0.86      0.00
  -17    2    4      0.10      0.00
   16    2    4      0.25      0.00
   16    3    4      0.44      0.00
  -17    7    4      0.14      0.00
   15    8    4     -0.60      0.00
  -16   10    4      0.15      0.00
  -14   14    4      0.65      0.00
   10   17    4      0.13      0.00
    9   18    4      0.15      0.00
   -8   20    4      0.45      0.00
    6   20    4      0.14      0.00
   -6   21    4     -0.03      0.00
    4   21    4     -0.14      0.00
   -2   22    4     -0.10      0.00
   -1   22    4      0.21      0.00
    0   22    4      0.15      0.00
    1   22    4      0.13      0.00
  -17    1    5     -0.22      0.00
   15    1    5      0.20      0.00
  -17    2    5      0.01      0.00
   15    2    5     -0.06      0.00
   15    3    5     -0.02      0.00
   15    4    5     -0.57      0.00
   15    5    5     -0.20      0.00
  -17    6    5      0.53      0.00
  -17    7    5      0.07      0.00
   14    8    5      0.71      0.00
   14    9    5     -0.04      0.00
  -16   10    5     -0.08      0.00
   13   11    5     -0.11      0.00
  -15   12    5     -0.07      0.00
   12   13    5      0.04      0.00
  -13   15    5      0.31      0.00
  -12   16    5     -0.23      0.00
   10   16    5     -0.33      0.00
    9   17    5     -0.22      0.00
  -10   18    5      0.00      0.00
    8   18    5      0.10      0.00
   -9   19    5      0.46      0.00
   -7   20    5     -0.11      0.00
    5   20    5     -0.97      0.00
   -5   21    5     -0.79      0.00
   -4   21    5     -0.99      0.00
    2   21    5     -0.33      0.00
  -17    0    6     -0.71      0.00
  -17    1    6      0.44      0.00
  -17    5    6     -0.30      0.00
   14    5    6     -0.77      0.00
   14    6    6     -0.87      0.00
  -16    9    6      0.35      0.00
   13    9    6      0.33      0.00
  -15   11    6     -0.32      0.00
  -14   13    6      0.24      0.00
   11   13    6     -0.60      0.00
  -13   14    6     -0.55      0.00
    9   16    6      0.55      0.00
    8   17    6      0.55      0.00
   -8   19    6     -0.22      0.00
    5   19    6      0.11      0.00
   -6   20    6     -0.09      0.00
    3   20    6      0.19      0.00
  -17    1    7      0.02      0.00
  -17    2    7     -1.03      0.00
  -17    3    7      0.66      0.00
   13    6    7     -0.34      0.00
  -16    7    7     -0.17      0.00
   13    7    7     -0.12      0.00
   12    9    7      0.40      0.00
  -15   10    7      0.55      0.00
  -14   12    7     -0.58      0.00
   10   13    7     -0.45      0.00
  -12   15    7     -0.10      0.00
  -11   16    7      0.27      0.00
   -8   18    7      0.50      0.00
    5   18    7      0.14      0.00
   -6   19    7     -0.07      0.00
    3   19    7     -0.74      0.00
   -3   20    7      0.25      0.00
   -2   20    7     -0.10      0.00
   -1   20    7      0.35      0.00
    0   20    7      0.04      0.00
  -16    5    8     -0.24      0.00
   12    6    8      0.34      0.00
  -15    8    8      0.12      0.00
   11    9    8     -0.73      0.00
   10   11    8     -0.12      0.00
  -13   12    8     -0.03      0.00
    9   13    8      0.16      0.00
    8   14    8      0.52      0.00
  -11   15    8      0.28      0.00
    7   15    8      0.53      0.00
    6   16    8      0.35      0.00
   -8   17    8      0.10      0.00
   -6   18    8     -0.17      0.00
    3   18    8      1.08      0.00
   -3   19    8     -0.96      0.00
   -2   19    8      0.59      0.00
   -1   19    8     -0.07      0.00
   11    5    9     -0.12      0.00
  -15    6    9      0.04      0.00
   11    6    9      0.32      0.00
   10    8    9      0.99      0.00
  -14    9    9      0.20      0.00
  -13   11    9      0.07      0.00
  -12   12    9      0.00      0.00
    8   12    9      0.10      0.00
    7   13    9      0.31      0.00
    5   15    9      0.36      0.00
   -8   16    9      0.02      0.00
    4   16    9      0.22      0.00
   -6   17    9     -0.67      0.00
    2   17    9      0.09      0.00
  -15    0   10      0.54      0.00
  -15    1   10      0.10      0.00
  -15    2   10     -0.44      0.00
   10    3   10      0.19      0.00
   10    4   10     -0.17      0.00
  -14    6   10     -0.39      0.00
    9    7   10     -0.18      0.00
  -13    9   10      0.17      0.00
    8    9   10     -0.65      0.00
  -12   10   10      0.08      0.00
    7   11   10      0.19      0.00
  -11   12   10     -0.14      0.00
    6   12   10      0.36      0.00
  -10   13   10      0.33      0.00
    5   13   10     -0.05      0.00
   -9   14   10     -0.01      0.00
    4   14   10     -0.48      0.00
   -7   15   10      0.16      0.00
    3   15   10     -0.28      0.00
   -5   16   10     -0.23      0.00
   -4   16   10     -0.33      0.00
   -3   16   10     -0.08      0.00
   -1   16   10     -0.28      0.00
    0   16   10      0.11      0.00
  -13    5   11      0.54      0.00
    8    5   11     -0.77      0.00
  -12    8   11     -0.76      0.00
    7    8   11      0.23      0.00
    6    9   11     -0.57      0.00
  -10   11   11      0.40      0.00
    5   11   11     -0.10      0.00
   -9   12   11     -0.41      0.00
    4   12   11      0.02      0.00
   -7   13   11      0.18      0.00
    2   13   11      0.13      0.00
   -6   14   11     -0.38      0.00
   -5   14   11     -0.49      0.00
    0   14   11     -0.16      0.00
    1   14   11      0.20      0.00
  -12    0   12      0.28      0.00
    1    0   12     -0.91      0.00
    2    0   12     -0.50      0.00
    3    0   12      0.19      0.00
    4    0   12      1.14      0.00
    6    0   12     -0.82      0.00
  -12    1   12     -0.24      0.00
    2    1   12      0.60      0.00
    3    1   12      0.57      0.00
  -12    2   12     -0.04      0.00
  -12    3   12     -0.12      0.00
    6    4   12     -0.06      0.00
    6    5   12      0.33      0.00
  -11    6   12     -0.52      0.00
    5    7   12      0.70      0.00
  -10    8   12      0.48      0.00
   -9    9   12     -0.34      0.00
    4    9   12      0.04      0.00
   -8   10   12     -0.05      0.00
    3   10   12     -0.20      0.00
   -7   11   12      0.24      0.00
    1   11   12      0.55      0.00
   -5   12   12      0.22      0.00
   -4   12   12      0.06      0.00
   -3   12   12     -0.11      0.00
   -2   12   12      0.06      0.00
   -1   12   12     -0.09      0.00
    0   12   12      0.13      0.00
  -10    1   13      0.05      0.00
    1    1   13      0.14      0.00
    2    1   13     -0.06      0.00
    3    1   13     -0.59      0.00
    4    1   13     -0.20      0.00
  -10    2   13      1.46      0.00
    1    2   13     -0.66      0.00
    2    2   13     -0.85      0.00
    3    2   13     -0.16      0.00
    4    2   13      0.90      0.00
  -10    3   13      0.33      0.00
    2    3   13      0.56      0.00
    4    3   13      0.24      0.00
   -9    5   13      1.00      0.00
    3    5   13     -0.48      0.00
   -8    6   13     -0.23      0.00
    2    6   13     -0.30      0.00
   -8    7   13     -0.51      0.00
    2    7   13      0.65      0.00
   -7    8   13     -0.21      0.00
   -6    8   13     -0.05      0.00
    0    8   13      0.49      0.00
    1    8   13      0.44      0.00
   -5    9   13      0.09      0.00
   -4    9   13     -1.52      0.00
   -3    9   13     -0.64      0.00
   -2    9   13      0.43      0.00
   -1    9   13      0.60      0.00
   -6    0   14      0.71      0.00
   -1    0   14     -0.30      0.00
    0    0   14     -0.10      0.00
   -6    1   14     -0.09      0.00
   -1    1   14     -0.32      0.00
    0    1   14     -0.28      0.00
   -6    2   14     -0.38      0.00
   -5    2   14      0.04      0.00
   -1    2   14      0.40      0.00
    0    2   14      0.32      0.00
   -6    3   14     -0.37      0.00
   -5    3   14      0.29      0.00
   -4    3   14     -0.41      0.00
   -3    3   14     -0.46      0.00
   -2    3   14      0.82      0.00
   -1    3   14      0.35      0.00
   -5    4   14      0.25      0.00
   -4    4   14     -0.12      0.00
   -3    4   14      0.58      0.00
   -2    4   14      0.21      0.00
    0    0    0      0.00      0.00
;
_shelx_fab_checksum              41075
#END Tags that were not found in dictionaries
loop_
_space_group_symop_operation_xyz
'x, y, z'
'-x, y+1/2, -z+1/2'
'-x, -y, -z'
'x, -y-1/2, z-1/2'
loop_
_atom_site_label
_atom_site_type_symbol
_atom_site_fract_x
_atom_site_fract_y
_atom_site_fract_z
_atom_site_U_iso_or_equiv
_atom_site_adp_type
_atom_site_occupancy
_atom_site_site_symmetry_order
_atom_site_calc_flag
_atom_site_refinement_flags_posn
_atom_site_refinement_flags_adp
Cu1 Cu 0.74734(2) 0.24796(2) 0.96023(3) 0.03354(11) Uani 1 1 d . .
O1 O 0.63478(11) 0.31388(9) 0.91460(18) 0.0449(4) Uani 1 1 d . .
O2 O 0.59855(16) 0.32524(15) 1.1041(2) 0.0872(8) Uani 1 1 d . .
O3 O -0.14230(11) 0.31817(8) 0.52030(16) 0.0376(4) Uani 1 1 d . .
O4 O -0.07305(15) 0.32721(14) 0.35168(19) 0.0737(7) Uani 1 1 d . .
O1w O 0.75566(11) 0.25788(9) 1.24861(18) 0.0433(4) Uani 1 1 d . .
H1w1 H 0.7120 0.2851 1.2055 0.065 Uiso 1 1 d R U
H1w2 H 0.8048 0.2855 1.2756 0.065 Uiso 1 1 d R U
N1 N 0.65559(13) 0.15820(10) 0.97415(18) 0.0333(4) Uani 1 1 d . .
N2 N 0.83988(13) 0.34027(10) 0.98126(17) 0.0308(4) Uani 1 1 d . .
C1 C 0.58090(18) 0.33643(15) 0.9909(3) 0.0474(7) Uani 1 1 d . .
C2 C 0.49074(17) 0.37905(14) 0.9327(2) 0.0424(6) Uani 1 1 d . .
C3 C 0.4330(2) 0.4152(2) 1.0050(3) 0.0738(10) Uani 1 1 d . .
H3 H 0.4486 0.4110 1.0918 0.089 Uiso 1 1 calc R U
C4 C 0.3520(2) 0.4579(2) 0.9511(3) 0.0730(10) Uani 1 1 d . .
H4 H 0.3139 0.4817 1.0025 0.088 Uiso 1 1 calc R U
C5 C 0.32663(17) 0.46569(14) 0.8240(3) 0.0453(6) Uani 1 1 d . .
C6 C 0.3839(2) 0.42818(17) 0.7519(3) 0.0576(8) Uani 1 1 d . .
H6 H 0.3674 0.4317 0.6651 0.069 Uiso 1 1 calc R U
C7 C 0.46464(19) 0.38557(16) 0.8042(3) 0.0509(7) Uani 1 1 d . .
H7 H 0.5019 0.3610 0.7527 0.061 Uiso 1 1 calc R U
C8 C 0.24064(16) 0.51436(15) 0.7635(3) 0.0538(8) Uani 1 1 d . .
H8A H 0.2639 0.5526 0.7109 0.065 Uiso 1 1 calc R U
H8B H 0.2138 0.5409 0.8283 0.065 Uiso 1 1 calc R U
C9 C 0.15981(17) 0.46793(14) 0.6849(3) 0.0437(6) Uani 1 1 d . .
C10 C 0.09384(19) 0.42722(16) 0.7401(3) 0.0516(7) Uani 1 1 d . .
H10 H 0.1000 0.4279 0.8269 0.062 Uiso 1 1 calc R U
C11 C 0.01854(18) 0.38528(15) 0.6694(3) 0.0472(6) Uani 1 1 d . .
H11 H -0.0256 0.3589 0.7092 0.057 Uiso 1 1 calc R U
C12 C 0.00829(16) 0.38224(14) 0.5410(2) 0.0385(6) Uani 1 1 d . .
C13 C 0.07508(19) 0.42223(16) 0.4850(3) 0.0542(7) Uani 1 1 d . .
H13 H 0.0702 0.4205 0.3984 0.065 Uiso 1 1 calc R U
C14 C 0.14912(19) 0.46480(17) 0.5563(3) 0.0589(8) Uani 1 1 d . .
H14 H 0.1927 0.4919 0.5166 0.071 Uiso 1 1 calc R U
C15 C -0.07450(17) 0.33955(14) 0.4625(3) 0.0413(6) Uani 1 1 d . .
C16 C 0.57389(18) 0.14636(14) 0.8906(3) 0.0477(7) Uani 1 1 d . .
H16 H 0.5579 0.1806 0.8244 0.057 Uiso 1 1 calc R U
C17 C 0.51159(18) 0.08527(15) 0.8979(3) 0.0489(7) Uani 1 1 d . .
H17 H 0.4554 0.0790 0.8368 0.059 Uiso 1 1 calc R U
C18 C 0.53212(16) 0.03352(12) 0.9950(2) 0.0334(5) Uani 1 1 d . .
C19 C 0.61753(18) 0.04688(14) 1.0816(2) 0.0428(6) Uani 1 1 d . .
H19 H 0.6354 0.0138 1.1490 0.051 Uiso 1 1 calc R U
C20 C 0.67580(17) 0.10883(13) 1.0677(2) 0.0416(6) Uani 1 1 d . .
H20 H 0.7325 0.1165 1.1274 0.050 Uiso 1 1 calc R U
C21 C 0.81831(16) 0.40031(13) 0.9061(2) 0.0378(6) Uani 1 1 d . .
H21 H 0.7597 0.3997 0.8481 0.045 Uiso 1 1 calc R U
C22 C 0.87849(17) 0.46329(13) 0.9099(2) 0.0398(6) Uani 1 1 d . .
H22 H 0.8605 0.5037 0.8548 0.048 Uiso 1 1 calc R U
C23 C 0.96631(15) 0.46651(12) 0.9960(2) 0.0306(5) Uani 1 1 d . .
C24 C 0.98724(17) 0.40413(13) 1.0747(2) 0.0404(6) Uani 1 1 d . .
H24 H 1.0448 0.4034 1.1346 0.048 Uiso 1 1 calc R U
C25 C 0.92346(17) 0.34323(13) 1.0647(2) 0.0382(6) Uani 1 1 d . .
H25 H 0.9394 0.3021 1.1189 0.046 Uiso 1 1 calc R U
loop_
_atom_site_aniso_label
_atom_site_aniso_U_11
_atom_site_aniso_U_22
_atom_site_aniso_U_33
_atom_site_aniso_U_23
_atom_site_aniso_U_13
_atom_site_aniso_U_12
Cu1 0.02029(15) 0.02205(15) 0.0573(2) 0.00277(13) 0.00445(12) -0.00356(10)
O1 0.0247(8) 0.0333(9) 0.0759(13) 0.0106(8) 0.0072(9) 0.0013(7)
O2 0.0710(15) 0.126(2) 0.0562(14) 0.0026(14) -0.0117(12) 0.0510(15)
O3 0.0249(8) 0.0308(8) 0.0570(11) -0.0075(8) 0.0074(8) -0.0030(6)
O4 0.0561(13) 0.1188(19) 0.0445(12) -0.0093(12) 0.0044(10) -0.0358(13)
O1w 0.0354(10) 0.0448(11) 0.0457(10) 0.0000(8) -0.0033(8) 0.0012(7)
N1 0.0266(9) 0.0268(9) 0.0461(12) 0.0026(9) 0.0057(9) -0.0061(8)
N2 0.0260(9) 0.0256(9) 0.0398(11) 0.0000(8) 0.0027(8) -0.0061(7)
C1 0.0315(13) 0.0429(15) 0.0625(19) 0.0006(13) -0.0053(13) 0.0053(11)
C2 0.0286(12) 0.0450(14) 0.0508(16) 0.0017(12) -0.0005(11) 0.0045(10)
C3 0.0590(19) 0.108(3) 0.0489(18) -0.0130(18) -0.0055(15) 0.0394(19)
C4 0.0496(18) 0.102(3) 0.062(2) -0.0271(19) -0.0043(15) 0.0354(17)
C5 0.0267(12) 0.0383(14) 0.0659(19) -0.0036(13) -0.0050(12) 0.0005(10)
C6 0.0438(16) 0.079(2) 0.0492(17) 0.0160(15) 0.0055(13) 0.0167(15)
C7 0.0384(14) 0.0652(18) 0.0507(17) 0.0067(14) 0.0126(13) 0.0146(13)
C8 0.0295(13) 0.0392(14) 0.085(2) -0.0047(14) -0.0111(14) 0.0017(10)
C9 0.0265(12) 0.0366(13) 0.0632(18) -0.0011(12) -0.0049(12) 0.0048(10)
C10 0.0399(15) 0.0644(18) 0.0494(16) -0.0112(14) 0.0051(13) -0.0078(13)
C11 0.0346(14) 0.0528(16) 0.0559(18) -0.0049(13) 0.0125(12) -0.0090(12)
C12 0.0253(12) 0.0405(13) 0.0480(16) 0.0019(11) 0.0020(11) -0.0019(10)
C13 0.0399(15) 0.0706(19) 0.0496(17) 0.0107(14) 0.0014(13) -0.0133(13)
C14 0.0350(14) 0.0675(19) 0.070(2) 0.0212(16) -0.0030(14) -0.0182(13)
C15 0.0308(13) 0.0389(13) 0.0518(17) 0.0013(12) 0.0009(12) -0.0015(10)
C16 0.0383(14) 0.0422(14) 0.0569(17) 0.0160(13) -0.0070(12) -0.0158(11)
C17 0.0364(13) 0.0482(15) 0.0547(17) 0.0140(13) -0.0118(12) -0.0210(11)
C18 0.0334(12) 0.0305(12) 0.0367(13) -0.0013(10) 0.0074(10) -0.0093(9)
C19 0.0432(14) 0.0410(14) 0.0406(14) 0.0111(11) -0.0022(11) -0.0183(11)
C20 0.0380(13) 0.0399(14) 0.0431(15) 0.0035(12) -0.0026(11) -0.0162(11)
C21 0.0312(12) 0.0342(12) 0.0436(14) 0.0047(11) -0.0052(11) -0.0092(10)
C22 0.0364(13) 0.0327(12) 0.0457(14) 0.0085(11) -0.0047(11) -0.0105(10)
C23 0.0300(12) 0.0268(11) 0.0349(12) -0.0005(10) 0.0059(10) -0.0079(9)
C24 0.0341(13) 0.0352(13) 0.0457(15) 0.0065(11) -0.0087(11) -0.0107(10)
C25 0.0372(13) 0.0284(12) 0.0458(15) 0.0065(11) -0.0006(11) -0.0084(10)
loop_
_atom_type_symbol
_atom_type_description
_atom_type_scat_dispersion_real
_atom_type_scat_dispersion_imag
_atom_type_scat_source
C C 0.0033 0.0016 'International Tables Vol C Tables 4.2.6.8 and 6.1.1.4'
H H 0.0000 0.0000 'International Tables Vol C Tables 4.2.6.8 and 6.1.1.4'
N N 0.0061 0.0033 'International Tables Vol C Tables 4.2.6.8 and 6.1.1.4'
O O 0.0106 0.0060 'International Tables Vol C Tables 4.2.6.8 and 6.1.1.4'
Cu Cu 0.3201 1.2651 'International Tables Vol C Tables 4.2.6.8 and 6.1.1.4'
loop_
_geom_angle_atom_site_label_1
_geom_angle_atom_site_label_2
_geom_angle_atom_site_label_3
_geom_angle
_geom_angle_site_symmetry_1
_geom_angle_site_symmetry_3
O1 Cu1 O3 175.10(8) . 4_666
O1 Cu1 N1 89.86(7) . .
O3 Cu1 N1 88.61(7) 4_666 .
O1 Cu1 N2 90.80(7) . .
O3 Cu1 N2 89.84(7) 4_666 .
N1 Cu1 N2 169.33(8) . .
O1 Cu1 O1w 87.37(7) . 4_565
O3 Cu1 O1w 97.50(7) 4_666 4_565
N1 Cu1 O1w 100.47(7) . 4_565
N2 Cu1 O1w 90.20(7) . 4_565
C1 O1 Cu1 123.91(17) . .
C15 O3 Cu1 127.96(16) . 4_465
Cu1 O1w H1w1 114.6 4_566 .
Cu1 O1w H1w2 82.1 4_566 .
H1w1 O1w H1w2 108.7 . .
C20 N1 C16 117.2(2) . .
C20 N1 Cu1 120.78(15) . .
C16 N1 Cu1 122.04(16) . .
C21 N2 C25 117.15(18) . .
C21 N2 Cu1 119.28(14) . .
C25 N2 Cu1 123.54(15) . .
O2 C1 O1 124.8(2) . .
O2 C1 C2 120.3(3) . .
O1 C1 C2 114.9(2) . .
C3 C2 C7 117.9(2) . .
C3 C2 C1 121.0(3) . .
C7 C2 C1 121.0(2) . .
C2 C3 C4 121.1(3) . .
C2 C3 H3 119.5 . .
C4 C3 H3 119.5 . .
C5 C4 C3 121.4(3) . .
C5 C4 H4 119.3 . .
C3 C4 H4 119.3 . .
C4 C5 C6 117.3(2) . .
C4 C5 C8 122.2(3) . .
C6 C5 C8 120.5(3) . .
C7 C6 C5 122.0(3) . .
C7 C6 H6 119.0 . .
C5 C6 H6 119.0 . .
C6 C7 C2 120.4(3) . .
C6 C7 H7 119.8 . .
C2 C7 H7 119.8 . .
C5 C8 C9 112.6(2) . .
C5 C8 H8A 109.1 . .
C9 C8 H8A 109.1 . .
C5 C8 H8B 109.1 . .
C9 C8 H8B 109.1 . .
H8A C8 H8B 107.8 . .
C10 C9 C14 117.6(2) . .
C10 C9 C8 120.7(3) . .
C14 C9 C8 121.7(3) . .
C9 C10 C11 121.5(3) . .
C9 C10 H10 119.3 . .
C11 C10 H10 119.3 . .
C12 C11 C10 120.7(2) . .
C12 C11 H11 119.6 . .
C10 C11 H11 119.6 . .
C11 C12 C13 118.1(2) . .
C11 C12 C15 121.6(2) . .
C13 C12 C15 120.3(2) . .
C14 C13 C12 120.7(3) . .
C14 C13 H13 119.6 . .
C12 C13 H13 119.6 . .
C13 C14 C9 121.4(3) . .
C13 C14 H14 119.3 . .
C9 C14 H14 119.3 . .
O4 C15 O3 125.1(2) . .
O4 C15 C12 120.0(2) . .
O3 C15 C12 114.8(2) . .
N1 C16 C17 122.7(2) . .
N1 C16 H16 118.6 . .
C17 C16 H16 118.6 . .
C18 C17 C16 120.5(2) . .
C18 C17 H17 119.8 . .
C16 C17 H17 119.8 . .
C17 C18 C19 116.0(2) . .
C17 C18 C18 122.1(3) . 3_657
C19 C18 C18 121.9(3) . 3_657
C20 C19 C18 120.1(2) . .
C20 C19 H19 120.0 . .
C18 C19 H19 120.0 . .
N1 C20 C19 123.5(2) . .
N1 C20 H20 118.2 . .
C19 C20 H20 118.2 . .
N2 C21 C22 123.2(2) . .
N2 C21 H21 118.4 . .
C22 C21 H21 118.4 . .
C21 C22 C23 120.0(2) . .
C21 C22 H22 120.0 . .
C23 C22 H22 120.0 . .
C24 C23 C22 116.21(19) . .
C24 C23 C23 121.8(2) . 3_767
C22 C23 C23 122.0(2) . 3_767
C25 C24 C23 120.3(2) . .
C25 C24 H24 119.9 . .
C23 C24 H24 119.9 . .
N2 C25 C24 123.2(2) . .
N2 C25 H25 118.4 . .
C24 C25 H25 118.4 . .
loop_
_geom_bond_atom_site_label_1
_geom_bond_atom_site_label_2
_geom_bond_distance
_geom_bond_site_symmetry_2
Cu1 O1 1.9247(16) .
Cu1 O3 1.9282(15) 4_666
Cu1 N1 2.0386(17) .
Cu1 N2 2.0444(17) .
Cu1 O1w 2.3207(19) 4_565
O1 C1 1.271(3) .
O2 C1 1.224(3) .
O3 C15 1.272(3) .
O3 Cu1 1.9281(15) 4_465
O4 C15 1.225(3) .
O1w Cu1 2.3207(19) 4_566
O1w H1w1 0.8401 .
O1w H1w2 0.8401 .
N1 C20 1.323(3) .
N1 C16 1.328(3) .
N2 C21 1.330(3) .
N2 C25 1.331(3) .
C1 C2 1.488(3) .
C2 C3 1.369(4) .
C2 C7 1.379(4) .
C3 C4 1.382(4) .
C3 H3 0.9300 .
C4 C5 1.366(4) .
C4 H4 0.9300 .
C5 C6 1.374(4) .
C5 C8 1.510(3) .
C6 C7 1.374(3) .
C6 H6 0.9300 .
C7 H7 0.9300 .
C8 C9 1.511(3) .
C8 H8A 0.9700 .
C8 H8B 0.9700 .
C9 C10 1.375(4) .
C9 C14 1.376(4) .
C10 C11 1.384(3) .
C10 H10 0.9300 .
C11 C12 1.376(4) .
C11 H11 0.9300 .
C12 C13 1.381(3) .
C12 C15 1.494(3) .
C13 C14 1.382(4) .
C13 H13 0.9300 .
C14 H14 0.9300 .
C16 C17 1.382(3) .
C16 H16 0.9300 .
C17 C18 1.379(3) .
C17 H17 0.9300 .
C18 C19 1.386(3) .
C18 C18 1.485(4) 3_657
C19 C20 1.373(3) .
C19 H19 0.9300 .
C20 H20 0.9300 .
C21 C22 1.375(3) .
C21 H21 0.9300 .
C22 C23 1.390(3) .
C22 H22 0.9300 .
C23 C24 1.383(3) .
C23 C23 1.488(4) 3_767
C24 C25 1.373(3) .
C24 H24 0.9300 .
C25 H25 0.9300 .
loop_
_geom_hbond_atom_site_label_D
_geom_hbond_atom_site_label_H
_geom_hbond_atom_site_label_A
_geom_hbond_distance_DH
_geom_hbond_distance_HA
_geom_hbond_distance_DA
_geom_hbond_angle_DHA
_geom_hbond_site_symmetry_A
O1w H1w1 O2 0.84 1.88 2.703(3) 167 .
O1w H1w2 O4 0.84 1.88 2.710(2) 168 1_656
loop_
_geom_torsion_atom_site_label_1
_geom_torsion_atom_site_label_2
_geom_torsion_atom_site_label_3
_geom_torsion_atom_site_label_4
_geom_torsion
_geom_torsion_site_symmetry_1
_geom_torsion_site_symmetry_4
Cu1 O1 C1 O2 7.1(4) . .
Cu1 O1 C1 C2 -172.75(15) . .
O2 C1 C2 C3 8.8(4) . .
O1 C1 C2 C3 -171.3(3) . .
O2 C1 C2 C7 -173.5(3) . .
O1 C1 C2 C7 6.4(4) . .
C7 C2 C3 C4 -0.9(5) . .
C1 C2 C3 C4 176.8(3) . .
C2 C3 C4 C5 -0.2(5) . .
C3 C4 C5 C6 1.2(5) . .
C3 C4 C5 C8 -177.7(3) . .
C4 C5 C6 C7 -1.3(4) . .
C8 C5 C6 C7 177.7(3) . .
C5 C6 C7 C2 0.2(5) . .
C3 C2 C7 C6 0.9(4) . .
C1 C2 C7 C6 -176.9(3) . .
C4 C5 C8 C9 -115.7(3) . .
C6 C5 C8 C9 65.4(3) . .
C5 C8 C9 C10 79.3(3) . .
C5 C8 C9 C14 -100.9(3) . .
C14 C9 C10 C11 -0.8(4) . .
C8 C9 C10 C11 179.1(2) . .
C9 C10 C11 C12 0.9(4) . .
C10 C11 C12 C13 -0.1(4) . .
C10 C11 C12 C15 -177.8(2) . .
C11 C12 C13 C14 -0.9(4) . .
C15 C12 C13 C14 176.9(2) . .
C12 C13 C14 C9 1.0(4) . .
C10 C9 C14 C13 -0.2(4) . .
C8 C9 C14 C13 180.0(2) . .
Cu1 O3 C15 O4 7.5(4) 4_465 .
Cu1 O3 C15 C12 -171.93(14) 4_465 .
C11 C12 C15 O4 -168.0(3) . .
C13 C12 C15 O4 14.2(4) . .
C11 C12 C15 O3 11.5(3) . .
C13 C12 C15 O3 -166.3(2) . .
C20 N1 C16 C17 -0.5(4) . .
Cu1 N1 C16 C17 179.2(2) . .
N1 C16 C17 C18 0.5(4) . .
C16 C17 C18 C19 -0.3(4) . .
C16 C17 C18 C18 -179.0(3) . 3_657
C17 C18 C19 C20 0.2(4) . .
C18 C18 C19 C20 178.9(3) 3_657 .
C16 N1 C20 C19 0.4(4) . .
Cu1 N1 C20 C19 -179.3(2) . .
C18 C19 C20 N1 -0.3(4) . .
C25 N2 C21 C22 1.1(4) . .
Cu1 N2 C21 C22 -177.01(19) . .
N2 C21 C22 C23 -0.5(4) . .
C21 C22 C23 C24 -0.3(4) . .
C21 C22 C23 C23 -179.8(3) . 3_767
C22 C23 C24 C25 0.5(4) . .
C23 C23 C24 C25 -180.0(3) 3_767 .
C21 N2 C25 C24 -0.8(4) . .
Cu1 N2 C25 C24 177.17(19) . .
C23 C24 C25 N2 0.0(4) . .
loop_
_platon_squeeze_void_nr
_platon_squeeze_void_average_x
_platon_squeeze_void_average_y
_platon_squeeze_void_average_z
_platon_squeeze_void_volume
_platon_squeeze_void_count_electrons
_platon_squeeze_void_content
1 0.000 0.500 -0.013 319 120 ' '
2 0.500 1.000 0.013 319 120 ' '
