#------------------------------------------------------------------------------
#$Date: 2016-03-25 23:33:23 +0200 (Fri, 25 Mar 2016) $
#$Revision: 180044 $
#$URL: svn://www.crystallography.net/cod/cif/7/03/38/7033811.cif $
#------------------------------------------------------------------------------
#
# This file is available in the Crystallography Open Database (COD),
# http://www.crystallography.net/
#
# All data on this site have been placed in the public domain by the
# contributors.
#
data_7033811
loop_
_publ_author_name
'Karmakar, Anirban'
'Oliver, Clive L.'
'Roy, Somnath'
'\"Ohrstr\"om, Lars'
_publ_section_title
;
 The synthesis, structure, topology and catalytic application of a novel
 cubane-based copper(ii) metal-organic framework derived from a flexible
 amido tripodal acid.
;
_journal_issue                   22
_journal_name_full
'Dalton transactions (Cambridge, England : 2003)'
_journal_page_first              10156
_journal_page_last               10165
_journal_paper_doi               10.1039/c4dt03087g
_journal_volume                  44
_journal_year                    2015
_chemical_absolute_configuration ad
_chemical_formula_moiety         'C20 H29 Cu2 N3 O13'
_chemical_formula_sum            'C20 H29 Cu2 N3 O13'
_chemical_formula_weight         646.54
_space_group_crystal_system      tetragonal
_space_group_IT_number           96
_space_group_name_Hall           'P 4nw 2abw'
_space_group_name_H-M_alt        'P 43 21 2'
_symmetry_space_group_name_Hall  'P 4nw 2abw'
_symmetry_space_group_name_H-M   'P 43 21 2'
_atom_sites_solution_hydrogens   mixed
_atom_sites_solution_primary     direct
_audit_creation_date             2014-12-18
_audit_creation_method
;
Olex2 1.2
(compiled 2014.08.28 svn.r2986 for OlexSys, GUI svn.r4874)
;
_audit_update_record
;
2014-12-24 deposited with the CCDC.
2015-01-22 downloaded from the CCDC.
;
_cell_angle_alpha                90
_cell_angle_beta                 90
_cell_angle_gamma                90
_cell_formula_units_Z            8
_cell_length_a                   18.9809(12)
_cell_length_b                   18.9809(12)
_cell_length_c                   17.5707(12)
_cell_measurement_temperature    100(2)
_cell_volume                     6330.3(7)
_computing_molecular_graphics    'Olex2 (Dolomanov et al., 2009)'
_computing_publication_material  'Olex2 (Dolomanov et al., 2009)'
_computing_structure_refinement  'XL (Sheldrick, 2008)'
_computing_structure_solution    'ShelXS (Sheldrick, 2008)'
_diffrn_ambient_temperature      100.15
_diffrn_measured_fraction_theta_full 1.000
_diffrn_measured_fraction_theta_max 0.999
_diffrn_radiation_type           MoK\a
_diffrn_radiation_wavelength     0.71073
_diffrn_reflns_av_R_equivalents  0.0596
_diffrn_reflns_av_unetI/netI     0.0632
_diffrn_reflns_Laue_measured_fraction_full 1.000
_diffrn_reflns_Laue_measured_fraction_max 0.999
_diffrn_reflns_limit_h_max       23
_diffrn_reflns_limit_h_min       -27
_diffrn_reflns_limit_k_max       26
_diffrn_reflns_limit_k_min       -27
_diffrn_reflns_limit_l_max       25
_diffrn_reflns_limit_l_min       -25
_diffrn_reflns_number            40233
_diffrn_reflns_point_group_measured_fraction_full 1.000
_diffrn_reflns_point_group_measured_fraction_max 0.997
_diffrn_reflns_theta_full        25.242
_diffrn_reflns_theta_max         30.682
_diffrn_reflns_theta_min         1.517
_exptl_absorpt_coefficient_mu    1.401
_exptl_absorpt_correction_T_max  0.7461
_exptl_absorpt_correction_T_min  0.6758
_exptl_absorpt_correction_type   multi-scan
_exptl_absorpt_process_details
'SADABS-2014/2 (Bruker,2014) was used for absorption correction. wR2(int) was 0.0812 before and 0.0576 after correction. The Ratio of minimum to maximum transmission is 0.9058. The \l/2 correction factor is 0.00150.'
_exptl_crystal_colour            'clear blue'
_exptl_crystal_colour_lustre     clear
_exptl_crystal_colour_primary    blue
_exptl_crystal_density_diffrn    1.357
_exptl_crystal_description       block
_exptl_crystal_F_000             2656
_exptl_crystal_size_max          0.264
_exptl_crystal_size_mid          0.228
_exptl_crystal_size_min          0.193
_refine_diff_density_max         2.070
_refine_diff_density_min         -0.530
_refine_diff_density_rms         0.130
_refine_ls_abs_structure_details
;
 Flack x determined using 2832 quotients [(I+)-(I-)]/[(I+)+(I-)]
 (Parsons, Flack and Wagner, Acta Cryst. B69 (2013) 249-259).
;
_refine_ls_abs_structure_Flack   0.034(7)
_refine_ls_extinction_method     none
_refine_ls_goodness_of_fit_ref   1.047
_refine_ls_hydrogen_treatment    mixed
_refine_ls_matrix_type           full
_refine_ls_number_parameters     412
_refine_ls_number_reflns         9790
_refine_ls_number_restraints     184
_refine_ls_restrained_S_all      1.046
_refine_ls_R_factor_all          0.0775
_refine_ls_R_factor_gt           0.0566
_refine_ls_shift/su_max          0.001
_refine_ls_shift/su_mean         0.000
_refine_ls_structure_factor_coef Fsqd
_refine_ls_weighting_details
'w=1/[\s^2^(Fo^2^)+(0.1093P)^2^] where P=(Fo^2^+2Fc^2^)/3'
_refine_ls_weighting_scheme      calc
_refine_ls_wR_factor_gt          0.1588
_refine_ls_wR_factor_ref         0.1712
_reflns_Friedel_coverage         0.783
_reflns_Friedel_fraction_full    1.000
_reflns_Friedel_fraction_max     0.996
_reflns_number_gt                7629
_reflns_number_total             9790
_reflns_threshold_expression     'I > 2\s(I)'
_cod_data_source_file            c4dt03087g2.cif
_cod_data_source_block           fp432212_sq
_cod_depositor_comments          'Adding full bibliography for 7033811.cif.'
_cod_original_cell_volume        6330.3(9)
_cod_database_code               7033811
#BEGIN Tags that were not found in dictionaries:
_shelxl_version_number           2014/6
_shelx_space_group_comment
;
The symmetry employed for this shelxl refinement is uniquely defined
by the following loop, which should always be used as a source of
symmetry information in preference to the above space-group names.
They are only intended as comments.
;
_shelx_estimated_absorpt_t_max   0.774
_shelx_estimated_absorpt_t_min   0.709
_olex2_refinement_description
;
1. Fixed Uiso
 At 1.2 times of:
  All C(H) groups, All N(H) groups
 At 1.5 times of:
  All C(H,H,H) groups, All O(H) groups, All O(H,H) groups
2. Restrained distances
 N1-H1
 0.87 with sigma of 0.02
 H2-N2
 0.87 with sigma of 0.02
3. Uiso/Uaniso restraints and constraints
N3 \\sim C16 \\sim C17 \\sim C18 \\sim O8 \\sim O9 \\sim N3A \\sim C16A \\sim
C17A: within 1.7A with sigma of 0.04 and sigma for terminal atoms of 0.08
O9 \\sim C18 \\sim O8 \\sim O9A \\sim C18A \\sim O8A: within 1.7A with sigma of
0.04 and sigma for terminal atoms of 0.08
4. Rigid body (RIGU) restrains
 N3, C16, C17, C18, O8, O9, N3A, C16A, C17A
 with sigma for 1-2 distances of 0.004 and sigma for 1-3 distances of 0.004
 O9, C18, O8, O9A, C18A, O8A
 with sigma for 1-2 distances of 0.004 and sigma for 1-3 distances of 0.004
5. Same fragment restrains
{N3, C16, C17, C18, O8, O9}
as
{N3A, C16A, C17A, C18A, O8A, O9A}
6. Others
 Sof(N3A)=Sof(H3A)=Sof(C16A)=Sof(H16A)=Sof(C17A)=Sof(H17D)=Sof(H17E)=Sof(H17F)=
 Sof(C18A)=Sof(O8A)=Sof(H8AA)=Sof(O9A)=1-FVAR(1)
 Sof(N3)=Sof(H3)=Sof(C16)=Sof(H16)=Sof(C17)=Sof(H17A)=Sof(H17B)=Sof(H17C)=
 Sof(C18)=Sof(O8)=Sof(H8A)=Sof(O9)=FVAR(1)
7.a Rotating group:
 OW1(HW1A,HW1B), OW2(HW2A,HW2B)
7.b Ternary CH refined with riding coordinates:
 C8(H8), C12(H12), C16(H16), C16A(H16A)
7.c Aromatic/amide H refined with riding coordinates:
 C2(H2A), C4(H4), C6(H6), N3(H3), N3A(H3A)
7.d Tetrahedral OH refined with riding coordinates:
 O8(H8A), O8A(H8AA)
7.e Idealised Me refined as rotating group:
 C0AA(H0AA,H0AB,H0AC), C1M1(H1MA,H1MB,H1MC), C1M2(H1MD,H1ME,H1MF), C13(H13A,
 H13B,H13C), C17(H17A,H17B,H17C), C17A(H17D,H17E,H17F)
;
_shelx_res_file
;
TITL fp432212 in P43212 #96
CELL 0.71073 18.9809 18.9809 17.5707 90 90 90
ZERR 8 0.0012 0.0012 0.0012 0 0 0
LATT -1
SYMM 0.5-Y,0.5+X,0.75+Z
SYMM -X,-Y,0.5+Z
SYMM 0.5+Y,0.5-X,0.25+Z
SYMM 0.5+X,0.5-Y,0.25-Z
SYMM 0.5-X,0.5+Y,0.75-Z
SYMM +Y,+X,-Z
SYMM -Y,-X,0.5-Z

SFAC C H Cu N O
UNIT 160 232 16 24 104
DFIX 0.87 N1 H1
DFIX 0.87 H2 N2
SIMU 0.04 0.08 1.7 N3 C16 C17 C18 O8 O9 N3A C16A C17A
SIMU 0.04 0.08 1.7 O9 C18 O8 O9A C18A O8A
RIGU N3 C16 C17 C18 O8 O9 N3A C16A C17A
RIGU O9 C18 O8 O9A C18A O8A

L.S. 40 0 67
PLAN  200
SIZE 0.193 0.228 0.264
TEMP -173
REM reset to P43212 #96
BOND
MORE -1
BOND $H
CONF
ABIN
fmap 2
acta
MERG 2
REM <HKL>E:\sent%20to%20anirban%20cubane%20structure\after%20referees%20new%20
REM try\fp432212_sq.hkl</HKL>

WGHT    0.109300
FVAR       0.05493   0.26141
CU1   3    0.810331    0.716172    0.546804    11.00000    0.01761    0.02819 =
         0.01884    0.00243   -0.00128    0.00573
CU2   3    0.642090    0.705554    0.571519    11.00000    0.01795    0.02564 =
         0.01891   -0.00030    0.00061    0.00385
OW1   5    0.824268    0.699247    0.658388    11.00000    0.03217    0.04685 =
         0.03114    0.00545   -0.00124    0.00449
AFIX   7
HW1A  2    0.844281    0.651476    0.674400    11.00000   -1.50000
HW1B  2    0.780650    0.701700    0.692149    11.00000   -1.50000
AFIX   0
OW2   5    0.559711    0.769158    0.584533    11.00000    0.03557    0.04563 =
         0.03521    0.00073    0.00200    0.01153
AFIX   7
HW2A  2    0.562427    0.806493    0.553881    11.00000   -1.50000
HW2B  2    0.557258    0.784745    0.632434    11.00000   -1.50000
AFIX   0
O0AA  5    0.972494    0.706158    0.528621    11.00000    0.03899    0.01499 =
         0.04454    0.00566   -0.01339   -0.00357
O1    5    0.924538    0.562180    0.666762    11.00000    0.02628    0.01436 =
         0.01936   -0.00272   -0.00586    0.00024
O1M1  5    0.711460    0.635552    0.540026    11.00000    0.02549    0.02165 =
         0.01935    0.00446    0.00159    0.00436
O1M2  5    0.788380    0.737289    0.441114    11.00000    0.01743    0.02679 =
         0.02058    0.00303   -0.00033    0.00325
O2    5    0.875349    0.639221    0.519981    11.00000    0.01973    0.02536 =
         0.02465    0.00202    0.00053    0.00561
O4    5    0.928604    0.250696    0.535582    11.00000    0.02265    0.02267 =
         0.02916   -0.00031    0.00742   -0.00156
O5    5    0.800943    0.164929    0.431064    11.00000    0.04029    0.02330 =
         0.02125    0.00259    0.00224   -0.00906
O6    5    0.874436    0.075696    0.438834    11.00000    0.11409    0.04484 =
         0.03608   -0.01224   -0.00643    0.03954
O7    5    0.785422    0.307640    0.840881    11.00000    0.12857    0.02352 =
         0.02866    0.00752    0.02011   -0.01317
N1    4    0.949167    0.519543    0.549652    11.00000    0.02039    0.01624 =
         0.01820   -0.00065   -0.00131   -0.00071
H1    2    0.955040    0.484872    0.516153    11.00000   -1.20000
N2    4    0.828518    0.202866    0.581553    11.00000    0.03345    0.01962 =
         0.02152   -0.00465    0.00135   -0.00840
H2    2    0.807250    0.200102    0.625767    11.00000   -1.20000
C0AA  1    1.026982    0.573157    0.454232    11.00000    0.03150    0.01996 =
         0.03524   -0.00735    0.01572   -0.00623
AFIX 137
H0AA  2    1.059205    0.532995    0.458334    11.00000   -1.50000
H0AB  2    1.053897    0.615845    0.442444    11.00000   -1.50000
H0AC  2    0.992781    0.564282    0.413564    11.00000   -1.50000
AFIX   0
C1    1    0.884813    0.444890    0.639853    11.00000    0.02082    0.01869 =
         0.01605   -0.00151   -0.00322    0.00080
C1M1  1    0.725391    0.571862    0.581060    11.00000    0.02842    0.03137 =
         0.03083    0.00338    0.00034    0.00650
AFIX 137
H1MA  2    0.773495    0.556012    0.570226    11.00000   -1.50000
H1MB  2    0.691864    0.535421    0.565268    11.00000   -1.50000
H1MC  2    0.720347    0.580572    0.635765    11.00000   -1.50000
AFIX   0
C1M2  1    0.840484    0.736690    0.382599    11.00000    0.02979    0.03783 =
         0.02130    0.00404    0.00998    0.00098
AFIX 137
H1MD  2    0.873220    0.775966    0.390349    11.00000   -1.50000
H1ME  2    0.817548    0.741586    0.332910    11.00000   -1.50000
H1MF  2    0.866475    0.692108    0.384341    11.00000   -1.50000
AFIX   0
C2    1    0.889623    0.384774    0.594850    11.00000    0.01543    0.01843 =
         0.02090   -0.00204   -0.00135   -0.00183
AFIX  43
H2A   2    0.911991    0.387151    0.546551    11.00000   -1.20000
AFIX   0
C3    1    0.861771    0.321125    0.620337    11.00000    0.02301    0.01369 =
         0.02067   -0.00020   -0.00192   -0.00320
C4    1    0.829135    0.318020    0.690828    11.00000    0.03997    0.01647 =
         0.02330    0.00262    0.00769   -0.00219
AFIX  43
H4    2    0.809949    0.274713    0.708294    11.00000   -1.20000
AFIX   0
C5    1    0.824297    0.377890    0.736149    11.00000    0.05620    0.02045 =
         0.01572    0.00304    0.00826    0.00199
C6    1    0.852580    0.440570    0.710937    11.00000    0.04814    0.01932 =
         0.01618   -0.00103    0.00057    0.00024
AFIX  43
H6    2    0.850069    0.481232    0.742346    11.00000   -1.20000
AFIX   0
C7    1    0.920092    0.513087    0.618684    11.00000    0.02348    0.01342 =
         0.01607    0.00113   -0.00135    0.00082
C8    1    0.987972    0.583089    0.529876    11.00000    0.01734    0.01588 =
         0.02389   -0.00098    0.00134   -0.00134
AFIX  13
H8    2    1.024227    0.590904    0.570298    11.00000   -1.20000
AFIX   0
C1AA  1    0.941342    0.648974    0.526767    11.00000    0.02030    0.01711 =
         0.01677    0.00110   -0.00332    0.00119
C11   1    0.874603    0.255599    0.574296    11.00000    0.02214    0.01507 =
         0.01973    0.00057   -0.00136    0.00129
C12   1    0.844729    0.132033    0.553632    11.00000    0.05069    0.01476 =
         0.02485    0.00300    0.00149   -0.00721
AFIX  13
H12   2    0.893658    0.119444    0.569769    11.00000   -1.20000
AFIX   0
C13   1    0.793470    0.079592    0.589320    11.00000    0.12876    0.03584 =
         0.03995    0.00764    0.00297   -0.04729
AFIX 137
H13A  2    0.792731    0.086176    0.644634    11.00000   -1.50000
H13B  2    0.808641    0.031470    0.577494    11.00000   -1.50000
H13C  2    0.746132    0.087467    0.568742    11.00000   -1.50000
AFIX   0
C14   1    0.839617    0.124839    0.467704    11.00000    0.05346    0.02345 =
         0.02750   -0.00578    0.00511   -0.00459
C15   1    0.793710    0.367458    0.814476    11.00000    0.08986    0.02045 =
         0.02538    0.00068    0.01984   -0.01498
PART 1
N3    4    0.789636    0.424069    0.859653    21.00000    0.02310    0.02962 =
         0.00667    0.00138    0.00353   -0.01089
AFIX  43
H3    2    0.804548    0.465870    0.845169    21.00000   -1.20000
AFIX   0
C16   1    0.758787    0.411791    0.934578    21.00000    0.02769    0.05282 =
         0.00899    0.00473    0.00725    0.00293
AFIX  13
H16   2    0.792131    0.389099    0.971194    21.00000   -1.20000
AFIX   0
C17   1    0.725105    0.485387    0.966438    21.00000    0.05293    0.06020 =
         0.02499   -0.00843    0.01280    0.00498
AFIX 137
H17A  2    0.713039    0.515965    0.923429    21.00000   -1.50000
H17B  2    0.759568    0.509213    0.999032    21.00000   -1.50000
H17C  2    0.682520    0.475095    0.995950    21.00000   -1.50000
AFIX   0
C18   1    0.687255    0.373108    0.928535    21.00000    0.03102    0.05816 =
         0.02094    0.01928    0.00310   -0.00079
O8    5    0.642101    0.403745    0.876995    21.00000    0.02386    0.12804 =
         0.05109    0.06586    0.00130   -0.00366
AFIX  83
H8A   2    0.627161    0.372946    0.846696    21.00000   -1.50000
AFIX   0
O9    5    0.668132    0.330906    0.976914    21.00000    0.04150    0.08206 =
         0.03701    0.04134   -0.00820   -0.01726
SAME 0.02 0.04 N3 > O9
PART 0
PART 2
N3A   4    0.766153    0.425297    0.849568   -21.00000    0.12249    0.02663 =
         0.03632   -0.00263    0.03693   -0.02621
AFIX  43
H3A   2    0.771597    0.466763    0.827951   -21.00000   -1.20000
AFIX   0
C16A  1    0.728075    0.421211    0.921377   -21.00000    0.12687    0.05185 =
         0.03925   -0.00519    0.04268   -0.01596
AFIX  13
H16A  2    0.730951    0.371913    0.941211   -21.00000   -1.20000
AFIX   0
C17A  1    0.764649    0.473655    0.981793   -21.00000    0.08527    0.03412 =
         0.02913    0.00045    0.02802    0.00152
AFIX 137
H17D  2    0.802228    0.448623    1.008841   -21.00000   -1.50000
H17E  2    0.729314    0.490017    1.018418   -21.00000   -1.50000
H17F  2    0.784633    0.514200    0.954843   -21.00000   -1.50000
AFIX   0
C18A  1    0.651733    0.443878    0.919863   -21.00000    0.13106    0.17436 =
         0.15780    0.08182    0.07863   -0.00522
O8A   5    0.629535    0.462185    0.846273   -21.00000    0.20459    0.32085 =
         0.18592    0.14691    0.07330   -0.05081
AFIX  83
H8AA  2    0.624193    0.425479    0.820199   -21.00000   -1.50000
AFIX   0
O9A   5    0.614111    0.434365    0.975264   -21.00000    0.22301    0.22326 =
         0.17412    0.08310    0.12788    0.00681
HKLF 4

REM  fp432212 in P43212 #96
REM R1 =  0.0566 for    7629 Fo > 4sig(Fo)  and  0.0775 for all    9790 data
REM    412 parameters refined using    184 restraints

END

WGHT      0.1069      0.0000

REM Highest difference peak  2.070,  deepest hole -0.530,  1-sigma level  0.130
Q1    1   0.6266  0.4819  0.7085  11.00000  0.05    2.07
Q2    1   0.6512  0.4647  0.7288  11.00000  0.05    1.95
Q3    1   0.5891  0.4191  0.7587  11.00000  0.05    1.81
Q4    1   0.5697  0.4504  0.8018  11.00000  0.05    1.28
Q5    1   0.5929  0.3840  0.9221  11.00000  0.05    0.77
Q6    1   0.9129  0.0949  0.4316  11.00000  0.05    0.59
Q7    1   0.8504  0.7413  0.6883  11.00000  0.05    0.54
Q8    1   0.8736  0.3509  0.6119  11.00000  0.05    0.54
Q9    1   0.5965  0.3124  1.0039  11.00000  0.05    0.53
Q10   1   0.8212  0.4769  0.7255  11.00000  0.05    0.48
Q11   1   0.9084  0.3299  0.6020  11.00000  0.05    0.48
Q12   1   0.9430  0.5677  0.6704  11.00000  0.05    0.47
Q13   1   0.8586  0.0819  0.4300  11.00000  0.05    0.45
Q14   1   0.5774  0.3222  0.8382  11.00000  0.05    0.44
Q15   1   0.8366  0.4509  0.6928  11.00000  0.05    0.43
Q16   1   0.7629  0.6991  0.5446  11.00000  0.05    0.42
Q17   1   0.8627  0.3960  0.6137  11.00000  0.05    0.42
Q18   1   0.8761  0.1292  0.5646  11.00000  0.05    0.41
Q19   1   0.8274  0.7791  0.6814  11.00000  0.05    0.41
Q20   1   0.7829  0.4670  0.7128  11.00000  0.05    0.41
Q21   1   0.7937  0.6402  0.7139  11.00000  0.05    0.38
Q22   1   0.6788  0.7492  0.5741  11.00000  0.05    0.38
Q23   1   0.6368  0.4036  0.8991  11.00000  0.05    0.38
Q24   1   0.9363  0.6052  0.6249  11.00000  0.05    0.37
Q25   1   0.8682  0.3211  0.6702  11.00000  0.05    0.37
Q26   1   0.9705  0.2078  0.5106  11.00000  0.05    0.37
Q27   1   0.6701  0.3821  0.9256  11.00000  0.05    0.37
Q28   1   0.6703  0.4819  0.5373  11.00000  0.05    0.36
Q29   1   0.9136  0.3078  0.5454  11.00000  0.05    0.36
Q30   1   0.7913  0.6691  0.5586  11.00000  0.05    0.36
Q31   1   0.8871  0.4666  0.7094  11.00000  0.05    0.36
Q32   1   0.9302  0.5894  0.6160  11.00000  0.05    0.36
Q33   1   0.8792  0.3945  0.7397  11.00000  0.05    0.35
Q34   1   0.9194  0.2513  0.5716  11.00000  0.05    0.35
Q35   1   0.8630  0.7145  0.7056  11.00000  0.05    0.35
Q36   1   0.9664  0.1815  0.5522  11.00000  0.05    0.35
Q37   1   0.8755  0.0626  0.6205  11.00000  0.05    0.35
Q38   1   0.8285  0.3294  0.6448  11.00000  0.05    0.35
Q39   1   0.8724  0.1230  0.4613  11.00000  0.05    0.34
Q40   1   0.8901  0.4280  0.6998  11.00000  0.05    0.34
Q41   1   0.8696  0.2994  0.6000  11.00000  0.05    0.34
Q42   1   0.8070  0.3971  0.5799  11.00000  0.05    0.34
Q43   1   0.7600  0.5241  0.6393  11.00000  0.05    0.34
Q44   1   0.9373  0.2106  0.4706  11.00000  0.05    0.34
Q45   1   0.5898  0.6942  0.5681  11.00000  0.05    0.34
Q46   1   0.8120  0.6494  0.7485  11.00000  0.05    0.34
Q47   1   0.8429  0.4175  0.7364  11.00000  0.05    0.34
Q48   1   0.8939  0.5794  0.6387  11.00000  0.05    0.34
Q49   1   0.6513  0.3962  0.7965  11.00000  0.05    0.34
Q50   1   0.9207  0.3744  0.7932  11.00000  0.05    0.33
Q51   1   0.8758  0.5590  0.6900  11.00000  0.05    0.33
Q52   1   0.7947  0.3593  0.6026  11.00000  0.05    0.33
Q53   1   0.8261  0.2801  0.7078  11.00000  0.05    0.33
Q54   1   0.9314  0.3641  0.8039  11.00000  0.05    0.33
Q55   1   0.8652  0.6785  0.5373  11.00000  0.05    0.33
Q56   1   0.8365  0.5122  1.0422  11.00000  0.05    0.33
Q57   1   0.8361  0.6192  0.7361  11.00000  0.05    0.32
Q58   1   0.7762  0.2022  0.5976  11.00000  0.05    0.32
Q59   1   0.8412  0.1729  0.4283  11.00000  0.05    0.32
Q60   1   0.8323  0.3791  0.5714  11.00000  0.05    0.32
Q61   1   0.5194  0.7608  0.5580  11.00000  0.05    0.32
Q62   1   0.8084  0.6829  0.6115  11.00000  0.05    0.32
Q63   1   0.6095  0.2778  0.9549  11.00000  0.05    0.32
Q64   1   0.9508  0.6935  0.5408  11.00000  0.05    0.32
Q65   1   0.8900  0.3525  0.7823  11.00000  0.05    0.32
Q66   1   0.8096  0.7231  0.6018  11.00000  0.05    0.32
Q67   1   0.7972  0.2761  0.5533  11.00000  0.05    0.32
Q68   1   0.9911  0.1978  0.4861  11.00000  0.05    0.31
Q69   1   0.8153  0.5602  1.0799  11.00000  0.05    0.31
Q70   1   0.9387  0.2512  0.5152  11.00000  0.05    0.31
Q71   1   0.9444  0.1943  0.5461  11.00000  0.05    0.31
Q72   1   0.6381  0.4889  0.8935  11.00000  0.05    0.31
Q73   1   0.9719  0.5487  0.6390  11.00000  0.05    0.31
Q74   1   0.9034  0.3829  0.4748  11.00000  0.05    0.31
Q75   1   0.8641  0.2738  0.5016  11.00000  0.05    0.31
Q76   1   0.7885  0.2321  0.5913  11.00000  0.05    0.31
Q77   1   0.9003  0.4806  0.7454  11.00000  0.05    0.31
Q78   1   0.9220  0.5101  0.7141  11.00000  0.05    0.31
Q79   1   0.6363  0.5114  1.0305  11.00000  0.05    0.30
Q80   1   0.7412  0.6482  0.5774  11.00000  0.05    0.30
Q81   1   0.9299  0.5267  0.6385  11.00000  0.05    0.30
Q82   1   1.0880  0.4887  0.5050  11.00000  0.05    0.30
Q83   1   0.6461  0.3735  0.7721  11.00000  0.05    0.30
Q84   1   0.8777  0.0601  0.5780  11.00000  0.05    0.30
Q85   1   0.8353  0.0153  0.5680  11.00000  0.05    0.30
Q86   1   0.9102  0.5968  0.6539  11.00000  0.05    0.30
Q87   1   0.7277  0.4817  0.6126  11.00000  0.05    0.30
Q88   1   0.9600  0.7572  0.5469  11.00000  0.05    0.30
Q89   1   0.7384  0.4794  0.6922  11.00000  0.05    0.30
Q90   1   0.7777  0.5709  0.6701  11.00000  0.05    0.30
Q91   1   0.9118  0.2430  0.5895  11.00000  0.05    0.29
Q92   1   0.8224  0.4866  1.0048  11.00000  0.05    0.29
Q93   1   0.7244  0.4596  0.7030  11.00000  0.05    0.29
Q94   1   1.0115  0.5129  0.4566  11.00000  0.05    0.29
Q95   1   1.0635  0.4737  0.4114  11.00000  0.05    0.29
Q96   1   0.8608  0.4493  1.0313  11.00000  0.05    0.29
Q97   1   0.8368  0.7667  0.5809  11.00000  0.05    0.28
Q98   1   0.9564  0.2719  0.5438  11.00000  0.05    0.28
Q99   1   0.6482  0.3083  0.8766  11.00000  0.05    0.28
Q100  1   0.8448  0.7722  0.3415  11.00000  0.05    0.28
Q101  1   0.8043  0.7366  0.6158  11.00000  0.05    0.28
Q102  1   0.9145  0.5301  0.5441  11.00000  0.05    0.27
Q103  1   0.6130  0.2991  0.9194  11.00000  0.05    0.27
Q104  1   0.8859  0.2739  0.6571  11.00000  0.05    0.27
Q105  1   0.8084  0.3085  0.6948  11.00000  0.05    0.27
Q106  1   0.8824  0.0427  0.4312  11.00000  0.05    0.27
Q107  1   0.7252  0.3139  0.9210  11.00000  0.05    0.27
Q108  1   0.6705  0.5500  0.6896  11.00000  0.05    0.27
Q109  1   0.8629  0.7369  0.5448  11.00000  0.05    0.27
Q110  1   0.8602  0.1291  0.6516  11.00000  0.05    0.27
Q111  1   0.9084  0.3799  0.5901  11.00000  0.05    0.27
Q112  1   0.9117  0.5133  0.5693  11.00000  0.05    0.27
Q113  1   0.7694  0.7030  0.5789  11.00000  0.05    0.27
Q114  1   0.8220  0.4512  0.6465  11.00000  0.05    0.27
Q115  1   0.6236  0.3582  0.7968  11.00000  0.05    0.27
Q116  1   0.6678  0.7103  0.6208  11.00000  0.05    0.27
Q117  1   1.0125  0.4488  0.5149  11.00000  0.05    0.27
Q118  1   0.6870  0.5468  0.6697  11.00000  0.05    0.27
Q119  1   0.7284  0.4375  0.5564  11.00000  0.05    0.26
Q120  1   0.5453  0.4460  0.9763  11.00000  0.05    0.26
Q121  1   0.7732  0.2763  0.6976  11.00000  0.05    0.26
Q122  1   0.5378  0.4622  0.7500  10.50000  0.05    0.26
Q123  1   0.9463  0.0682  0.4602  11.00000  0.05    0.26
Q124  1   0.8653  0.6711  0.6704  11.00000  0.05    0.26
Q125  1   0.9641  0.7194  0.5200  11.00000  0.05    0.26
Q126  1   0.7321  0.7023  0.5158  11.00000  0.05    0.26
Q127  1   0.8742  0.1381  0.5973  11.00000  0.05    0.26
Q128  1   0.5898  0.4923  0.9607  11.00000  0.05    0.26
Q129  1   0.9247  0.4646  0.7259  11.00000  0.05    0.26
Q130  1   0.7900  0.7449  0.6708  11.00000  0.05    0.26
Q131  1   0.7886 -0.0066  0.6320  11.00000  0.05    0.26
Q132  1   0.9242  0.4908  0.5123  11.00000  0.05    0.26
Q133  1   0.8565  0.0104  0.4546  11.00000  0.05    0.26
Q134  1   0.6332  0.5022  0.9754  11.00000  0.05    0.26
Q135  1   0.5500  0.5060  0.9963  11.00000  0.05    0.25
Q136  1   0.8478  0.5072  0.6943  11.00000  0.05    0.25
Q137  1   0.7719  0.7124  0.7507  11.00000  0.05    0.25
Q138  1   0.7319  0.2648  0.9355  11.00000  0.05    0.25
Q139  1   0.8127  0.6982  0.4963  11.00000  0.05    0.25
Q140  1   0.8527  0.3717  0.7544  11.00000  0.05    0.25
Q141  1   0.7358  0.7390  0.4367  11.00000  0.05    0.25
Q142  1   0.7559  0.5095  0.9347  11.00000  0.05    0.25
Q143  1   0.6770  0.3103  0.9155  11.00000  0.05    0.25
Q144  1   1.0198  0.4725  0.4626  11.00000  0.05    0.25
Q145  1   0.6749  0.6317  0.5132  11.00000  0.05    0.25
Q146  1   0.9182  0.3196  0.6492  11.00000  0.05    0.25
Q147  1   0.7524  0.7150  0.7693  11.00000  0.05    0.25
Q148  1   0.9384  0.0799  0.5045  11.00000  0.05    0.25
Q149  1   0.8208  0.1497  0.5717  11.00000  0.05    0.25
Q150  1   0.9016  0.7212  0.5930  11.00000  0.05    0.25
Q151  1   0.7594  0.5205  0.9544  11.00000  0.05    0.25
Q152  1   0.8848  0.5071  0.5330  11.00000  0.05    0.25
Q153  1   0.6405  0.3413  0.9545  11.00000  0.05    0.25
Q154  1   0.8088  0.6477  0.6537  11.00000  0.05    0.25
Q155  1   0.6897  0.4607  1.0357  11.00000  0.05    0.25
Q156  1   0.7485  0.3707  0.7237  11.00000  0.05    0.25
Q157  1   0.9056  0.0861  0.5981  11.00000  0.05    0.25
Q158  1   0.7765  0.5073  0.9696  11.00000  0.05    0.25
Q159  1   0.7596  0.3699  0.8049  11.00000  0.05    0.25
Q160  1   0.8649  0.5402  0.6516  11.00000  0.05    0.25
Q161  1   1.0795  0.5513  0.3574  11.00000  0.05    0.24
Q162  1   0.9771  0.2190  0.5765  11.00000  0.05    0.24
Q163  1   0.8522  0.5150  0.8419  11.00000  0.05    0.24
Q164  1   0.7981  0.3269  0.5668  11.00000  0.05    0.24
Q165  1   0.8459  0.3393  0.5384  11.00000  0.05    0.24
Q166  1   1.0065  0.4122  0.5902  11.00000  0.05    0.24
Q167  1   0.8381  0.5673  1.0194  11.00000  0.05    0.24
Q168  1   0.8049  0.7071  0.7530  11.00000  0.05    0.24
Q169  1   0.8385  0.1495  0.5595  11.00000  0.05    0.24
Q170  1   0.7733  0.3574  0.6493  11.00000  0.05    0.24
Q171  1   0.4979  0.4979  1.0000  10.50000  0.05    0.24
Q172  1   0.8654  0.5087  0.8564  11.00000  0.05    0.24
Q173  1   0.8773  0.2296  0.6280  11.00000  0.05    0.24
Q174  1   0.8238  0.7104  0.7496  11.00000  0.05    0.23
Q175  1   0.7917 -0.0008  0.5559  11.00000  0.05    0.23
Q176  1   0.7595  0.6645  0.7402  11.00000  0.05    0.23
Q177  1   0.9054  0.0285  0.4801  11.00000  0.05    0.23
Q178  1   0.9613  0.1491  0.5442  11.00000  0.05    0.23
Q179  1   1.0436  0.6285  0.4140  11.00000  0.05    0.23
Q180  1   0.8829  0.6987  0.7475  11.00000  0.05    0.23
Q181  1   0.9388  0.6496  0.6704  11.00000  0.05    0.23
Q182  1   0.7396 -0.0012  0.6113  11.00000  0.05    0.23
Q183  1   0.6562  0.3276  1.0759  11.00000  0.05    0.23
Q184  1   0.6818  0.5244  0.8970  11.00000  0.05    0.23
Q185  1   0.8409  0.7122  0.7392  11.00000  0.05    0.23
Q186  1   0.8020  0.3205  0.8320  11.00000  0.05    0.23
Q187  1   0.7132  0.2537  0.9085  11.00000  0.05    0.23
Q188  1   0.8492  0.2250  0.5227  11.00000  0.05    0.23
Q189  1   0.7779  0.2120  0.6624  11.00000  0.05    0.23
Q190  1   0.6077  0.3003  0.7691  11.00000  0.05    0.23
Q191  1   1.0429  0.6088  0.4555  11.00000  0.05    0.22
Q192  1   0.6838  0.2502  0.9288  11.00000  0.05    0.22
Q193  1   0.9214  0.6387  0.7149  11.00000  0.05    0.22
Q194  1   0.7489  0.4453  0.5797  11.00000  0.05    0.22
Q195  1   0.7822  0.6937  0.4546  11.00000  0.05    0.22
Q196  1   0.9527  0.4457  0.4742  11.00000  0.05    0.22
Q197  1   0.7794  0.4817  0.7862  11.00000  0.05    0.22
Q198  1   0.9838  0.5910  0.4925  11.00000  0.05    0.22
Q199  1   0.7538  0.7292  0.7050  11.00000  0.05    0.22
Q200  1   0.7390  0.4383  0.6601  11.00000  0.05    0.22
;
_shelx_res_checksum              11535
_shelx_fab_checksum              54925
_shelx_fab_file
;
    1    1    0    317.07     -0.35
    1    2    0    -94.11      0.88
    0    2    0    210.02     -0.80
    2    2    0    113.72     -0.40
    2    3    0    -53.64      1.23
    1    3    0     79.74     -0.52
    3    3    0     84.09     -0.94
    3    4    0     43.13      0.74
    2    4    0     86.42     -0.75
    1    4    0    -34.55      0.56
    0    4    0     46.39     -0.26
    4    4    0     51.29     -2.53
    4    5    0     21.61     -0.31
    3    5    0     76.47     -2.38
    2    5    0    -16.67      0.23
    1    5    0     68.41     -0.42
    5    5    0    -34.81     -3.30
    5    6    0    -31.25     -0.34
    4    6    0      3.13     -3.14
    3    6    0    -40.53     -0.15
    2    6    0     78.74     -1.71
    1    6    0    -26.97     -0.05
    0    6    0     28.46     -0.36
    6    6    0    -50.45     -2.00
    6    7    0    -25.60      0.30
    5    7    0    -23.31     -2.04
    4    7    0    -66.42      0.12
    3    7    0     40.66     -2.19
    2    7    0    -42.83     -0.05
    1    7    0      9.41     -0.83
    7    7    0    -15.45     -0.69
    7    8    0    -12.34      0.25
    6    8    0     -6.74     -0.85
    5    8    0    -45.41      0.34
    4    8    0      7.59     -1.53
    3    8    0    -47.91      0.07
    2    8    0      7.40     -0.98
    1    8    0      3.09     -0.05
    0    8    0    -35.71     -0.41
    8    8    0     -7.18     -0.55
    8    9    0    -19.52     -0.13
    7    9    0     -8.23     -0.45
    6    9    0    -18.62      0.13
    5    9    0     -3.99     -0.78
    4    9    0    -36.27     -0.05
    3    9    0     -3.86     -0.75
    2    9    0     10.46     -0.05
    1    9    0    -18.30     -0.56
    9    9    0    -15.14     -0.34
    9   10    0    -16.67     -0.03
    8   10    0    -18.88     -0.16
    7   10    0    -11.59     -0.14
    6   10    0    -14.78     -0.35
    5   10    0    -18.46     -0.12
    4   10    0    -17.63     -0.51
    3   10    0     -7.63     -0.22
    2   10    0     -8.90     -0.61
    1   10    0     20.22     -0.02
    0   10    0      8.88     -0.59
   10   10    0     -6.82      0.12
   10   11    0      3.71      0.16
    9   11    0    -12.34      0.22
    8   11    0     -4.72     -0.07
    7   11    0    -21.15     -0.08
    6   11    0     -6.66     -0.07
    5   11    0    -17.67     -0.27
    4   11    0    -19.85     -0.20
    3   11    0    -19.55     -0.53
    2   11    0     -1.65     -0.07
    1   11    0     16.25     -0.65
   11   11    0      4.22      0.21
   11   12    0     14.32      0.12
   10   12    0     -1.22      0.24
    9   12    0      9.33      0.13
    8   12    0    -14.73      0.16
    7   12    0     -1.19      0.00
    6   12    0     -9.43     -0.11
    5   12    0    -11.80     -0.01
    4   12    0    -10.80     -0.28
    3   12    0    -22.62     -0.06
    2   12    0     -6.62     -0.54
    1   12    0     -7.63     -0.03
    0   12    0     21.52     -0.44
   12   12    0     -0.27      0.12
   12   13    0      9.84      0.06
   11   13    0     -2.28      0.09
   10   13    0     15.14      0.13
    9   13    0     -4.80      0.17
    8   13    0      2.94      0.10
    7   13    0     -3.87     -0.05
    6   13    0     -5.97      0.00
    5   13    0      5.71     -0.09
    4   13    0    -12.91      0.03
    3   13    0     -6.68     -0.25
    2   13    0    -18.19      0.01
    1   13    0      1.46     -0.27
   13   13    0     -2.13      0.06
   13   14    0      9.90      0.02
   12   14    0     -2.13      0.08
   11   14    0     10.51      0.08
   10   14    0     -1.75      0.05
    9   14    0      6.54      0.12
    8   14    0      0.47      0.02
    7   14    0     -6.90     -0.03
    6   14    0      6.28     -0.10
    5   14    0     -4.62     -0.11
    4   14    0      8.35     -0.05
    3   14    0     -7.29      0.03
    2   14    0     -3.23     -0.13
    1   14    0     -9.47     -0.05
    0   14    0      1.26     -0.01
   14   14    0      6.26     -0.01
   14   15    0     11.56     -0.02
   13   15    0      4.27      0.08
   12   15    0     10.37      0.06
   11   15    0      0.22      0.05
   10   15    0      6.73      0.07
    9   15    0      4.53      0.05
    8   15    0     -2.76      0.04
    7   15    0      3.30     -0.01
    6   15    0     -7.78     -0.21
    5   15    0      8.32     -0.06
    4   15    0     -0.23     -0.09
    3   15    0      7.33     -0.11
    2   15    0     -6.53     -0.05
    1   15    0      3.39     -0.02
   15   15    0      6.67      0.01
   15   16    0      5.56     -0.04
   14   16    0      2.68      0.07
   13   16    0     12.37     -0.01
   12   16    0      3.06      0.05
   11   16    0      6.39      0.08
   10   16    0      6.11      0.04
    9   16    0      2.47      0.02
    8   16    0      7.48      0.08
    7   16    0     -4.10     -0.05
    6   16    0      3.06      0.00
    5   16    0     -5.65     -0.14
    4   16    0      9.83     -0.13
    3   16    0     -3.08      0.00
    2   16    0     10.10     -0.12
    1   16    0     -5.88     -0.11
    0   16    0      7.11      0.01
   16   16    0      1.51      0.00
   16   17    0      3.38     -0.08
   15   17    0     -1.40      0.04
   14   17    0      8.99     -0.07
   13   17    0     -0.03     -0.01
   12   17    0      6.18      0.08
   11   17    0      4.55      0.02
   10   17    0      1.50      0.03
    9   17    0      8.47      0.04
    8   17    0      3.42      0.01
    7   17    0      6.31      0.04
    6   17    0     -4.72     -0.05
    5   17    0      6.67     -0.09
    4   17    0     -7.29      0.02
    3   17    0     13.13     -0.09
    2   17    0     -7.52     -0.05
    1   17    0      8.81     -0.07
   17   17    0      1.65     -0.08
   17   18    0      5.81     -0.06
   16   18    0      0.63     -0.03
   15   18    0      7.24     -0.11
   13   18    0      6.05      0.02
   12   18    0      1.57     -0.07
   11   18    0     -0.29      0.11
   10   18    0      2.29      0.02
    9   18    0      1.48      0.03
    8   18    0      6.71      0.00
    7   18    0      1.74      0.03
    6   18    0      8.58     -0.04
    5   18    0     -8.76     -0.01
    4   18    0     11.59     -0.05
    3   18    0     -9.06      0.02
    2   18    0     10.45      0.01
    1   18    0     -4.87     -0.07
    0   18    0      4.20     -0.17
   14   18    0     -2.23     -0.03
   18   18    0      0.49     -0.06
   18   19    0      3.25      0.02
   17   19    0      0.53     -0.03
    9   19    0     -0.10     -0.02
    8   19    0     -0.89      0.09
    7   19    0      8.42     -0.05
    6   19    0     -6.23      0.02
    5   19    0     10.65     -0.05
    4   19    0    -10.38      0.01
    3   19    0      9.83      0.11
    2   19    0     -5.86      0.03
    1   19    0      3.42     -0.17
   10   19    0     -1.72      0.13
   11   19    0     -0.41     -0.01
   12   19    0      2.47      0.09
   13   19    0      1.44     -0.08
   14   19    0      8.05     -0.02
   15   19    0     -0.14      0.01
   16   19    0      6.24     -0.07
   19   19    0     -1.92     -0.01
   11   20    0      1.27      0.18
   10   20    0     -0.68      0.00
    9   20    0     -4.91      0.25
    8   20    0      3.66     -0.10
    7   20    0     -7.67      0.12
    6   20    0      8.50     -0.08
    5   20    0    -11.06      0.00
    4   20    0      6.24      0.05
    3   20    0     -7.13      0.05
    2   20    0      3.83      0.08
    1   20    0     -1.97      0.13
    0   20    0      0.35     -0.28
   12   20    0      2.68     -0.02
   13   20    0      5.31      0.05
   14   20    0      1.64      0.01
   15   20    0      7.42      0.00
   16   20    0     -0.68      0.03
   17   20    0      1.79     -0.01
   18   20    0     -1.42     -0.01
   14   21    0      3.96      0.06
   13   21    0      3.99      0.02
   12   21    0      1.20      0.12
   11   21    0      3.68      0.02
   10   21    0     -2.61      0.38
    9   21    0      3.86     -0.08
    8   21    0     -8.22      0.34
    7   21    0      5.34     -0.10
    6   21    0    -10.45      0.07
    5   21    0      2.39     -0.02
    4   21    0     -9.73     -0.08
    3   21    0      0.95      0.13
    2   21    0     -3.85      0.13
    1   21    0     -0.11     -0.09
   15   21    0     -0.39      0.02
   16   21    0      3.15      0.01
   17   21    0     -1.53      0.01
   16   22    0     -0.68     -0.01
   15   22    0      1.44      0.05
   14   22    0      3.18     -0.02
   13   22    0     -2.43      0.04
   12   22    0      4.12      0.00
   11   22    0     -3.06      0.26
   10   22    0      5.16     -0.03
    9   22    0     -5.31      0.51
    8   22    0      4.45     -0.04
    7   22    0     -6.92      0.26
    6   22    0      1.16      0.05
    5   22    0     -9.19     -0.04
    4   22    0     -2.28      0.09
    3   22    0     -6.78     -0.05
    2   22    0     -1.03      0.02
    1   22    0     -1.80      0.17
    0   22    0     -2.29     -0.10
   14   23    0     -2.80      0.02
   13   23    0      3.90     -0.05
   12   23    0     -4.96      0.04
   11   23    0      2.39     -0.07
   10   23    0     -4.92      0.32
    9   23    0      2.73     -0.02
    8   23    0     -4.00      0.34
    7   23    0      0.84      0.12
    6   23    0     -5.69      0.12
    5   23    0     -2.39      0.18
    4   23    0     -7.94     -0.03
    3   23    0     -2.47      0.04
    2   23    0     -4.14      0.18
    1   23    0     -2.21      0.01
   12   24    0      1.42     -0.08
   11   24    0     -4.20      0.04
   10   24    0      0.22     -0.11
    9   24    0     -3.80      0.16
    8   24    0     -0.67      0.03
    7   24    0     -3.75      0.10
    6   24    0     -1.06      0.16
    5   24    0     -6.80      0.06
    4   24    0     -3.49      0.09
    3   24    0     -6.83      0.13
    2   24    0     -2.41      0.01
    1   24    0     -1.71      0.19
    0   24    0     -2.95      0.25
   10   25    0     -2.56      0.00
    9   25    0     -0.86     -0.06
    8   25    0     -3.04     -0.04
    7   25    0     -0.23      0.04
    6   25    0     -4.87     -0.04
    5   25    0     -2.14      0.05
    4   25    0     -6.95      0.04
    3   25    0     -4.36     -0.06
    2   25    0     -4.05      0.12
    1   25    0     -3.69      0.20
    7   26    0     -2.91     -0.10
    6   26    0      0.31      0.00
    5   26    0     -3.60     -0.05
    4   26    0     -3.92     -0.04
    3   26    0     -4.53      0.03
    2   26    0     -4.83     -0.03
    1   26    0     -0.92     -0.02
    0   26    0     -3.65      0.20
    3   27    0     -4.13     -0.03
    2   27    0     -1.75     -0.01
    1   27    0     -2.47      0.03
    0    1    1    -43.48     45.18
    1    1    1      4.20     31.22
    1    2    1     -4.37     49.85
    0    2    1     56.45     55.78
    2    2    1      3.03    -56.73
    2    3    1      9.24    -18.07
    1    3    1     57.30     -7.91
    0    3    1     26.03    -24.99
    3    3    1      0.51   -106.52
    3    4    1      9.31    -22.98
    2    4    1     -2.78    -61.91
    1    4    1     35.80    -72.07
    0    4    1     31.63     31.40
    4    4    1     -0.15    -45.84
    4    5    1     22.38      2.28
    3    5    1    -31.73    -30.75
    2    5    1     11.07    -52.83
    1    5    1     -9.70     -7.23
    0    5    1     55.01    -55.02
    5    5    1      0.57     -1.83
    5    6    1     25.49    -12.91
    4    6    1    -17.98     -7.77
    3    6    1     27.36     -9.98
    2    6    1    -24.91     -9.92
    1    6    1     -1.71    -44.85
    0    6    1    -13.82    -13.16
    6    6    1      0.91     -3.81
    6    7    1     11.78    -24.46
    5    7    1    -12.31    -13.57
    4    7    1     36.52     -2.53
    3    7    1      6.39    -13.97
    2    7    1     -2.92    -22.28
    1    7    1    -14.88    -14.46
    0    7    1      6.25     -5.59
    7    7    1      0.32      9.39
    7    8    1      0.32     -4.05
    6    8    1    -13.40     -0.85
    5    8    1     11.55     -2.42
    4    8    1     12.41    -21.16
    3    8    1     10.93     -5.85
    2    8    1     18.26    -12.38
    1    8    1     -0.21    -21.78
    0    8    1    -22.37    -21.69
    8    8    1     -0.20     29.61
    8    9    1     -2.02     12.75
    7    9    1     -4.75     19.35
    6    9    1     -7.88     10.88
    5    9    1     -2.21    -10.32
    4    9    1     -6.31      6.04
    3    9    1     25.74     -3.08
    2    9    1     10.48    -17.45
    1    9    1     -6.87    -13.04
    0    9    1     19.67    -19.26
    9    9    1     -0.12     26.71
    9   10    1     -2.58     10.71
    8   10    1      5.53     20.76
    7   10    1     -7.00     18.15
    6   10    1     -0.60      6.53
    5   10    1    -19.49     12.59
    4   10    1      6.37      5.25
    3   10    1     -1.36     -4.26
    2   10    1      3.97     12.57
    1   10    1     19.08    -12.14
    0   10    1    -14.41    -14.04
   10   10    1     -0.12     14.17
   10   11    1     -5.23      8.03
    9   11    1      6.17     13.71
    8   11    1     -5.15     12.34
    7   11    1      8.39     14.12
    6   11    1    -11.37     13.10
    5   11    1      1.44      8.59
    4   11    1    -14.44     -0.12
    3   11    1     -0.57     19.44
    2   11    1     10.53      2.03
    1   11    1     -7.30      4.36
    0   11    1      0.70     -0.59
   11   11    1     -0.25     11.36
   11   12    1     -5.75     10.50
   10   12    1      3.35     13.11
    9   12    1     -9.90      6.08
    8   12    1      5.68     14.54
    7   12    1     -5.79     10.01
    6   12    1      7.07     11.92
    5   12    1    -11.51      3.42
    4   12    1     -0.86     10.00
    3   12    1     -2.04      0.92
    2   12    1      0.82      8.46
    1   12    1      1.22     17.00
    0   12    1      1.66      1.70
   12   12    1     -0.14      8.97
   12   13    1     -3.81      5.24
   11   13    1      5.52     10.42
   10   13    1     -9.87      5.45
    9   13    1     -0.17     13.98
    8   13    1     -9.85      5.67
    7   13    1      4.18     12.81
    6   13    1     -8.83      9.39
    5   13    1      4.59      6.79
    4   13    1     -9.05      1.30
    3   13    1      2.27      0.07
    2   13    1      0.70     11.28
    1   13    1     10.47      1.27
    0   13    1    -10.81     10.95
   13   13    1      0.00      0.60
   13   14    1     -3.37     -3.83
   12   14    1      7.38      0.75
   11   14    1     -4.54      2.84
   10   14    1      2.81      9.77
    9   14    1     -8.58      3.51
    8   14    1     -0.91      9.24
    7   14    1    -12.70      9.00
    6   14    1      6.21      7.03
    5   14    1    -11.00      8.65
    4   14    1      2.91      0.87
    3   14    1     -6.63      3.41
    2   14    1      8.30     -5.81
    1   14    1     -1.40      7.85
    0   14    1      8.68      8.55
   14   14    1      0.08     -0.45
   14   15    1     -3.90     -4.07
   13   15    1      4.45     -2.42
   12   15    1     -4.05     -1.41
   11   15    1      5.70      1.15
   10   15    1     -1.48      2.06
    9   15    1      2.24      4.42
    8   15    1    -12.29      4.67
    7   15    1      5.10      2.69
    6   15    1    -12.95      9.16
    5   15    1      6.34      4.38
    4   15    1     -8.71      4.64
    3   15    1      1.47     -2.93
    2   15    1     -4.34      1.92
    1   15    1      7.95     -0.90
    0   15    1      0.32     -0.25
   15   15    1      0.10      1.85
   15   16    1     -2.58     -3.08
   14   16    1      1.90     -0.62
   13   16    1     -6.33     -1.32
   12   16    1      1.80     -3.13
   11   16    1     -1.34     -0.39
   10   16    1      4.91      0.74
    9   16    1     -6.36      2.89
    8   16    1      7.21     -1.22
    7   16    1    -13.83      3.90
    6   16    1      7.57      0.59
    5   16    1     -6.29      3.62
    4   16    1      2.90      2.51
    3   16    1     -5.33      1.70
    2   16    1      0.39     -3.93
    1   16    1     -1.11     -1.98
    0   16    1      1.51      1.74
   16   16    1      0.04     -3.61
   16   17    1     -0.71     -4.91
   15   17    1      1.97     -3.50
   14   17    1     -4.26     -2.66
   13   17    1     -0.27     -3.62
   12   17    1     -4.54     -1.81
   11   17    1      0.93     -1.38
   10   17    1     -5.33      1.17
    9   17    1      8.11     -1.21
    8   17    1    -11.22      2.95
    7   17    1      6.44     -3.14
    6   17    1     -6.53     -0.43
    5   17    1      4.75      0.52
    4   17    1     -0.35      0.10
    3   17    1      0.48     -2.41
    2   17    1     -2.93     -0.49
    1   17    1     -1.66     -3.77
    0   17    1      1.97     -1.82
   17   17    1      0.04     -6.62
   17   18    1     -0.12     -2.15
   16   18    1      0.96     -4.27
   15   18    1     -1.42     -5.97
   14   18    1      1.17     -4.86
   13   18    1     -2.65     -2.89
   12   18    1     -0.44     -3.90
   11   18    1     -5.98     -2.63
   10   18    1      4.10     -1.50
    9   18    1     -8.90      2.66
    8   18    1      4.95     -1.88
    7   18    1     -7.15      0.38
    6   18    1      0.93     -2.29
    5   18    1      0.47     -2.91
    4   18    1      3.13     -3.42
    3   18    1      0.63     -0.22
    2   18    1     -1.45     -6.01
    1   18    1      0.29     -2.65
    0   18    1     -4.63     -4.62
   18   18    1      0.04     -3.49
   18   19    1      0.31      0.72
   17   19    1     -0.25     -1.53
   16   19    1     -1.13     -4.26
   15   19    1      0.10     -2.95
   14   19    1     -1.04     -3.50
   13   19    1      0.51     -5.45
   12   19    1     -2.29     -4.30
   11   19    1      1.84     -3.24
   10   19    1     -6.21     -2.04
    9   19    1      2.86     -1.70
    8   19    1     -4.79      1.48
    7   19    1     -1.89     -1.28
    6   19    1     -2.14     -1.38
    5   19    1     -0.11     -4.26
    4   19    1      1.42     -1.64
    3   19    1      1.00     -7.08
    2   19    1      0.96     -2.58
    1   19    1     -4.74     -6.23
    0   19    1      3.57     -3.61
   19   19    1     -0.03     -1.89
   15   20    1     -1.51     -2.45
   14   20    1     -1.61     -3.29
   13   20    1     -0.37     -2.23
   12   20    1      0.40     -2.52
   11   20    1     -1.99     -4.39
   10   20    1      0.96     -2.96
    9   20    1     -1.64     -1.22
    8   20    1     -0.70     -1.78
    7   20    1     -0.65      0.53
    6   20    1     -2.39     -2.78
    5   20    1     -1.26     -0.65
    4   20    1      0.22     -6.48
    3   20    1      1.16     -2.72
    2   20    1     -4.01     -6.49
    1   20    1      2.87     -5.34
    0   20    1     -6.42     -6.59
   16   20    1     -1.13      0.24
   17   20    1     -0.28     -1.20
   18   20    1      0.15     -1.20
   17   21    1     -0.48      0.41
   16   21    1     -0.43     -1.62
   15   21    1     -2.43     -0.60
   14   21    1     -0.06     -0.34
   13   21    1     -2.73     -0.70
   12   21    1     -0.18     -1.88
   11   21    1     -1.34     -1.23
   10   21    1     -0.77     -0.99
    9   21    1     -0.81     -3.14
    8   21    1      1.14      0.01
    7   21    1      0.01     -2.57
    6   21    1     -0.85      0.62
    5   21    1     -0.31     -3.76
    4   21    1      0.33     -1.48
    3   21    1     -2.85     -5.41
    2   21    1      2.74     -5.09
    1   21    1     -7.10     -6.43
    0   21    1      4.66     -4.81
   15   22    1      1.47      0.02
   14   22    1     -2.85     -0.94
   13   22    1      0.78     -0.05
   12   22    1     -2.89      0.21
   11   22    1     -1.02      1.70
   10   22    1     -2.36     -1.89
    9   22    1     -1.30      1.85
    8   22    1      0.13     -2.20
    7   22    1     -0.33      0.52
    6   22    1      0.68     -2.08
    5   22    1     -0.17     -0.11
    4   22    1     -1.93     -2.38
    3   22    1      3.82     -2.85
    2   22    1     -5.38     -4.54
    1   22    1      4.27     -5.04
    0   22    1     -6.18     -7.17
   16   22    1     -1.38      0.43
   14   23    1      2.11      0.75
   13   23    1     -1.62     -0.70
   12   23    1     -0.11      1.20
   11   23    1     -1.51     -1.10
   10   23    1     -2.55      3.74
    9   23    1     -1.25     -0.23
    8   23    1     -2.29      1.87
    7   23    1     -0.16     -0.81
    6   23    1     -0.94      0.28
    5   23    1     -2.58     -0.47
    4   23    1      2.73     -0.66
    3   23    1     -3.79     -1.27
    2   23    1      5.04     -2.89
    1   23    1     -4.65     -4.18
    0   23    1      4.01     -4.09
   12   24    1      0.24     -0.96
   11   24    1     -0.97      1.84
   10   24    1     -0.15     -0.12
    9   24    1     -1.97      2.61
    8   24    1     -1.12      1.11
    7   24    1     -0.88      1.52
    6   24    1     -2.77     -0.18
    5   24    1      0.64      0.03
    4   24    1     -4.25      0.25
    3   24    1      3.68     -0.51
    2   24    1     -2.65     -0.94
    1   24    1      3.08     -2.08
    0   24    1     -2.61     -3.12
   10   25    1      0.06      0.90
    9   25    1     -0.80      1.10
    8   25    1      0.58      2.22
    7   25    1     -1.52      0.47
    6   25    1      0.78      0.89
    5   25    1     -2.87     -0.15
    4   25    1      1.55      0.23
    3   25    1     -1.63      0.16
    2   25    1      2.38     -0.38
    1   25    1     -1.03     -0.96
    0   25    1      1.26     -1.23
    7   26    1      1.16      1.77
    6   26    1     -0.25      0.11
    5   26    1      0.95      0.16
    4   26    1     -0.42     -0.18
    3   26    1      1.76      0.12
    2   26    1      0.58      0.52
    1   26    1      1.79     -0.65
    0   26    1     -0.29     -0.34
    3   27    1      0.53      0.86
    2   27    1      2.02     -0.47
    1   27    1      0.45      0.82
    0   27    1      1.42     -1.41
    0    1    2     41.28     -2.68
    1    1    2    -17.29      0.64
    1    2    2     53.20     14.94
    0    2    2     -0.68    -47.34
    2    2    2    -50.73      2.17
    2    3    2     54.85     36.21
    1    3    2    -24.97    -33.15
    0    3    2     37.32     -0.07
    3    3    2    -59.99      1.04
    3    4    2     40.73     26.87
    2    4    2    -27.52    -15.83
    1    4    2     29.70     44.31
    0    4    2     -0.76      7.12
    4    4    2    -46.53     -0.52
    4    5    2     14.85      6.48
    3    5    2    -27.09    -23.29
    2    5    2     20.61     31.02
    1    5    2      6.01     32.21
    0    5    2     26.73     -0.08
    5    5    2    -32.74     -0.52
    5    6    2    -12.03      0.43
    4    6    2    -30.78    -13.64
    3    6    2      3.27     -1.96
    2    6    2     -2.02      0.69
    1    6    2     20.02     -4.48
    0    6    2     -0.27     55.18
    6    6    2    -19.33     -0.16
    6    7    2    -27.18     -1.57
    5    7    2    -26.87      9.32
    4    7    2     -7.14     -0.41
    3    7    2    -20.38    -10.07
    2    7    2     -5.08    -22.21
    1    7    2     -0.59     17.12
    0    7    2     19.30     -0.53
    7    7    2     -7.87      0.00
    7    8    2    -32.29     -7.10
    6    8    2    -19.28     12.37
    5    8    2    -10.92      4.21
    4    8    2    -26.14      6.47
    3    8    2    -16.38     -1.39
    2    8    2    -10.49     -3.84
    1    8    2     -3.35    -16.44
    0    8    2     -0.34      2.20
    8    8    2     -2.76      0.07
    8    9    2    -30.41     -7.95
    7    9    2    -13.28      3.11
    6    9    2    -14.40     -7.43
    5    9    2    -26.56      4.10
    4    9    2    -13.72     14.56
    3    9    2    -10.60      2.67
    2    9    2    -21.97     -2.90
    1    9    2     -8.15     -2.42
    0    9    2     -6.80     -0.17
    9    9    2      1.83      0.08
    9   10    2    -22.42     -2.99
    8   10    2     -5.61      1.50
    7   10    2    -15.27    -11.21
    6   10    2    -23.44     -8.71
    5   10    2    -11.47      4.05
    4   10    2     -9.60     -3.03
    3   10    2    -24.76      8.38
    2   10    2     -7.31      6.05
    1   10    2    -16.10     -3.81
    0   10    2     -0.05      0.45
   10   10    2      6.13      0.13
   10   11    2    -12.20     -0.02
    9   11    2      2.70      3.21
    8   11    2    -12.76     -1.50
    7   11    2    -13.95     -7.93
    6   11    2     -9.96     -2.56
    5   11    2    -10.14    -13.77
    4   11    2    -22.16      2.19
    3   11    2     -0.48      4.76
    2   11    2    -17.87     -4.41
    1   11    2     -9.55      3.47
    0   11    2    -11.93      0.01
   11   11    2      5.74      0.02
   11   12    2     -3.29     -0.49
   10   12    2      7.37     -1.00
    9   12    2     -9.04      3.76
    8   12    2     -1.29     -2.28
    7   12    2     -7.53      4.35
    6   12    2     -7.27    -11.73
    5   12    2    -17.71     -1.84
    4   12    2      1.84     -1.57
    3   12    2    -14.53     -6.05
    2   12    2    -10.40      5.28
    1   12    2     -6.71     -3.76
    0   12    2     -0.15     -5.63
   12   12    2      3.18     -0.10
   12   13    2      2.84      0.65
   11   13    2      8.98     -4.51
   10   13    2     -6.93      1.03
    9   13    2      8.34     -5.46
    8   13    2     -4.08      7.70
    7   13    2     -0.76     -5.17
    6   13    2     -9.55      2.33
    5   13    2      0.56     -3.50
    4   13    2    -11.31     -4.99
    3   13    2     -7.00      5.36
    2   13    2      1.70     -1.83
    1   13    2    -10.33     -5.75
    0   13    2     -3.66     -0.03
   13   13    2      4.94     -0.08
   13   14    2      6.03      2.48
   12   14    2     11.61     -1.55
   11   14    2     -6.05      2.67
   10   14    2     12.46     -8.61
    9   14    2     -2.44      3.18
    8   14    2      3.74     -6.02
    7   14    2      0.28      4.88
    6   14    2      0.30     -2.42
    5   14    2     -5.96     -1.41
    4   14    2     -4.69      1.41
    3   14    2      6.42      0.06
    2   14    2    -10.59      0.07
    1   14    2      2.23      4.07
    0   14    2     -0.04     -7.58
   14   14    2      7.45     -0.10
   14   15    2      3.78      1.57
   13   15    2     11.57     -0.19
   12   15    2     -3.62      6.57
   11   15    2     14.47     -3.14
   10   15    2     -2.87      4.04
    9   15    2      3.26     -7.94
    8   15    2      5.71      2.44
    7   15    2     -0.31     -3.26
    6   15    2      1.24      2.08
    5   15    2     -2.54     -2.47
    4   15    2      5.12      0.08
    3   15    2     -8.00     -0.52
    2   15    2     10.33      5.49
    1   15    2     -1.74     -1.02
    0   15    2      0.75      0.07
   15   15    2      5.24     -0.07
   15   16    2     -0.71      1.00
   14   16    2      5.97     -2.41
   13   16    2     -1.15      3.63
   12   16    2     12.92     -0.51
   11   16    2     -2.50      8.08
   10   16    2      2.97     -3.12
    9   16    2      5.41      3.68
    8   16    2     -3.65     -4.55
    7   16    2      4.93      3.08
    6   16    2     -0.56     -3.28
    5   16    2      2.70      2.22
    4   16    2     -6.64     -3.37
    3   16    2      9.96      1.42
    2   16    2     -0.64      0.11
    1   16    2      6.77      3.10
    0   16    2     -0.04      3.51
   16   16    2      4.43      0.00
   16   17    2     -0.84      2.19
   15   17    2      2.79     -1.85
   14   17    2     -0.18      1.26
   13   17    2      6.54     -3.09
   12   17    2     -1.20      4.24
   11   17    2      4.12     -1.25
   10   17    2      4.07      7.05
    9   17    2     -5.21     -2.58
    8   17    2      2.97      4.15
    7   17    2     -1.95     -2.94
    6   17    2      0.98      4.50
    5   17    2     -4.08     -2.10
    4   17    2      4.44      0.47
    3   17    2     -4.76     -0.93
    2   17    2      8.06      0.04
    1   17    2      3.14      3.49
    0   17    2      9.39      0.03
   17   17    2      4.69     -0.03
   17   18    2      0.38      2.15
   16   18    2      3.04     -0.88
   15   18    2      0.90      3.48
   14   18    2      1.45     -0.90
   13   18    2     -0.54      0.79
   12   18    2      3.40     -3.52
   11   18    2      3.32      4.37
   10   18    2     -2.65     -2.14
    9   18    2      1.55      5.11
    8   18    2     -3.81     -2.33
    7   18    2     -2.51      4.19
    6   18    2     -3.01     -0.42
    5   18    2      1.62      2.12
    4   18    2     -8.02      1.73
    3   18    2      3.04     -1.33
    2   18    2     -1.29      1.64
    1   18    2      9.38     -0.56
    0   18    2     -0.11      3.91
   18   18    2      1.80     -0.01
   18   19    2      0.21      1.35
   17   19    2      1.87     -1.95
   16   19    2      1.36      3.06
   15   19    2      0.32      1.39
   14   19    2     -0.20      2.20
   13   19    2      1.26     -0.45
   12   19    2      1.01      2.02
   11   19    2     -0.43     -2.96
   10   19    2      2.72      3.51
    9   19    2     -1.96     -1.76
    8   19    2     -3.98      2.61
    7   19    2     -4.26     -0.66
    6   19    2     -0.03      1.49
    5   19    2     -7.60      3.09
    4   19    2      2.15     -0.64
    3   19    2     -7.70      2.96
    2   19    2      2.34     -0.82
    1   19    2     -1.68      2.72
    0   19    2      8.73      0.14
   19   19    2      0.22      0.04
   18   20    2      1.04     -1.30
   17   20    2      0.54      1.51
   16   20    2      0.59     -0.51
   15   20    2      0.44      0.60
   14   20    2     -0.08      2.34
   13   20    2     -1.97      2.36
   12   20    2      0.12     -0.35
   11   20    2      1.65      2.57
   10   20    2     -0.45     -0.25
    9   20    2     -1.42      1.76
    8   20    2     -3.82      0.10
    7   20    2     -1.50      0.37
    6   20    2     -8.33      1.79
    5   20    2      4.47     -1.23
    4   20    2     -7.14      3.57
    3   20    2     -0.23     -0.79
    2   20    2     -5.64      2.58
    1   20    2      1.44     -0.26
    0   20    2      0.00      3.27
   17   21    2      1.17     -0.36
   16   21    2      0.19     -0.88
   15   21    2     -0.05      0.73
   14   21    2     -2.76     -0.10
   13   21    2      0.74      0.97
   12   21    2     -1.38      1.96
   11   21    2     -1.06      1.44
   10   21    2      0.46      1.40
    9   21    2     -2.63      2.27
    8   21    2     -0.29      0.81
    7   21    2     -9.76      1.98
    6   21    2      3.07     -0.79
    5   21    2     -6.49      2.82
    4   21    2      2.36     -1.54
    3   21    2     -3.13      2.41
    2   21    2     -2.50     -0.36
    1   21    2     -2.81      2.88
    0   21    2     -1.19     -0.12
   15   22    2     -1.85     -1.38
   14   22    2      1.17     -0.16
   13   22    2     -2.74     -0.02
   12   22    2     -0.98      0.77
   11   22    2      0.68     -0.26
   10   22    2     -2.94      2.59
    9   22    2      1.71      0.32
    8   22    2     -7.58      2.69
    7   22    2      1.71      0.49
    6   22    2     -9.02      2.89
    5   22    2      0.65     -0.96
    4   22    2     -1.16      2.43
    3   22    2     -1.53     -0.55
    2   22    2     -2.01      2.10
    1   22    2     -2.04     -0.06
    0   22    2      0.01      2.61
   14   23    2     -1.92     -0.30
   13   23    2     -0.26     -0.17
   12   23    2      0.82     -1.37
   11   23    2     -3.12      1.08
   10   23    2      1.75     -1.70
    9   23    2     -4.12      1.53
    8   23    2      2.68     -0.34
    7   23    2     -7.04      1.92
    6   23    2     -1.26     -0.30
    5   23    2     -3.59      2.63
    4   23    2     -2.30     -0.71
    3   23    2     -1.29      1.68
    2   23    2     -1.78     -0.26
    1   23    2     -2.14      1.73
    0   23    2     -1.51      0.18
   12   24    2     -2.08      0.46
   11   24    2      1.18     -1.96
   10   24    2     -2.16      0.29
    9   24    2      1.35     -1.72
    8   24    2     -2.86      0.22
    7   24    2      0.74     -1.35
    6   24    2     -3.16      1.42
    5   24    2     -2.65     -1.37
    4   24    2     -2.49      1.45
    3   24    2     -1.32     -1.14
    2   24    2     -3.20      0.35
    1   24    2     -2.30     -0.62
    0   24    2      0.21      0.21
   10   25    2     -0.65     -1.36
    9   25    2     -1.31      0.06
    8   25    2      1.16     -1.73
    7   25    2     -1.46      0.33
    6   25    2     -0.48     -2.24
    5   25    2     -2.41      0.80
    4   25    2     -0.55     -1.82
    3   25    2     -2.94     -0.63
    2   25    2     -1.62     -1.56
    1   25    2     -1.85     -1.88
    0   25    2     -4.17     -0.03
    7   26    2      0.92     -1.55
    6   26    2     -1.42      0.47
    5   26    2     -0.05     -1.80
    4   26    2     -2.36     -0.78
    3   26    2     -0.45     -1.18
    2   26    2     -1.49     -2.59
    1   26    2     -4.05     -0.84
    0   26    2      0.03     -3.29
    2   27    2     -2.50     -0.26
    1   27    2     -0.12     -2.66
    0   27    2     -5.15     -0.08
    0    1    3    -15.88    -15.91
    1    1    3      0.71    -21.07
    1    2    3    -12.23    -27.70
    0    2    3     14.05    -11.12
    2    2    3      0.66    -24.81
    2    3    3     -2.33    -18.78
    1    3    3     -0.19    -23.15
    0    3    3    -21.82    -22.95
    3    3    3      0.07    -16.79
    3    4    3      5.11    -20.04
    2    4    3    -10.09    -30.16
    1    4    3    -11.05    -11.43
    0    4    3     18.35    -17.45
    4    4    3     -0.03     -9.25
    4    5    3      5.96    -27.17
    3    5    3    -13.49    -29.89
    2    5    3     -1.86      2.56
    1    5    3      7.89    -35.82
    0    5    3    -17.65    -16.63
    5    5    3      0.03     -2.60
    5    6    3      2.12    -20.67
    4    6    3     -6.87    -21.92
    3    6    3      3.27      7.19
    2    6    3      4.15    -37.96
    1    6    3    -20.41     -7.09
    0    6    3     20.17    -19.93
    6    6    3     -0.02      3.68
    6    7    3     -3.87     -5.11
    5    7    3      1.83     -9.09
    4    7    3      1.70      7.29
    3    7    3      4.89    -32.02
    2    7    3     -8.67      5.60
    1    7    3     16.09    -11.29
    0    7    3    -18.82    -18.25
    7    7    3      0.03      3.62
    7    8    3     -6.11      8.12
    6    8    3      7.32      0.32
    5    8    3     -4.68      7.59
    4    8    3      1.42    -21.36
    3    8    3     -1.48      9.44
    2    8    3     14.36     -6.45
    1    8    3     -5.41     -8.26
    0    8    3      3.60     -3.78
    8    8    3      0.05     -2.31
    8    9    3     -4.61     17.78
    7    9    3      9.71      2.88
    6    9    3     -5.92      8.73
    5    9    3     -0.56     -6.45
    4    9    3      0.99      9.62
    3    9    3      1.13     -8.37
    2    9    3      1.05     -6.33
    1    9    3      8.94      5.97
    0    9    3      1.06      0.93
    9    9    3      0.06     -6.32
    9   10    3     -2.46     23.97
    8   10    3      6.52      2.75
    7   10    3     -3.49      9.38
    6   10    3      0.68      6.17
    5   10    3      6.79     11.11
    4   10    3     -7.59     -5.08
    3   10    3      1.27     -3.03
    2   10    3      2.74      5.26
    1   10    3      4.96     -3.08
    0   10    3      1.70     -1.81
   10   10    3      0.09     -6.48
   10   11    3     -0.11     23.47
    9   11    3      0.39      3.12
    8   11    3     -1.84      8.59
    7   11    3     -0.46     11.10
    6   11    3      9.38      9.89
    5   11    3     -9.29      1.21
    4   11    3      7.46      6.52
    3   11    3     -2.69      3.42
    2   11    3     -1.96     -5.72
    1   11    3      2.07      2.12
    0   11    3      4.79      5.07
   11   11    3      0.10     -7.33
   11   12    3      2.26     16.84
   10   12    3     -4.83      1.88
    9   12    3     -0.18      7.25
    8   12    3     -3.25     11.16
    7   12    3      6.52      5.17
    6   12    3     -9.51      2.42
    5   12    3     11.72     12.82
    4   12    3     -4.16      1.86
    3   12    3     -2.70     -1.45
    2   12    3     -1.56      4.89
    1   12    3      0.33      2.01
    0   12    3     -1.80      1.57
   12   12    3      0.07     -8.68
   12   13    3      3.75     10.14
   11   13    3     -7.16     -2.29
   10   13    3      2.16      5.69
    9   13    3     -5.35      9.44
    8   13    3      1.83      3.33
    7   13    3     -8.24      0.66
    6   13    3      9.89     11.21
    5   13    3     -6.51     -1.53
    4   13    3      1.34      3.06
    3   13    3     -1.49      7.00
    2   13    3     -3.43     -2.64
    1   13    3     -7.81      3.65
    0   13    3      2.66      2.57
   13   13    3     -0.05     -5.63
   13   14    3      2.84      4.99
   12   14    3     -7.54     -4.79
   11   14    3      3.99      4.87
   10   14    3     -5.05      3.48
    9   14    3     -1.09      4.66
    8   14    3     -5.79      1.56
    7   14    3      4.46      8.34
    6   14    3     -8.61     -4.25
    5   14    3      3.40      2.88
    4   14    3     -2.69      8.12
    3   14    3     -1.12     -6.47
    2   14    3     -9.62      5.52
    1   14    3      0.42     -1.51
    0   14    3     -7.38      7.45
   14   14    3     -0.07     -1.85
   14   15    3      1.38     -0.88
   13   15    3     -6.36     -4.90
   12   15    3      2.18      5.17
   11   15    3     -4.69     -3.59
   10   15    3     -2.03      3.66
    9   15    3     -2.34      1.03
    8   15    3      0.62      7.70
    7   15    3     -8.44     -1.42
    6   15    3      2.96      0.77
    5   15    3     -6.70      7.09
    4   15    3      0.62     -8.79
    3   15    3     -8.39      9.75
    2   15    3      2.24     -5.71
    1   15    3    -10.70      2.69
    0   15    3     -3.08     -3.01
   15   15    3      0.04     -3.10
   15   16    3      0.73     -4.08
   14   16    3     -1.73     -6.12
   13   16    3      0.89      4.32
   12   16    3     -4.77     -6.07
   11   16    3     -3.97      1.53
   10   16    3     -1.27     -2.45
    9   16    3     -0.89      3.40
    8   16    3     -6.09      1.94
    7   16    3      3.89      0.94
    6   16    3     -9.26      6.95
    5   16    3      0.19     -9.93
    4   16    3     -8.32     11.50
    3   16    3      3.06     -6.76
    2   16    3     -9.83      3.59
    1   16    3     -3.02     -5.81
    0   16    3     -3.48      3.75
   16   16    3      0.06     -4.23
   16   17    3     -0.63     -3.07
   15   17    3      1.30     -5.84
   14   17    3      2.04      2.38
   13   17    3     -1.16     -6.09
   12   17    3     -2.48      2.14
   11   17    3     -2.14     -1.76
   10   17    3     -2.77     -2.93
    9   17    3     -5.20      0.20
    8   17    3      5.28     -0.92
    7   17    3     -7.93      7.14
    6   17    3      1.82     -8.03
    5   17    3     -7.54      9.76
    4   17    3     -0.65     -8.16
    3   17    3     -7.39      5.85
    2   17    3     -1.35     -3.10
    1   17    3     -2.86      2.43
    0   17    3     -7.91     -7.97
   17   17    3      0.09     -3.26
   17   18    3     -1.02     -2.92
   16   18    3      0.19     -4.02
   15   18    3      0.45      0.83
   14   18    3      0.72     -5.72
   13   18    3      2.56      3.24
   12   18    3     -0.46      1.45
   11   18    3     -1.38     -3.26
   10   18    3     -4.87      1.12
    9   18    3      3.74     -5.01
    8   18    3     -6.09      3.87
    7   18    3      4.63     -5.97
    6   18    3     -2.95      7.70
    5   18    3     -2.82     -8.93
    4   18    3     -4.76      4.04
    3   18    3     -2.82     -3.44
    2   18    3     -0.77      4.52
    1   18    3     -6.54     -4.80
    0   18    3     -2.02      1.92
   18   18    3      0.10     -3.81
   18   19    3      0.15     -3.18
   17   19    3     -0.19     -4.08
   16   19    3     -0.36     -0.75
   15   19    3     -1.86     -4.55
   14   19    3      3.25      1.91
   13   19    3     -0.41      0.74
   12   19    3      2.68     -1.11
   11   19    3     -1.93      6.11
   10   19    3      2.39     -4.21
    9   19    3     -4.69      2.39
    8   19    3      3.28     -5.75
    7   19    3      1.32      5.68
    6   19    3     -0.65     -7.10
    5   19    3      0.75      2.75
    4   19    3     -3.71     -6.92
    3   19    3     -0.46      1.68
    2   19    3     -3.85     -4.86
    1   19    3      1.51      5.16
    0   19    3     -4.69     -4.66
   19   19    3      0.04     -2.60
   18   20    3     -0.06     -2.82
   17   20    3      1.88     -1.18
   16   20    3     -1.68     -3.36
   15   20    3      2.56     -0.08
   14   20    3     -3.41     -1.16
   13   20    3      3.17     -1.94
   12   20    3     -0.30      6.25
   11   20    3      2.30     -1.63
   10   20    3     -1.49      4.69
    9   20    3      0.52     -3.40
    8   20    3      1.48      4.23
    7   20    3     -1.03     -5.12
    6   20    3      4.99      4.72
    5   20    3     -0.46     -6.30
    4   20    3      0.42      0.15
    3   20    3     -1.50     -8.94
    2   20    3      3.62      2.47
    1   20    3     -1.43     -5.11
    0   20    3     -0.31      0.11
   16   21    3      3.88     -0.61
   15   21    3     -2.74     -0.58
   14   21    3      2.49     -2.11
   13   21    3     -1.47      2.85
   12   21    3      0.91     -2.10
   11   21    3      0.88      4.46
   10   21    3      0.17      0.36
    9   21    3      1.36      3.50
    8   21    3     -3.05     -3.89
    7   21    3      3.31      5.76
    6   21    3      0.74     -3.88
    5   21    3      1.65      3.74
    4   21    3      1.46     -7.48
    3   21    3      2.45      0.16
    2   21    3     -0.61     -8.31
    1   21    3      5.48     -1.28
    0   21    3     -1.02     -0.90
   17   21    3      0.11     -1.47
   15   22    3      3.00     -0.56
   14   22    3     -1.37      1.34
   13   22    3      0.35     -1.57
   12   22    3      0.73      2.13
   11   22    3      0.24      1.84
   10   22    3      1.47      2.45
    9   22    3     -1.61     -1.44
    8   22    3      1.10      4.73
    7   22    3     -0.99     -3.94
    6   22    3      0.44      5.29
    5   22    3      3.20     -3.44
    4   22    3      1.66      2.52
    3   22    3     -1.73     -6.60
    2   22    3      5.37     -2.17
    1   22    3     -0.56     -2.41
    0   22    3      5.30     -5.29
   14   23    3      0.88      0.30
   13   23    3      0.17      1.10
   12   23    3      0.47      1.57
   11   23    3      0.33      1.35
   10   23    3      0.56      1.60
    9   23    3      0.69      4.18
    8   23    3     -0.96     -3.11
    7   23    3     -0.82      3.88
    6   23    3      1.91     -1.88
    5   23    3      1.69      3.04
    4   23    3     -0.38     -2.68
    3   23    3      4.30      0.04
    2   23    3     -3.74     -2.27
    1   23    3      4.10     -3.53
    0   23    3      0.42      0.38
   12   24    3     -0.29      0.68
   11   24    3      1.36      2.26
   10   24    3     -0.27      3.06
    9   24    3     -0.01     -0.23
    8   24    3     -0.27      3.54
    7   24    3     -0.10     -0.31
    6   24    3      0.51      1.54
    5   24    3      0.45     -0.09
    4   24    3      4.73      1.36
    3   24    3     -3.17     -1.04
    2   24    3      2.53     -1.25
    1   24    3     -0.85      0.71
    0   24    3      1.59     -1.72
   10   25    3      0.41      1.11
    9   25    3      0.07      2.66
    8   25    3     -0.76      1.34
    7   25    3     -0.07      1.14
    6   25    3     -0.77      1.95
    5   25    3      2.88      1.56
    4   25    3     -1.31      0.47
    3   25    3      2.90      0.50
    2   25    3     -0.86      0.27
    1   25    3     -0.37     -0.92
    0   25    3      1.21      1.36
    7   26    3     -0.80      2.45
    6   26    3      0.74      1.61
    5   26    3     -1.23      1.52
    4   26    3      2.03      1.87
    3   26    3      0.01      0.59
    2   26    3     -0.65     -0.51
    1   26    3      1.43      0.92
    0   26    3     -0.01      0.09
    1   27    3     -0.68     -1.22
    0   27    3      1.37      1.33
    0    0    4     85.41      1.59
    0    1    4     -0.12      5.47
    1    1    4     53.31      1.22
    1    2    4     -8.15      9.28
    0    2    4     34.67      0.83
    2    2    4     13.95      0.42
    2    3    4      0.30      2.68
    1    3    4     13.04     -2.89
    0    3    4      0.12     17.57
    3    3    4     13.71     -0.07
    3    4    4      7.43     -5.80
    2    4    4     17.27     -1.75
    1    4    4     -9.27      8.33
    0    4    4      9.58      0.78
    4    4    4     13.00     -0.14
    4    5    4     -7.38    -10.27
    3    5    4     17.60      9.89
    2    5    4    -12.94     -3.03
    1    5    4     11.83     -6.06
    0    5    4      0.21      9.53
    5    5    4     -3.18     -0.17
    5    6    4    -21.58    -12.41
    4    6    4      0.87     19.86
    3    6    4    -17.80     -5.81
    2    6    4     16.25     -5.27
    1    6    4    -13.66      8.67
    0    6    4     -1.60      0.07
    6    6    4     -8.26     -0.05
    6    7    4    -14.15    -11.42
    5    7    4     -7.97     16.05
    4    7    4    -21.46     -8.60
    3    7    4      8.36      0.23
    2    7    4    -17.42     14.02
    1    7    4     -1.79    -11.84
    0    7    4     -0.45      7.05
    7    7    4      0.24      0.13
    7    8    4     -1.46     -4.51
    6    8    4     -2.61      6.42
    5    8    4    -11.84    -12.97
    4    8    4     -2.36     -0.35
    3    8    4    -17.94     15.36
    2    8    4      3.90    -14.46
    1    8    4     -2.78      5.44
    0    8    4    -13.14      0.10
    8    8    4      2.21      0.08
    8    9    4     -1.17      3.06
    7    9    4     -0.94      0.25
    6    9    4      0.25     -8.65
    5    9    4     -4.25     -1.03
    4    9    4    -13.28      4.79
    3    9    4      1.38    -12.01
    2    9    4     -2.01      9.61
    1    9    4     -5.53     -3.06
    0    9    4      0.06    -10.71
    9    9    4     -1.03      0.00
    9   10    4     -1.62      5.61
    8   10    4     -3.05     -5.01
    7   10    4      1.93     -0.43
    6   10    4     -3.83      3.93
    5   10    4     -5.38     -5.88
    4   10    4     -2.72     -7.28
    3   10    4     -8.39      5.95
    2   10    4     -1.70      1.01
    1   10    4      6.61     -8.05
    0   10    4     -0.38      0.30
   10   10    4      3.75     -0.01
   10   11    4      3.91      5.18
    9   11    4      1.47     -7.83
    8   11    4      1.66      1.80
    7   11    4     -3.03      6.59
    6   11    4     -1.07    -10.67
    5   11    4     -0.78      2.08
    4   11    4    -11.00     -4.13
    3   11    4     -5.42     -0.93
    2   11    4      0.04     -3.61
    1   11    4      1.09      7.43
    0   11    4     -0.07     -6.27
   11   11    4      8.28     -0.01
   11   12    4      6.27      3.54
   10   12    4      6.06     -4.62
    9   12    4      4.29      1.13
    8   12    4      0.71      6.03
    7   12    4     -0.08    -13.29
    6   12    4      2.86     11.14
    5   12    4     -5.93    -10.20
    4   12    4     -0.61     -4.20
    3   12    4     -6.96     -6.44
    2   12    4     -7.30      4.78
    1   12    4      0.32     -1.35
    0   12    4      2.50     -0.05
   12   12    4      6.02      0.05
   12   13    4      4.51      0.16
   11   13    4      5.52      0.39
   10   13    4      4.68      0.23
    9   13    4      3.66      7.35
    8   13    4      0.53    -13.70
    7   13    4      3.44     14.99
    6   13    4     -2.70    -10.83
    5   13    4      5.78     -1.67
    4   13    4     -3.46     -5.92
    3   13    4     -4.92     -4.09
    2   13    4     -3.08     -5.93
    1   13    4     -4.17      2.24
    0   13    4     -0.03      3.27
   13   13    4      3.06      0.05
   13   14    4      2.05     -3.31
   12   14    4      3.94      3.48
   11   14    4      2.63     -2.75
   10   14    4      3.63      8.48
    9   14    4      1.54    -11.12
    8   14    4      2.70     14.38
    7   14    4     -2.30    -10.89
    6   14    4      4.58      2.70
    5   14    4     -1.84      0.45
    4   14    4      3.11     -6.61
    3   14    4     -0.76     -7.85
    2   14    4     -4.52     -0.75
    1   14    4     -2.66     -1.38
    0   14    4     -2.94      0.01
   14   14    4      1.38     -0.01
   14   15    4      2.27     -4.54
   13   15    4      2.06      5.56
   12   15    4      1.61     -6.18
   11   15    4      3.32      6.51
   10   15    4      1.81     -7.44
    9   15    4      1.76     11.89
    8   15    4     -0.92    -10.44
    7   15    4      2.28      3.37
    6   15    4     -3.77      2.36
    5   15    4      4.42     -4.10
    4   15    4     -0.98     -1.47
    3   15    4      1.09      0.45
    2   15    4     -1.73     -6.51
    1   15    4     -2.20     -0.60
    0   15    4     -0.04      0.53
   15   15    4      2.39     -0.01
   15   16    4      4.16     -3.67
   14   16    4      1.30      7.18
   13   16    4      3.32     -6.49
   12   16    4      2.81      4.02
   11   16    4      2.38     -4.73
   10   16    4      2.12      7.66
    9   16    4      0.24     -6.61
    8   16    4      1.91      3.76
    7   16    4     -3.39     -1.76
    6   16    4      3.13     -3.86
    5   16    4     -4.38      1.88
    4   16    4      2.94      3.78
    3   16    4     -0.86     -4.59
    2   16    4      0.60      1.26
    1   16    4     -1.33      0.56
    0   16    4     -0.72      0.06
   16   16    4      2.31     -0.09
   16   17    4      1.65     -2.68
   15   17    4      0.67      6.50
   14   17    4      4.84     -3.96
   13   17    4      0.99      4.27
   12   17    4      3.26     -1.69
   11   17    4      3.26      2.55
   10   17    4      1.74     -3.10
    9   17    4      2.62      5.83
    8   17    4     -1.43     -2.40
    7   17    4      2.49     -2.42
    6   17    4     -4.35     -2.01
    5   17    4      2.36      1.98
    4   17    4     -2.75     -2.95
    3   17    4      1.23      4.09
    2   17    4     -1.61      3.00
    1   17    4      1.30     -2.13
    0   17    4     -0.10      5.49
   17   17    4     -1.92     -0.17
   17   18    4     -0.95     -1.85
   16   18    4     -1.90      3.18
   15   18    4      2.37     -2.76
   14   18    4     -0.89      4.68
   13   18    4      2.94      2.09
   12   18    4      1.32      1.11
   11   18    4      2.67     -1.64
   10   18    4      2.62      5.43
    9   18    4      1.04     -1.32
    8   18    4      2.01      3.72
    7   18    4     -1.47     -1.98
    6   18    4      2.22     -0.44
    5   18    4     -3.25     -5.02
    4   18    4      1.06      2.06
    3   18    4     -3.14      4.19
    2   18    4      1.38     -3.96
    1   18    4     -2.32      8.02
    0   18    4      2.16      0.12
   18   18    4     -2.39     -0.10
   18   19    4      1.13     -0.45
   17   19    4     -1.63      0.59
   16   19    4     -0.06     -2.62
   15   19    4     -2.04      2.36
   14   19    4      2.65      2.14
   13   19    4     -1.38      2.61
   12   19    4      1.71      0.91
   11   19    4     -0.50      4.81
   10   19    4      2.29     -3.93
    9   19    4      0.82      6.66
    8   19    4      0.57      1.61
    7   19    4      1.94      2.34
    6   19    4     -2.40     -2.07
    5   19    4      2.00     -1.21
    4   19    4     -3.91      2.35
    3   19    4      1.03     -5.46
    2   19    4     -4.63      9.77
    1   19    4      1.17     -3.90
    0   19    4      0.13      4.99
   19   19    4      1.06     -0.04
   17   20    4      0.97     -0.76
   16   20    4     -1.36      0.67
   15   20    4      3.21     -0.37
   14   20    4     -1.44      2.40
   13   20    4      2.35      1.78
   12   20    4     -2.24      6.43
   11   20    4      1.51     -4.56
   10   20    4     -1.20      5.73
    9   20    4      0.63     -0.04
    8   20    4      1.33      3.22
    7   20    4     -2.06      4.38
    6   20    4      2.60     -0.53
    5   20    4     -4.58      2.83
    4   20    4      1.04     -5.61
    3   20    4     -4.85      9.51
    2   20    4     -0.06     -4.11
    1   20    4     -2.96      4.24
    0   20    4     -0.86     -0.07
   16   21    4      2.88     -0.46
   15   21    4     -0.63      1.76
   14   21    4      3.93      0.04
   13   21    4      0.16      5.87
   12   21    4      1.50     -2.21
   11   21    4     -1.16      6.86
   10   21    4      0.22     -2.09
    9   21    4      1.14      0.58
    8   21    4     -1.76      5.25
    7   21    4      2.90      0.03
    6   21    4     -4.22      5.04
    5   21    4      0.81     -3.54
    4   21    4     -4.62      6.93
    3   21    4     -1.14     -3.77
    2   21    4     -3.18      6.75
    1   21    4     -2.55      1.31
    0   21    4     -0.06      1.79
   15   22    4      2.76     -0.12
   14   22    4      1.50      3.16
   13   22    4      1.84     -1.05
   12   22    4      0.99      6.77
   11   22    4      0.64     -0.86
   10   22    4      1.55      1.32
    9   22    4     -0.90      3.37
    8   22    4      3.14     -1.17
    7   22    4     -2.28      4.75
    6   22    4      1.67     -0.78
    5   22    4     -2.85      4.11
    4   22    4     -2.22     -4.44
    3   22    4     -2.13      5.40
    2   22    4     -2.67      0.84
    1   22    4     -0.92      4.95
    0   22    4     -3.73     -0.13
   13   23    4      1.53      3.45
   12   23    4      0.65     -0.44
   11   23    4      1.33      3.26
   10   23    4     -0.14      2.66
    9   23    4      2.91     -0.63
    8   23    4     -0.86      3.19
    7   23    4      2.30      1.09
    6   23    4     -0.32      2.70
    5   23    4     -1.38     -2.83
    4   23    4     -0.32      2.58
    3   23    4     -2.86     -3.68
    2   23    4     -0.92      3.77
    1   23    4     -2.30      0.84
    0   23    4      0.00      6.96
   12   24    4      0.54      2.39
   11   24    4     -0.31      1.31
   10   24    4      1.89      0.66
    9   24    4     -0.42      2.10
    8   24    4      1.91      1.53
    7   24    4      0.09      1.63
    6   24    4      0.02      0.01
    5   24    4      1.40      2.49
    4   24    4     -2.35     -4.74
    3   24    4     -0.89      0.79
    2   24    4     -1.53     -2.27
    1   24    4     -1.04      4.61
    0   24    4     -1.49      0.02
    9   25    4      1.43      0.90
    8   25    4     -0.08      0.32
    7   25    4      0.49      1.00
    6   25    4      0.95      2.21
    5   25    4     -0.79     -2.75
    4   25    4      0.44      1.20
    3   25    4     -1.40     -3.36
    2   25    4     -1.99      0.19
    1   25    4     -2.11     -0.95
    0   25    4     -0.03      3.43
    6   26    4     -0.01     -1.44
    5   26    4      1.26      1.70
    4   26    4     -0.27     -2.21
    3   26    4     -0.54     -0.89
    2   26    4     -2.01     -1.23
    1   26    4     -0.70      0.09
    0   26    4     -3.47      0.02
    0    1    5    -18.12     17.34
    1    1    5     -0.01     13.24
    1    2    5      0.70     27.56
    0    2    5     21.98     22.80
    2    2    5      0.05    -17.68
    2    3    5      9.34     10.44
    1    3    5     17.98      5.13
    0    3    5      7.58     -8.12
    3    3    5      0.04    -38.31
    3    4    5      9.76      9.84
    2    4    5    -11.46    -13.71
    1    4    5     13.96    -15.19
    0    4    5     21.88     21.78
    4    4    5      0.04    -11.52
    4    5    5     12.35     20.20
    3    5    5    -22.19      0.21
    2    5    5      3.68    -10.57
    1    5    5      0.27     15.39
    0    5    5      5.85     -5.41
    5    5    5      0.05     11.78
    5    6    5      8.82      4.59
    4    6    5     -8.51     13.75
    3    6    5     11.37     -0.38
    2    6    5     -8.93     11.88
    1    6    5    -20.39     -6.67
    0    6    5      8.54      8.21
    6    6    5      0.15      5.09
    6    7    5     -1.49    -17.85
    5    7    5      2.45      6.35
    4    7    5     15.30     -3.36
    3    7    5      5.95     11.34
    2    7    5    -11.88    -11.21
    1    7    5      3.00     -0.45
    0    7    5    -14.36     14.69
    7    7    5      0.04      7.02
    7    8    5     -7.75    -14.15
    6    8    5      5.45      5.03
    5    8    5      1.90    -10.93
    4    8    5      7.39      7.85
    3    8    5      7.29     -7.23
    2    8    5     17.26     -0.52
    1    8    5     -9.42     -7.03
    0    8    5     -8.35     -8.74
    8    8    5     -0.16     23.49
    8    9    5     -5.96     -6.73
    7    9    5      9.23     14.94
    6    9    5     -7.34     -6.45
    5    9    5     -3.75      4.11
    4    9    5      5.49     -2.58
    3    9    5     14.12     11.03
    2    9    5      5.43     -7.26
    1    9    5      5.85     -6.52
    0    9    5      9.68     -9.58
    9    9    5     -0.12     23.00
    9   10    5     -2.77    -14.07
    8   10    5     11.31     14.12
    7   10    5     -2.94     -0.54
    6   10    5     -3.02      3.65
    5   10    5      2.38     -3.11
    4   10    5     -5.43     11.65
    3   10    5      0.08     -0.64
    2   10    5     12.65     14.03
    1   10    5     11.55     -7.68
    0   10    5      0.54      0.94
   10   10    5     -0.02     12.45
   10   11    5     -1.46    -16.41
    9   11    5      5.54      7.28
    8   11    5      0.11     -3.32
    7   11    5      4.08      4.13
    6   11    5      9.00     -2.84
    5   11    5     -9.23      4.44
    4   11    5     -5.15     -6.15
    3   11    5      4.30     16.78
    2   11    5     -1.79      1.54
    1   11    5      7.12     10.96
    0   11    5      6.10     -6.02
   11   11    5      0.04     11.67
   11   12    5      0.65     -9.27
   10   12    5     -1.11      8.11
    9   12    5     -2.45     -6.34
    8   12    5      2.34      3.90
    7   12    5      7.60     -0.21
    6   12    5     -1.87      5.50
    5   12    5      2.44     -8.50
    4   12    5      2.29      5.37
    3   12    5    -13.06     -2.52
    2   12    5      6.49      8.99
    1   12    5      0.44      4.28
    0   12    5      6.45      6.75
   12   12    5      0.11     11.63
   12   13    5      2.35     -6.15
   11   13    5     -2.84      9.47
   10   13    5     -1.47     -5.53
    9   13    5     -1.28      3.96
    8   13    5     -2.49     -0.81
    7   13    5     -1.09      8.64
    6   13    5      4.34     -1.59
    5   13    5      4.92      4.30
    4   13    5     -9.09     -4.03
    3   13    5      6.20     -2.28
    2   13    5     -5.67      4.39
    1   13    5      3.23      2.46
    0   13    5     -1.39      1.52
   13   13    5      0.07      6.60
   13   14    5      1.88     -7.99
   12   14    5     -2.31      6.51
   11   14    5      1.32     -5.20
   10   14    5      0.12      4.42
    9   14    5     -6.33     -3.46
    8   14    5     -2.13      4.87
    7   14    5     -3.11      0.15
    6   14    5      0.81      6.92
    5   14    5     -2.97      3.15
    4   14    5      7.12     -4.33
    3   14    5     -5.61      3.91
    2   14    5      0.12     -5.03
    1   14    5      0.61      3.09
    0   14    5      2.11      1.95
   14   14    5      0.02      3.53
   14   15    5      0.19     -7.51
   13   15    5     -0.67      4.48
   12   15    5      1.31     -7.03
   11   15    5      1.75      4.92
   10   15    5     -4.25     -3.58
    9   15    5      1.29      0.77
    8   15    5     -6.16     -3.62
    7   15    5     -4.41      1.81
    6   15    5     -3.59      5.11
    5   15    5      2.59     -3.79
    4   15    5     -3.03      7.76
    3   15    5      0.38     -7.34
    2   15    5      0.51      3.23
    1   15    5     -0.42      0.34
    0   15    5     -0.17      0.10
   15   15    5      0.02      4.27
   15   16    5     -1.64     -2.42
   14   16    5      0.86      5.64
   13   16    5     -0.53     -8.11
   12   16    5      1.96      5.19
   11   16    5     -3.07     -3.35
   10   16    5      3.92      1.42
    9   16    5     -3.47     -2.44
    8   16    5     -3.10     -3.76
    7   16    5     -2.89      1.38
    6   16    5     -3.97     -7.97
    5   16    5     -4.27      8.53
    4   16    5      0.75     -8.61
    3   16    5     -0.02      3.26
    2   16    5     -2.67     -1.87
    1   16    5     -0.83     -0.03
    0   16    5      1.82      1.56
   16   16    5      0.00      5.74
   16   17    5     -2.03      0.56
   15   17    5      1.65      7.29
   14   17    5     -3.02     -5.98
   13   17    5      1.31      5.26
   12   17    5     -2.60     -4.30
   11   17    5      3.20      2.15
   10   17    5     -2.81      1.99
    9   17    5     -0.45     -3.34
    8   17    5      0.91      1.34
    7   17    5     -4.75    -10.55
    6   17    5     -3.63      6.65
    5   17    5     -0.66    -10.76
    4   17    5     -2.89      2.64
    3   17    5     -1.60     -4.60
    2   17    5     -0.90     -2.32
    1   17    5     -1.34     -0.43
    0   17    5     -2.08      2.13
   17   17    5     -0.01      3.65
   17   18    5     -0.93     -1.78
   16   18    5      2.59      4.88
   15   18    5     -3.32     -3.99
   14   18    5      0.54      5.00
   13   18    5     -2.10     -3.88
   12   18    5      1.47     -0.28
   11   18    5     -2.82      2.77
   10   18    5     -0.43     -1.71
    9   18    5      0.47      4.57
    8   18    5     -3.51     -7.46
    7   18    5      0.00      5.22
    6   18    5     -0.81    -10.34
    5   18    5     -3.98      3.73
    4   18    5      0.21     -5.51
    3   18    5     -0.13     -2.73
    2   18    5     -1.40     -3.99
    1   18    5     -3.05      0.34
    0   18    5     -2.86     -2.80
   18   18    5     -0.05      0.19
   18   19    5     -0.16     -2.79
   17   19    5      2.42      0.47
   16   19    5     -0.92     -3.88
   15   19    5      1.07      2.92
   14   19    5     -0.69     -2.77
   13   19    5     -0.32     -2.59
   12   19    5     -0.93      0.90
   11   19    5      0.43     -3.55
   10   19    5     -1.19      4.27
    9   19    5     -3.48     -2.50
    8   19    5      0.04      4.06
    7   19    5     -1.31     -7.83
    6   19    5     -2.22      4.38
    5   19    5      0.75     -4.80
    4   19    5      0.20      0.74
    3   19    5     -0.17     -4.08
    2   19    5     -0.06      0.35
    1   19    5     -0.52     -5.04
    0   19    5     -2.45      2.78
   17   20    5      0.41     -2.25
   16   20    5      0.90      0.26
   15   20    5      1.73     -2.53
   14   20    5     -1.15     -2.37
   13   20    5      0.92      0.04
   12   20    5      1.17     -5.29
   11   20    5     -0.20      0.35
   10   20    5     -0.93     -1.38
    9   20    5     -0.71      2.23
    8   20    5     -2.11     -3.88
    7   20    5     -1.25      3.20
    6   20    5      0.14     -6.10
    5   20    5      0.20      2.75
    4   20    5     -0.78     -3.01
    3   20    5      1.53      3.14
    2   20    5      2.28     -4.14
    1   20    5     -0.63      2.15
    0   20    5     -0.24      0.34
   16   21    5      1.91     -1.80
   15   21    5     -1.26     -0.80
   14   21    5      2.31      0.08
   13   21    5      0.17     -3.67
   12   21    5     -0.05     -1.17
   11   21    5      1.53     -2.82
   10   21    5      0.44     -0.79
    9   21    5     -0.84     -1.24
    8   21    5     -0.42      3.08
    7   21    5      0.28     -6.18
    6   21    5      0.38      2.16
    5   21    5     -0.67     -4.58
    4   21    5      1.15      3.19
    3   21    5      1.25     -2.36
    2   21    5     -0.39      2.91
    1   21    5      4.41      0.59
    0   21    5      0.90     -0.74
   15   22    5      2.09     -0.11
   14   22    5     -0.52     -1.41
   13   22    5      0.04      0.54
   12   22    5      0.85     -2.23
   11   22    5     -0.02     -1.81
   10   22    5     -0.05     -1.72
    9   22    5      0.28      2.12
    8   22    5      0.84     -3.52
    7   22    5      0.42      3.41
    6   22    5      1.31     -5.02
    5   22    5      1.17      0.94
    4   22    5      0.56     -1.95
    3   22    5     -0.87      2.28
    2   22    5      3.54      1.34
    1   22    5      1.35     -1.86
    0   22    5      3.89      3.93
   13   23    5      0.19     -0.94
   12   23    5     -0.51      0.00
   11   23    5     -0.81     -1.49
   10   23    5     -0.29      0.31
    9   23    5      0.17     -2.01
    8   23    5     -0.85      3.93
    7   23    5      2.19     -2.57
    6   23    5      1.05      1.01
    5   23    5      1.35     -1.10
    4   23    5      0.53      0.11
    3   23    5      1.88      1.76
    2   23    5      0.09     -0.83
    1   23    5      2.56      3.99
    0   23    5      3.18     -3.17
   11   24    5     -0.26      0.16
   10   24    5     -0.70     -1.14
    9   24    5     -1.86      2.02
    8   24    5      1.02     -0.76
    7   24    5     -0.42      1.65
    6   24    5      1.32      0.63
    5   24    5      1.82     -0.88
    4   24    5      1.19      1.22
    3   24    5      1.00     -0.52
    2   24    5      1.71      4.03
    1   24    5      1.09     -1.32
    0   24    5      3.10      3.12
    9   25    5     -0.04     -0.16
    8   25    5     -1.44      0.89
    7   25    5      0.10      1.44
    6   25    5      1.10     -0.97
    5   25    5      0.55      1.07
    4   25    5      1.92     -0.80
    3   25    5      1.91      1.50
    2   25    5      0.98     -0.31
    1   25    5      2.77      4.04
    0   25    5     -0.36      0.40
    6   26    5     -0.16      1.35
    5   26    5      0.98     -0.88
    4   26    5      1.19     -0.21
    3   26    5      1.13     -0.58
    2   26    5      2.74      2.12
    1   26    5     -0.03      0.34
    0   26    5      3.46      3.50
    0    1    6     -7.92     -0.44
    1    1    6      1.41      0.01
    1    2    6      4.22     13.72
    0    2    6     -0.10    -46.93
    2    2    6     -2.27      0.16
    2    3    6      3.00     32.99
    1    3    6     -0.98    -34.47
    0    3    6      9.17     -0.70
    3    3    6     -4.80     -0.06
    3    4    6     -1.60     23.67
    2    4    6     -1.87    -11.48
    1    4    6      5.88     42.43
    0    4    6     -0.18      2.97
    4    4    6      3.07     -0.21
    4    5    6      1.24     -0.46
    3    5    6      3.88    -15.90
    2    5    6     -0.89     31.03
    1    5    6      0.37     31.81
    0    5    6      5.43     -0.23
    5    5    6      5.98     -0.08
    5    6    6      4.62     -7.87
    4    6    6      7.76     -9.66
    3    6    6     -0.29     -8.64
    2    6    6      4.35      0.46
    1    6    6     -1.17      0.82
    0    6    6     -0.11     53.65
    6    6    6      0.18      0.03
    6    7    6     10.30     -5.43
    5    7    6      4.85     15.33
    4    7    6      2.62     -9.67
    3    7    6     10.83    -17.13
    2    7    6     -1.80    -19.10
    1    7    6      3.06     12.86
    0    7    6     -3.83      0.00
    7    7    6     -4.01      0.11
    7    8    6     15.56     -8.36
    6    8    6      2.01     18.67
    5    8    6      4.01      2.63
    4    8    6     10.75      3.78
    3    8    6      3.56      1.97
    2    8    6      9.11    -15.91
    1    8    6     -1.18    -12.94
    0    8    6      0.09     -1.51
    8    8    6     -6.00      0.07
    8    9    6     13.76     -7.62
    7    9    6      0.75      1.64
    6    9    6      6.06     -7.97
    5    9    6      6.70      5.71
    4    9    6      5.56     24.05
    3    9    6      8.20     -5.98
    2    9    6      6.33      4.19
    1    9    6      3.70     -7.12
    0    9    6      0.52      0.03
    9    9    6     -6.89     -0.02
    9   10    6      7.36      0.61
    8   10    6     -1.50     -3.55
    7   10    6      6.69    -12.51
    6   10    6      5.52    -12.80
    5   10    6      6.79      8.09
    4   10    6      2.00     -7.56
    3   10    6      9.87     20.14
    2   10    6      3.49      4.22
    1   10    6      3.34     -0.78
    0   10    6      0.15      2.28
   10   10    6     -5.99     -0.01
   10   11    6      1.28      4.09
    9   11    6     -4.07     -1.35
    8   11    6      5.12      2.51
    7   11    6      3.58    -11.71
    6   11    6      8.22     -5.44
    5   11    6      1.11    -21.23
    4   11    6     10.15      7.71
    3   11    6      0.62      2.26
    2   11    6      5.70      1.20
    1   11    6      2.49      7.52
    0   11    6     -0.63      0.08
   11   11    6     -4.45     -0.04
   11   12    6     -2.17      1.97
   10   12    6     -5.63     -6.46
    9   12    6      3.27      8.56
    8   12    6     -0.81     -2.51
    7   12    6      6.65      4.04
    6   12    6      2.44    -15.35
    5   12    6     10.15     -2.46
    4   12    6      1.48     -9.75
    3   12    6      5.84     -3.42
    2   12    6      4.50      5.50
    1   12    6      0.65     -1.79
    0   12    6     -0.14     -2.69
   12   12    6     -3.51     -0.09
   12   13    6     -3.85      2.05
   11   13    6     -5.55     -8.85
   10   13    6      1.74      3.15
    9   13    6     -4.99     -7.49
    8   13    6      3.15      7.87
    7   13    6      0.96     -3.51
    6   13    6      7.11      3.80
    5   13    6      3.60    -10.21
    4   13    6      5.36     -3.66
    3   13    6      6.09     -1.36
    2   13    6      2.52     -0.51
    1   13    6      4.63     -6.91
    0   13    6      2.40      0.19
   13   13    6     -3.06     -0.07
   13   14    6     -3.87      3.26
   12   14    6     -4.23     -3.87
   11   14    6      0.02      4.26
   10   14    6     -6.16    -11.68
    9   14    6      0.74      2.05
    8   14    6     -1.43     -5.90
    7   14    6      1.17      6.46
    6   14    6      2.25     -4.84
    5   14    6      3.43      3.10
    4   14    6      5.37     -6.03
    3   14    6      2.02      1.23
    2   14    6      6.48     -5.43
    1   14    6      4.97      5.12
    0   14    6     -0.13     -9.54
   14   14    6     -2.32     -0.05
   14   15    6     -1.26      2.71
   13   15    6     -3.01     -0.79
   12   15    6     -1.78      8.20
   11   15    6     -4.52     -5.80
   10   15    6     -0.13      4.33
    9   15    6     -1.52    -10.01
    8   15    6     -2.91      2.52
    7   15    6      0.40     -5.08
    6   15    6      0.14      5.95
    5   15    6      1.96     -6.71
    4   15    6      0.57      3.38
    3   15    6      3.25     -6.44
    2   15    6      2.35      5.98
    1   15    6      2.45     -3.37
    0   15    6      6.61      0.03
   15   15    6     -1.69     -0.02
   15   16    6      0.79      1.86
   14   16    6     -2.02     -1.82
   13   16    6     -1.88      6.56
   12   16    6     -3.13     -1.41
   11   16    6     -2.26     10.19
   10   16    6     -0.33     -6.08
    9   16    6     -3.86      4.38
    8   16    6      1.04     -6.56
    7   16    6     -1.76      3.94
    6   16    6     -0.53     -5.37
    5   16    6      0.50      4.71
    4   16    6      0.13     -6.67
    3   16    6     -1.45      2.32
    2   16    6      0.39     -2.38
    1   16    6      1.91      2.41
    0   16    6      0.04      4.81
   16   16    6     -2.34      0.01
   16   17    6      0.34      1.68
   15   17    6     -1.22     -2.66
   14   17    6     -1.34      3.25
   13   17    6     -1.57     -2.26
   12   17    6     -4.43      8.71
   11   17    6     -0.86     -2.60
   10   17    6     -5.00      9.62
    9   17    6      1.84     -4.96
    8   17    6     -2.54      4.08
    7   17    6     -1.73     -3.47
    6   17    6      0.76      4.11
    5   17    6     -0.24     -3.40
    4   17    6     -1.40      0.96
    3   17    6      0.59     -1.97
    2   17    6     -3.45     -1.51
    1   17    6     -0.25      5.53
    0   17    6     -1.41     -0.06
   17   17    6     -2.91     -0.01
   17   18    6      0.68      1.59
   16   18    6     -0.26     -1.60
   15   18    6     -2.15      2.36
   14   18    6      0.67     -2.76
   13   18    6     -3.95      3.90
   12   18    6     -1.13     -3.37
   11   18    6     -5.74      9.76
   10   18    6      0.18     -3.32
    9   18    6     -3.30      6.29
    8   18    6     -1.99     -2.79
    7   18    6     -0.59      2.88
    6   18    6     -1.94     -0.10
    5   18    6     -1.89      1.01
    4   18    6      3.02      2.20
    3   18    6     -3.70     -3.20
    2   18    6      1.17      3.82
    1   18    6     -3.71     -2.82
    0   18    6      0.04      7.50
   18   18    6     -1.14     -0.05
   18   19    6      1.43      0.99
   17   19    6      1.46     -0.41
   16   19    6     -1.96      2.79
   15   19    6      2.14     -1.13
   14   19    6     -2.36      1.71
   13   19    6      0.08     -3.35
   12   19    6     -3.48      6.22
   11   19    6     -1.68     -3.14
   10   19    6     -3.74      7.35
    9   19    6     -1.33     -2.33
    8   19    6     -1.24      1.78
    7   19    6     -3.02     -0.15
    6   19    6     -4.52      0.08
    5   19    6      1.66      4.82
    4   19    6     -4.02     -3.12
    3   19    6      2.95      6.00
    2   19    6     -2.53     -3.96
    1   19    6     -0.10      6.01
    0   19    6     -3.18      0.05
   17   20    6     -0.47      2.25
   16   20    6      2.90     -0.09
   15   20    6     -0.68      1.65
   14   20    6      0.69     -0.92
   13   20    6     -0.20      3.03
   12   20    6     -0.93     -2.73
   11   20    6     -2.70      6.50
   10   20    6     -1.13     -0.47
    9   20    6     -2.01      2.57
    8   20    6     -1.21     -0.62
    7   20    6     -3.85     -1.65
    6   20    6     -0.30      3.41
    5   20    6     -5.86     -3.84
    4   20    6      1.54      7.18
    3   20    6     -1.44     -3.79
    2   20    6     -0.08      6.02
    1   20    6     -2.69     -1.78
    0   20    6     -0.36      6.02
   16   21    6      0.50      1.41
   15   21    6      0.91      0.70
   14   21    6      1.56      1.24
   13   21    6      0.81     -1.17
   12   21    6     -0.15      3.88
   11   21    6      0.20      0.43
   10   21    6     -2.89      4.06
    9   21    6     -0.64      1.75
    8   21    6     -2.10     -1.23
    7   21    6      0.00      1.74
    6   21    6     -4.65     -4.57
    5   21    6     -0.20      5.38
    4   21    6     -1.92     -4.55
    3   21    6     -0.38      5.33
    2   21    6     -1.35     -1.55
    1   21    6     -0.15      5.72
    0   21    6     -4.19     -0.01
   14   22    6      1.44      0.32
   13   22    6      1.41      1.79
   12   22    6      2.48     -0.09
   11   22    6     -0.55      2.53
   10   22    6     -0.12      3.16
    9   22    6     -1.72      1.05
    8   22    6     -0.61      2.87
    7   22    6     -2.28     -3.69
    6   22    6     -0.17      3.17
    5   22    6     -2.11     -5.05
    4   22    6     -0.84      3.42
    3   22    6     -0.74     -1.76
    2   22    6      1.00      4.01
    1   22    6     -2.98     -0.17
    0   22    6     -0.27      5.57
   12   23    6      1.82      0.52
   11   23    6      1.71      1.70
   10   23    6      0.71      0.58
    9   23    6     -0.79      3.80
    8   23    6     -1.06     -1.03
    7   23    6      0.43      2.57
    6   23    6     -1.83     -4.03
    5   23    6     -0.66      1.93
    4   23    6     -0.96     -2.82
    3   23    6      0.77      1.81
    2   23    6     -1.49     -0.99
    1   23    6      1.59      3.85
    0   23    6     -1.27      0.17
   13   23    6      2.48      0.09
   11   24    6      2.49     -1.10
   10   24    6      0.52      1.95
    9   24    6      0.76     -0.09
    8   24    6      0.94      2.48
    7   24    6     -1.19     -1.54
    6   24    6      0.85      1.59
    5   24    6     -0.96     -2.91
    4   24    6     -0.20      1.10
    3   24    6     -0.81     -2.44
    2   24    6      1.45      1.44
    1   24    6      0.68     -1.56
    0   24    6      0.12      1.42
    8   25    6     -0.01     -0.26
    7   25    6      1.88      1.61
    6   25    6     -0.28     -1.65
    5   25    6     -0.01      1.52
    4   25    6     -0.15     -2.32
    3   25    6      0.11      0.81
    2   25    6      0.88     -2.67
    1   25    6      0.07     -0.86
    0   25    6      2.61      0.14
    4   26    6     -0.34      0.79
    3   26    6      0.58     -1.52
    2   26    6     -0.53     -0.37
    1   26    6      1.83     -1.02
    0   26    6      0.02     -1.83
    0    1    7    -21.21    -21.45
    1    1    7      0.42     -7.87
    1    2    7     -4.39    -21.54
    0    2    7     14.14    -13.49
    2    2    7      0.34     28.27
    2    3    7      7.23     15.11
    1    3    7     12.15      9.11
    0    3    7      9.44      8.79
    3    3    7      0.07     46.08
    3    4    7      8.37     15.14
    2    4    7    -14.17     22.18
    1    4    7     19.09     36.25
    0    4    7      9.37     -9.09
    4    4    7      0.03     15.07
    4    5    7     12.49     -3.89
    3    5    7    -30.99      3.11
    2    5    7      6.29     31.56
    1    5    7     -8.58     -5.06
    0    5    7     23.82     23.59
    5    5    7      0.12     -4.88
    5    6    7     14.97      5.95
    4    6    7    -18.10     -3.25
    3    6    7     11.13      9.16
    2    6    7    -19.52     -5.18
    1    6    7     -9.15     20.12
    0    6    7     -1.89      1.66
    6    6    7      0.18      3.02
    6    7    7      6.33     19.38
    5    7    7     -6.05      9.97
    4    7    7     20.81      3.89
    3    7    7      0.20      3.83
    2    7    7     -9.50     12.80
    1    7    7     -4.26      7.35
    0    7    7     -3.08     -3.10
    7    7    7      0.09     -2.82
    7    8    7     -1.92      8.79
    6    8    7     -5.96      6.25
    5    8    7      7.42      4.32
    4    8    7      8.24     15.50
    3    8    7      5.15      5.72
    2    8    7     14.08     12.14
    1    8    7     -0.97     12.38
    0    8    7    -12.15     11.77
    8    8    7     -0.07    -19.07
    8    9    7     -2.60     -0.46
    7    9    7     -0.54     -9.59
    6    9    7     -5.88     -3.09
    5    9    7     -3.37     12.26
    4    9    7     -0.58     -0.56
    3    9    7     15.97      7.46
    2    9    7      8.49     10.57
    1    9    7     -1.24     12.95
    0    9    7     18.06     17.84
    9    9    7     -0.07    -15.85
    9   10    7     -2.69      4.95
    8   10    7      6.41    -11.44
    7   10    7     -3.27     -5.03
    6   10    7     -2.62      1.15
    5   10    7     -6.44     -3.19
    4   10    7     -0.66      1.38
    3   10    7      1.68      2.60
    2   10    7      2.56     -0.70
    1   10    7     17.65     10.95
    0   10    7     -8.73      8.63
   10   10    7      0.01     -6.69
   10   11    7     -3.82      5.52
    9   11    7      4.86     -7.51
    8   11    7     -2.34      1.64
    7   11    7      5.79     -5.30
    6   11    7      2.20     -2.44
    5   11    7     -3.43     -0.72
    4   11    7     -3.66      3.31
    3   11    7     -2.11     -5.16
    2   11    7      5.90     -1.15
    1   11    7     -5.39     -0.48
    0   11    7      5.40      5.16
   11   11    7      0.04    -11.36
   11   12    7     -2.53      0.97
   10   12    7      1.21    -11.66
    9   12    7     -6.41      4.19
    8   12    7      3.63     -8.30
    7   12    7      3.90     -1.76
    6   12    7      3.91     -4.10
    5   12    7      3.36      2.75
    4   12    7      1.24      0.26
    3   12    7     -2.70      0.65
    2   12    7     -1.56     -0.04
    1   12    7     -0.66     -6.94
    0   12    7     -0.93      0.77
   12   12    7      0.06    -15.91
   12   13    7     -0.28      5.22
   11   13    7      0.94    -14.61
   10   13    7     -4.75      2.18
    9   13    7     -0.45    -10.68
    8   13    7     -3.68     -0.28
    7   13    7      2.08     -7.72
    6   13    7      3.96     -3.72
    5   13    7      7.48     -0.18
    4   13    7     -1.90      0.38
    3   13    7      4.83      8.02
    2   13    7     -2.81     -3.29
    1   13    7      1.09      2.45
    0   13    7     -5.43     -5.58
   13   13    7      0.09    -10.20
   13   14    7     -0.17     11.50
   12   14    7      0.25     -9.66
   11   14    7     -0.37      4.49
   10   14    7      1.19    -10.93
    9   14    7     -4.20      1.75
    8   14    7     -0.92     -6.45
    7   14    7     -3.78     -4.98
    6   14    7      5.10     -3.52
    5   14    7     -2.47     -6.71
    4   14    7      8.37      7.45
    3   14    7     -2.86     -1.44
    2   14    7      2.16      9.00
    1   14    7     -1.67     -0.61
    0   14    7     -0.45      0.17
   14   14    7      0.09     -4.71
   14   15    7     -0.75     10.36
   13   15    7     -1.95     -4.86
   12   15    7     -0.80      9.08
   11   15    7      0.93     -7.40
   10   15    7     -0.81      2.73
    9   15    7      1.68     -4.46
    8   15    7     -5.11     -0.55
    7   15    7      1.91     -0.64
    6   15    7     -6.00     -7.49
    5   15    7      6.32      3.03
    4   15    7     -3.25     -6.54
    3   15    7      1.09      8.55
    2   15    7     -0.38      1.84
    1   15    7     -1.89      5.20
    0   15    7      0.61      0.78
   15   15    7      0.06     -4.26
   15   16    7      0.09      6.91
   14   16    7     -1.91     -4.09
   13   16    7     -2.26      9.52
   12   16    7     -2.45     -2.97
   11   16    7     -2.36      3.82
   10   16    7      1.92     -3.58
    9   16    7     -3.03      0.59
    8   16    7      2.38      2.27
    7   16    7     -5.57     -1.93
    6   16    7      3.33      4.25
    5   16    7     -3.35     -7.03
    4   16    7      0.96      5.31
    3   16    7      0.52     -2.39
    2   16    7     -4.46      6.66
    1   16    7     -1.00      1.29
    0   16    7     -5.08      5.19
   16   16    7      0.09     -3.64
   16   17    7      1.05      4.85
   15   17    7      0.03     -3.19
   14   17    7     -0.50      7.33
   13   17    7     -2.30     -1.38
   12   17    7     -4.05      5.20
   11   17    7     -0.73     -0.33
   10   17    7     -4.25     -0.22
    9   17    7      1.73      0.57
    8   17    7     -3.72     -0.55
    7   17    7      0.95      6.25
    6   17    7     -2.00     -2.73
    5   17    7      0.71      6.18
    4   17    7      1.03     -4.41
    3   17    7     -2.97      5.62
    2   17    7     -0.46     -1.37
    1   17    7     -4.62      7.38
    0   17    7     -2.07     -2.03
   17   17    7      0.13     -1.96
   17   18    7      0.77      2.75
   16   18    7      0.30     -1.76
   15   18    7      1.18      5.11
   14   18    7      1.00     -1.48
   13   18    7     -2.04      5.37
   12   18    7     -1.11      2.51
   11   18    7     -4.82      1.45
   10   18    7      0.43      1.44
    9   18    7     -3.13     -2.36
    8   18    7     -0.65      4.40
    7   18    7     -0.60     -1.91
    6   18    7     -1.16      7.29
    5   18    7      0.82     -2.93
    4   18    7     -0.94      6.24
    3   18    7      0.19     -3.25
    2   18    7     -1.52      7.51
    1   18    7     -2.33     -2.23
    0   18    7     -5.66      5.83
   18   18    7      0.07     -1.26
   17   19    7     -0.88     -1.47
   16   19    7      0.55      2.99
   15   19    7      1.93     -1.53
   14   19    7     -0.12      3.80
   13   19    7      0.45      1.55
   12   19    7     -2.98      2.00
   11   19    7     -0.48      5.02
   10   19    7     -2.60     -1.23
    9   19    7     -0.15      4.34
    8   19    7      0.17     -3.62
    7   19    7     -2.18      5.93
    6   19    7      1.01     -2.52
    5   19    7     -0.65      6.59
    4   19    7      0.10     -2.90
    3   19    7      0.31      7.01
    2   19    7     -1.18     -3.39
    1   19    7     -1.81      6.98
    0   19    7     -1.30     -1.31
   16   20    7      0.41     -1.30
   15   20    7     -0.03      1.87
   14   20    7      1.02     -0.28
   13   20    7     -0.79     -0.36
   12   20    7     -0.94      4.53
   11   20    7     -2.82     -0.86
   10   20    7     -0.08      6.49
    9   20    7      0.15     -3.02
    8   20    7     -0.74      5.24
    7   20    7      0.95     -2.56
    6   20    7     -1.05      5.73
    5   20    7      0.51     -2.31
    4   20    7      0.43      6.85
    3   20    7      0.48     -3.79
    2   20    7      0.06      6.06
    1   20    7      0.66     -1.79
    0   20    7     -3.58      3.61
   15   21    7      0.40     -0.05
   14   21    7      0.79     -1.32
   13   21    7     -0.28      1.67
   12   21    7     -2.27     -3.19
   11   21    7     -0.68      5.07
   10   21    7     -1.75     -2.48
    9   21    7      0.32      5.07
    8   21    7      0.95     -2.33
    7   21    7     -0.75      4.66
    6   21    7      0.13     -1.62
    5   21    7     -0.32      6.79
    4   21    7      1.86     -2.83
    3   21    7     -0.48      5.50
    2   21    7      2.39     -2.27
    1   21    7     -1.52      2.54
    0   21    7      1.51      1.07
   14   22    7      0.03      0.99
   13   22    7      0.08     -2.89
   12   22    7      0.40      1.84
   11   22    7     -2.80     -3.24
   10   22    7     -0.27      3.33
    9   22    7      0.10     -3.25
    8   22    7      0.27      2.89
    7   22    7      0.55     -1.95
    6   22    7     -0.60      5.48
    5   22    7      1.66     -1.74
    4   22    7     -1.34      5.55
    3   22    7      3.38     -0.84
    2   22    7     -1.90      1.26
    1   22    7      2.66      0.93
    0   22    7     -1.17      0.95
   12   23    7     -0.98     -2.27
   11   23    7      0.03      1.56
   10   23    7     -1.32     -3.63
    9   23    7     -0.20      1.59
    8   23    7      0.96     -3.75
    7   23    7      0.49      2.34
    6   23    7      1.57     -1.76
    5   23    7     -0.94      4.04
    4   23    7      4.01      0.73
    3   23    7     -1.86      1.21
    2   23    7      2.52      2.24
    1   23    7     -1.61     -0.21
    0   23    7      1.89      1.47
   10   24    7     -1.03      1.47
    9   24    7     -0.52     -3.70
    8   24    7      0.33      0.25
    7   24    7      1.14     -2.81
    6   24    7      0.14      0.85
    5   24    7      3.76      0.92
    4   24    7     -0.75      0.57
    3   24    7      3.38      3.88
    2   24    7     -0.59     -0.29
    1   24    7      1.06      2.25
    0   24    7     -0.39      0.26
    7   25    7      0.30     -1.02
    6   25    7      1.67     -0.32
    5   25    7     -0.41     -1.07
    4   25    7      3.53      3.82
    3   25    7      0.35     -0.49
    2   25    7      1.53      3.77
    1   25    7      0.15      0.25
    0   25    7      1.41      1.48
    3   26    7      1.93      3.62
    2   26    7     -0.13     -0.23
    1   26    7      1.47      2.30
    0   26    7     -0.23      0.30
    0    0    8    -69.48     -0.15
    0    1    8     -0.13      2.92
    1    1    8    -42.52     -0.08
    1    2    8     27.26      5.02
    0    2    8    -23.52      0.13
    2    2    8     -8.74     -0.02
    2    3    8     18.74      2.46
    1    3    8     -4.05     -2.74
    0    3    8     -0.06      7.51
    3    3    8     -9.27     -0.08
    3    4    8    -11.71     -0.28
    2    4    8    -13.24     -2.46
    1    4    8      8.95      2.52
    0    4    8     -4.80      0.42
    4    4    8     -0.37     -0.11
    4    5    8     -6.26     -1.81
    3    5    8    -11.02      1.72
    2    5    8      3.91      0.00
    1    5    8    -15.37     -1.98
    0    5    8      0.14     -0.52
    5    5    8     32.15     -0.11
    5    6    8     14.17     -2.78
    4    6    8     14.76      4.01
    3    6    8     14.97      0.53
    2    6    8    -14.71     -1.93
    1    6    8      7.11      0.85
    0    6    8     -4.48      0.19
    6    6    8     38.14     -0.08
    6    7    8     11.22     -2.96
    5    7    8     22.93      2.37
    4    7    8     26.99     -0.35
    3    7    8     -0.87     -3.13
    2    7    8     12.24      4.96
    1    7    8      8.36     -3.57
    0    7    8      0.10      0.67
    7    7    8     19.35     -0.03
    7    8    8      5.82     -1.16
    6    8    8     13.08      0.28
    5    8    8     19.39     -2.55
    4    8    8      7.02     -4.41
    3    8    8     13.30      6.04
    2    8    8     11.53     -7.40
    1    8    8     -3.99      0.35
    0    8    8     24.20     -0.03
    8    8    8     14.82     -0.07
    8    9    8     10.79      0.63
    7    9    8     14.37      0.15
    6    9    8      8.34     -2.05
    5    9    8      8.30     -2.72
    4    9    8     10.73      2.96
    3    9    8     11.59     -7.06
    2    9    8     -9.27      0.93
    1    9    8     16.87     -2.06
    0    9    8      0.19     -6.57
    9    9    8     16.85     -0.06
    9   10    8      6.42      0.02
    8   10    8     18.43     -1.24
    7   10    8      5.25     -1.02
    6   10    8     13.63      1.34
    5   10    8      6.44     -1.42
    4   10    8     13.14     -3.25
    3   10    8     -1.46      0.49
    2   10    8     10.80      0.84
    1   10    8     -7.29     -6.59
    0   10    8      3.99     -0.04
   10   10    8      8.19      0.02
   10   11    8     -6.41     -0.38
    9   11    8     10.38     -2.88
    8   11    8     -0.79     -3.81
    7   11    8     16.82      3.05
    6   11    8      2.26     -5.40
    5   11    8     12.17      0.90
    4   11    8      5.80     -3.24
    3   11    8     12.74      1.77
    2   11    8      2.53     -4.30
    1   11    8      0.50      4.05
    0   11    8      0.14     -3.74
   11   11    8      0.84     -0.01
   11   12    8    -10.50      0.32
   10   12    8      2.21     -0.34
    9   12    8     -9.53     -5.26
    8   12    8     10.77      2.67
    7   12    8     -2.45     -9.80
    6   12    8      8.04      4.76
    5   12    8      3.72     -6.68
    4   12    8      8.24     -1.03
    3   12    8     10.07     -5.73
    2   12    8      7.54      3.37
    1   12    8      6.37      0.02
    0   12    8      1.43     -0.05
   12   12    8      2.76     -0.09
   12   13    8     -7.80     -0.50
   11   13    8      2.53      3.10
   10   13    8    -10.98     -2.74
    9   13    8      3.55      5.22
    8   13    8     -6.44    -11.94
    7   13    8      4.24      6.86
    6   13    8      1.41     -7.88
    5   13    8      0.01     -0.32
    4   13    8      4.29     -5.59
    3   13    8      5.40     -1.71
    2   13    8      8.74     -3.10
    1   13    8      8.53      0.04
    0   13    8      0.23      4.50
   13   13    8      3.90     -0.08
   13   14    8     -8.01     -2.50
   12   14    8      3.16      3.70
   11   14    8     -8.28     -2.23
   10   14    8      0.78      7.79
    9   14    8     -7.43     -8.82
    8   14    8      1.41      8.26
    7   14    8      1.53    -10.02
    6   14    8     -1.15      2.62
    5   14    8      1.32     -1.78
    4   14    8     -1.54     -1.92
    3   14    8      1.00     -4.56
    2   14    8      5.55     -1.87
    1   14    8      2.26      1.62
    0   14    8      8.98      0.01
   14   14    8     -0.10      0.00
   14   15    8     -7.81     -3.39
   13   15    8     -0.14      3.61
   12   15    8     -7.41     -4.87
   11   15    8     -0.05      5.68
   10   15    8     -6.72     -5.17
    9   15    8     -1.94      9.42
    8   15    8     -1.48    -10.34
    7   15    8     -0.39      3.72
    6   15    8      3.73     -2.72
    5   15    8     -0.86      0.64
    4   15    8     -0.84     -0.70
    3   15    8     -1.04      0.82
    2   15    8     -1.14     -0.90
    1   15    8      2.54     -1.69
    0   15    8      0.17      2.79
   15   15    8     -1.79      0.03
   15   16    8     -3.52     -2.77
   14   16    8     -1.87      4.20
   13   16    8     -5.71     -5.98
   12   16    8     -0.67      3.17
   11   16    8     -4.89     -4.76
   10   16    8     -2.73      6.71
    9   16    8     -5.22     -7.27
    8   16    8     -3.27      5.40
    7   16    8      0.76     -6.90
    6   16    8      0.19      0.39
    5   16    8      3.03     -0.53
    4   16    8     -1.63      3.63
    3   16    8      0.69      0.60
    2   16    8     -3.38      0.02
    1   16    8      0.01      3.12
    0   16    8     -2.96      0.00
   16   16    8      0.63     -0.02
   16   17    8      0.09     -1.72
   15   17    8     -0.22      4.33
   14   17    8     -2.13     -4.43
   13   17    8     -0.97      3.82
   12   17    8     -2.62     -3.73
   11   17    8     -0.20      2.67
   10   17    8     -3.48     -5.06
    9   17    8     -3.15      6.05
    8   17    8     -3.83     -6.34
    7   17    8     -3.32      1.26
    6   17    8      2.24     -4.70
    5   17    8     -1.81      1.85
    4   17    8      5.15     -0.19
    3   17    8     -4.82      1.74
    2   17    8      2.64      4.99
    1   17    8     -5.69     -1.40
    0   17    8     -0.04      4.79
   17   17    8      1.73     -0.01
   17   18    8      0.65     -0.96
   16   18    8      1.03      3.47
   15   18    8      0.28     -2.65
   14   18    8     -0.74      4.85
   13   18    8     -1.59     -1.20
   12   18    8      0.31      2.15
   11   18    8     -0.17     -2.88
   10   18    8      0.55      4.16
    9   18    8     -2.13     -4.18
    8   18    8     -3.72      4.49
    7   18    8      0.18     -4.36
    6   18    8     -3.99      0.41
    5   18    8      5.87     -3.32
    4   18    8     -5.13      0.14
    3   18    8      5.84      4.17
    2   18    8     -5.98     -2.44
    1   18    8      1.84      6.11
    0   18    8     -5.35     -0.03
   18   18    8      1.25      0.00
   17   19    8      1.19      1.90
   16   19    8      1.13     -1.56
   15   19    8      0.11      4.49
   14   19    8     -0.38     -0.52
   13   19    8     -1.20      3.14
   12   19    8     -0.34      0.05
   11   19    8      0.14      3.12
   10   19    8      0.95     -3.65
    9   19    8     -0.50      5.37
    8   19    8      1.30     -1.57
    7   19    8     -3.88      2.43
    6   19    8      5.28     -1.88
    5   19    8     -4.84     -1.46
    4   19    8      7.06      1.44
    3   19    8     -5.43     -3.54
    2   19    8      4.02      6.23
    1   19    8     -3.97     -1.69
    0   19    8     -0.07      4.33
   16   20    8      1.04      3.15
   15   20    8      1.74     -1.01
   14   20    8     -0.52      3.75
   13   20    8      0.09      0.27
   12   20    8     -2.60      3.10
   11   20    8      0.46     -2.35
   10   20    8     -0.09      4.11
    9   20    8      1.93     -2.03
    8   20    8     -1.93      3.06
    7   20    8      5.00      1.58
    6   20    8     -3.33     -1.16
    5   20    8      7.07      1.66
    4   20    8     -3.93     -3.47
    3   20    8      5.17      4.65
    2   20    8     -2.75     -1.97
    1   20    8      1.80      3.57
    0   20    8     -1.33     -0.17
   15   21    8      1.00      3.88
   14   21    8      2.31     -0.94
   13   21    8     -1.54      2.86
   12   21    8      0.76     -1.26
   11   21    8     -1.79      3.07
   10   21    8      0.67     -2.38
    9   21    8     -0.57      1.19
    8   21    8      3.61      1.27
    7   21    8     -2.22     -1.60
    6   21    8      6.16      2.65
    5   21    8     -1.73     -2.97
    4   21    8      5.24      2.81
    3   21    8     -1.32     -2.01
    2   21    8      3.11      3.24
    1   21    8     -0.14      0.25
    0   21    8     -0.06      2.47
   13   22    8      2.49     -0.90
   12   22    8     -1.37      1.89
   11   22    8      0.65     -1.15
   10   22    8     -0.22      0.41
    9   22    8      2.16      0.28
    8   22    8     -1.17     -2.77
    7   22    8      3.73      1.62
    6   22    8     -0.62     -3.16
    5   22    8      4.61      0.50
    4   22    8      0.51     -2.50
    3   22    8      4.01      1.06
    2   22    8      0.41     -0.96
    1   22    8      1.87      2.36
    0   22    8      0.17     -0.15
   11   23    8     -0.17      0.58
   10   23    8      1.46      0.69
    9   23    8      0.13     -2.27
    8   23    8      2.20      1.08
    7   23    8     -0.32     -3.08
    6   23    8      2.06     -1.02
    5   23    8      1.02     -2.33
    4   23    8      4.17     -2.01
    3   23    8      1.07     -2.92
    2   23    8      4.01     -0.01
    1   23    8      0.77     -1.21
    0   23    8      0.22      2.22
    9   24    8      2.06      1.52
    8   24    8      0.60     -2.16
    7   24    8      0.30     -0.38
    6   24    8      0.39     -1.32
    5   24    8      1.88     -2.98
    4   24    8      0.45     -2.41
    3   24    8      4.54     -2.73
    2   24    8      1.19     -2.69
    1   24    8      2.52      0.35
    0   24    8      1.73     -0.04
    6   25    8     -0.21     -1.66
    5   25    8     -0.29     -0.66
    4   25    8      2.45     -2.85
    3   25    8      0.03     -2.03
    2   25    8      2.81     -1.68
    1   25    8      2.05     -1.04
    0   25    8      0.09      0.42
    0    1    9     -0.25      0.05
    1    1    9      0.16     11.32
    1    2    9     -3.28      7.90
    0    2    9      5.18      5.20
    2    2    9      0.09     24.20
    2    3    9     -1.76     20.78
    1    3    9     -1.21     15.88
    0    3    9    -15.30     15.07
    3    3    9     -0.06     26.28
    3    4    9      1.65     22.49
    2    4    9      2.79     20.38
    1    4    9    -11.02     28.00
    0    4    9      7.41      7.38
    4    4    9     -0.07     15.32
    4    5    9     -0.69     16.69
    3    5    9      6.35     14.53
    2    5    9     -0.12     25.63
    1    5    9     11.23     14.65
    0    5    9    -22.14     22.06
    5    5    9     -0.01      8.70
    5    6    9     -4.74     14.16
    4    6    9      4.46     11.85
    3    6    9     -0.85     13.37
    2    6    9     11.06     13.88
    1    6    9     -8.09     21.63
    0    6    9     15.61     15.79
    6    6    9      0.04      7.30
    6    7    9     -4.45      8.92
    5    7    9      5.82     12.15
    4    7    9     -5.35      5.26
    3    7    9      2.21     13.70
    2    7    9     -3.15     11.82
    1    7    9     11.66     11.72
    0    7    9    -13.75     13.88
    7    7    9      0.00      0.90
    7    8    9     -2.64     -0.46
    6    8    9      7.96      5.28
    5    8    9     -1.78      0.02
    4    8    9     -1.14     14.42
    3    8    9     -0.80      4.04
    2    8    9      2.28      7.04
    1    8    9     -8.79     12.92
    0    8    9      7.32      7.29
    8    8    9     -0.06     -3.12
    8    9    9     -1.40     -7.23
    7    9    9      4.82     -2.22
    6    9    9      2.15     -6.02
    5    9    9     -0.34      7.36
    4    9    9      7.46      0.12
    3    9    9     -2.54      5.19
    2    9    9     -3.49      9.11
    1    9    9      5.63      1.72
    0    9    9    -10.20     10.25
    9    9    9     -0.04     -1.33
    9   10    9      0.51    -12.75
    8   10    9      0.23     -4.06
    7   10    9      2.02     -8.37
    6   10    9     -3.41     -3.17
    5   10    9     11.96     -4.96
    4   10    9     -4.41      0.70
    3   10    9      3.46      5.37
    2   10    9      6.23     -1.13
    1   10    9     -4.09      5.88
    0   10    9      5.62      5.70
   10   10    9     -0.09     -0.26
   10   11    9      3.03    -16.51
    9   11    9     -1.96     -4.59
    8   11    9      2.97     -7.58
    7   11    9     -6.01     -7.43
    6   11    9      8.42     -8.29
    5   11    9     -7.73     -5.46
    4   11    9      6.32     -1.05
    3   11    9      3.84     -2.70
    2   11    9     -1.65      1.56
    1   11    9      8.78      2.78
    0   11    9      2.59     -2.71
   11   11    9     -0.15      0.55
   11   12    9      4.23    -14.24
   10   12    9     -3.31     -3.78
    9   12    9      6.14     -8.21
    8   12    9     -3.93     -8.08
    7   12    9      4.97     -6.56
    6   12    9     -8.13     -5.76
    5   12    9      4.62     -7.91
    4   12    9     -0.46     -3.84
    3   12    9     -2.49     -1.84
    2   12    9      4.32      0.46
    1   12    9      3.85     -6.14
    0   12    9      3.78      3.69
   12   12    9     -0.13      1.18
   12   13    9      3.19     -8.66
   11   13    9     -6.03     -1.05
   10   13    9      6.79     -8.32
    9   13    9     -1.90     -8.06
    8   13    9      4.83     -5.40
    7   13    9     -3.67     -3.33
    6   13    9      3.70     -9.35
    5   13    9     -2.36     -2.59
    4   13    9     -0.63     -5.89
    3   13    9      0.24     -1.22
    2   13    9      1.20     -2.74
    1   13    9     -2.81      0.70
    0   13    9      6.06     -6.07
   13   13    9     -0.30      0.44
   13   14    9      2.00     -4.01
   12   14    9     -7.24      1.04
   11   14    9      3.65     -6.53
   10   14    9     -4.53     -4.56
    9   14    9      3.56     -5.32
    8   14    9     -0.62     -4.07
    7   14    9      4.38     -8.08
    6   14    9     -2.57     -0.49
    5   14    9      3.13     -7.44
    4   14    9     -0.21     -3.78
    3   14    9      3.42     -0.55
    2   14    9     -5.27     -0.84
    1   14    9      3.29      0.28
    0   14    9     -2.80     -2.98
   14   14    9     -0.60      0.96
   14   15    9      1.68     -0.16
   13   15    9     -4.06      2.94
   12   15    9      2.36     -5.07
   11   15    9     -6.88      0.63
   10   15    9      0.38     -3.41
    9   15    9     -2.63     -4.20
    8   15    9      4.53     -6.51
    7   15    9     -3.46     -1.23
    6   15    9      4.82     -5.39
    5   15    9     -2.46     -5.35
    4   15    9      5.10     -0.96
    3   15    9     -2.20     -5.17
    2   15    9      5.20      3.40
    1   15    9     -2.56      0.06
    0   15    9     -2.41      2.38
   15   15    9     -0.62      2.96
   15   16    9      0.75      2.51
   14   16    9     -0.46      5.06
   13   16    9      3.67     -3.18
   12   16    9     -3.96      4.61
   11   16    9      0.63     -2.14
   10   16    9     -4.71     -1.60
    9   16    9      3.54     -2.05
    8   16    9     -4.33     -3.36
    7   16    9      6.70     -3.19
    6   16    9     -4.97     -5.15
    5   16    9      2.32      1.04
    4   16    9     -1.83     -8.03
    3   16    9      4.64      1.46
    2   16    9      0.22     -1.95
    1   16    9     -0.79      3.79
    0   16    9      2.13      2.14
   16   16    9     -0.37      4.22
   16   17    9     -0.64      1.94
   15   17    9      0.40      5.52
   14   17    9      2.36     -0.78
   13   17    9     -0.76      6.71
   12   17    9      3.87     -1.46
   11   17    9     -2.77      0.94
   10   17    9      3.01      2.97
    9   17    9     -4.46     -3.78
    8   17    9      8.29     -0.37
    7   17    9     -3.58     -5.22
    6   17    9      2.94      3.07
    5   17    9     -1.84     -6.04
    4   17    9     -0.63      2.36
    3   17    9      0.62     -3.95
    2   17    9     -0.11      0.40
    1   17    9      2.82      0.38
    0   17    9     -3.61      3.46
   17   17    9     -0.14      3.83
   17   18    9     -0.88     -0.55
   16   18    9      0.55      3.77
   15   18    9     -0.62     -0.16
   14   18    9     -0.69      5.68
   13   18    9      3.70     -0.01
   12   18    9     -0.87      2.33
   11   18    9      4.11      5.03
   10   18    9     -3.32     -3.35
    9   18    9      6.08      3.90
    8   18    9     -2.41     -4.46
    7   18    9      6.05      2.31
    6   18    9      1.29     -4.03
    5   18    9     -1.45      4.90
    4   18    9      1.32     -1.78
    3   18    9     -1.57      1.09
    2   18    9      2.19     -1.45
    1   18    9     -3.01      1.65
    0   18    9      0.11      0.22
   16   19    9     -0.99     -0.50
   15   19    9     -0.56      2.42
   14   19    9      1.16      0.42
   13   19    9     -1.32      2.10
   12   19    9      3.85      4.56
   11   19    9     -1.40     -2.78
   10   19    9      3.76      6.15
    9   19    9     -3.26     -2.61
    8   19    9      3.96      2.14
    7   19    9      2.06     -3.27
    6   19    9      1.42      3.79
    5   19    9      3.37     -0.75
    4   19    9     -0.83      4.35
    3   19    9      1.51      0.44
    2   19    9     -1.54      2.57
    1   19    9      1.14     -1.08
    0   19    9     -2.66      2.58
   15   20    9      0.59      0.10
   14   20    9     -1.16      0.65
   13   20    9      1.79      2.52
   12   20    9     -0.37     -1.59
   11   20    9      3.03      5.03
   10   20    9     -2.13     -1.85
    9   20    9      0.99      2.76
    8   20    9     -1.02     -1.11
    7   20    9      0.71      2.25
    6   20    9      3.09     -2.48
    5   20    9      1.17      3.91
    4   20    9      0.75      0.44
    3   20    9      0.13      4.54
    2   20    9      1.63      1.14
    1   20    9     -1.96      3.70
    0   20    9      1.45      1.64
   14   21    9      0.73      0.53
   13   21    9     -0.02     -0.59
   12   21    9      1.19      2.74
   11   21    9     -0.06     -1.87
   10   21    9      1.56      1.77
    9   21    9     -2.17      0.53
    8   21    9     -0.96      2.51
    7   21    9      0.12     -2.14
    6   21    9      0.86      2.74
    5   21    9      0.08     -2.10
    4   21    9      0.89      3.06
    3   21    9      0.36      1.14
    2   21    9     -1.85      4.39
    1   21    9      3.34      2.83
    0   21    9     -3.12      2.97
   12   22    9      0.05     -1.51
   11   22    9      1.23      0.76
   10   22    9     -0.88      0.04
    9   22    9      0.39      1.07
    8   22    9     -1.67     -0.24
    7   22    9     -0.49      3.56
    6   22    9     -0.38     -2.50
    5   22    9      0.22      1.91
    4   22    9     -0.29     -0.48
    3   22    9     -2.29      2.49
    2   22    9      2.74      1.67
    1   22    9     -2.68      2.79
    0   22    9      3.30      3.42
   10   23    9      1.03     -0.71
    9   23    9     -0.80      0.30
    8   23    9     -0.46      2.37
    7   23    9     -0.61     -1.41
    6   23    9     -0.73      2.75
    5   23    9      0.11     -0.62
    4   23    9     -2.51      1.47
    3   23    9      1.75      0.70
    2   23    9     -3.02      1.76
    1   23    9      2.61      1.61
    0   23    9     -1.10      1.09
    8   24    9      0.10     -0.87
    7   24    9     -1.12      1.83
    6   24    9      0.39     -0.60
    5   24    9     -1.84      1.36
    4   24    9      1.06      0.74
    3   24    9     -2.99      1.44
    2   24    9      1.82      1.03
    1   24    9     -1.01      0.41
    0   24    9      1.30      1.44
    4   25    9     -1.73      0.54
    3   25    9      0.92      0.66
    2   25    9     -1.30      0.85
    1   25    9      0.98      1.39
    0   25    9     -0.31      0.22
    0    1   10    -44.05     -0.06
    1    1   10      0.75      0.02
    1    2   10    -42.63      1.09
    0    2   10      0.05     -6.83
    2    2   10      5.95     -0.07
    2    3   10    -35.72      2.49
    1    3   10      2.96     -5.79
    0    3   10    -32.07     -0.27
    3    3   10     14.86     -0.14
    3    4   10    -24.73      1.59
    2    4   10      7.37     -1.75
    1    4   10    -20.30      3.44
    0    4   10      0.12     -2.25
    4    4   10     19.52     -0.05
    4    5   10    -12.27     -0.53
    3    5   10     11.91     -0.37
    2    5   10    -12.15      2.99
    1    5   10     -1.67      3.12
    0    5   10     -9.23     -0.03
    5    5   10     17.42     -0.02
    5    6   10      2.55     -1.15
    4    6   10     15.58     -0.09
    3    6   10     -4.38     -0.65
    2    6   10      1.22      1.89
    1    6   10     -6.30      0.90
    0    6   10      0.08      8.72
    6    6   10     11.22     -0.10
    6    7   10     15.37     -0.06
    5    7   10     15.56      2.54
    4    7   10      3.75     -1.46
    3    7   10     11.72     -0.87
    2    7   10      0.24     -1.41
    1    7   10      0.07      5.74
    0    7   10     -7.73     -0.05
    7    7   10      3.14     -0.12
    7    8   10     20.23     -0.33
    6    8   10     11.38      3.59
    5    8   10      8.03      0.96
    4    8   10     18.50      1.97
    3    8   10      8.85     -0.45
    2    8   10      8.38      0.24
    1    8   10     -0.95     -2.26
    0    8   10     -0.07      4.18
    8    8   10     -3.53     -0.05
    8    9   10     17.81     -0.94
    7    9   10      6.12      0.05
    6    9   10      7.87     -0.06
    5    9   10     17.72      3.69
    4    9   10     10.67      3.11
    3    9   10     11.80      1.30
    2    9   10     11.72     -1.86
    1    9   10      5.07      0.85
    0    9   10      0.82      0.22
    9    9   10     -7.48      0.10
    9   10   10     11.19      0.54
    8   10   10      0.39     -0.84
    7   10   10      6.56     -2.02
    6   10   10     13.99     -0.93
    5   10   10      7.95      1.97
    4   10   10      7.49      2.73
    3   10   10     16.74      1.39
    2   10   10      5.54      2.61
    1   10   10      7.07     -2.45
    0   10   10      0.05     -0.24
   10   10   10     -8.29      0.10
   10   11   10      3.95      1.14
    9   11   10     -5.10      0.91
    8   11   10      5.55      0.73
    7   11   10      7.61     -2.19
    6   11   10      6.56     -0.98
    5   11   10      4.34     -0.94
    4   11   10     14.25      1.98
    3   11   10      0.27      4.86
    2   11   10      9.13     -1.89
    1   11   10      4.20      1.22
    0   11   10      0.87      0.09
   11   11   10     -6.99     -0.04
   11   12   10     -2.38      0.52
   10   12   10     -8.82     -0.59
    9   12   10      4.83      1.75
    8   12   10     -1.41      0.71
    7   12   10      5.49      0.74
    6   12   10      2.82     -2.96
    5   12   10     11.14      0.49
    4   12   10     -0.80      2.47
    3   12   10      5.71     -0.08
    2   12   10      5.85      4.75
    1   12   10     -3.00     -0.59
    0   12   10     -0.08     -1.01
   12   12   10     -7.38     -0.04
   12   13   10     -6.84      1.23
   11   13   10    -11.31     -2.12
   10   13   10      3.66      0.22
    9   13   10     -9.30     -0.50
    8   13   10      2.81      1.94
    7   13   10     -0.98     -1.40
    6   13   10      5.97      1.19
    5   13   10      1.90     -1.35
    4   13   10      2.36      0.02
    3   13   10      7.48      5.12
    2   13   10     -6.53      0.78
    1   13   10      7.00      1.04
    0   13   10     -5.35     -0.01
   13   13   10     -7.53      0.04
   13   14   10     -4.80      1.84
   12   14   10    -10.71     -2.00
   11   14   10      1.32      1.89
   10   14   10    -12.89     -2.54
    9   14   10      1.27      0.63
    8   14   10     -4.41     -1.75
    7   14   10     -2.33      2.78
    6   14   10      1.81     -2.41
    5   14   10     -1.42     -0.24
    4   14   10      7.88      1.77
    3   14   10     -9.09     -0.54
    2   14   10      9.46      3.23
    1   14   10     -4.83      1.69
    0   14   10     -0.12      0.43
   14   14   10     -4.59     -0.02
   14   15   10      2.04      1.56
   13   15   10     -6.28     -2.64
   12   15   10      0.49      3.40
   11   15   10    -11.76     -2.32
   10   15   10      1.07      1.89
    9   15   10     -4.07     -2.94
    8   15   10     -6.78      2.74
    7   15   10      1.14     -1.87
    6   15   10     -6.29      1.00
    5   15   10      5.25     -0.42
    4   15   10     -8.76     -2.59
    3   15   10      6.60      2.06
    2   15   10     -8.50      0.30
    1   15   10      1.82      1.37
    0   15   10     -0.90     -0.01
   15   15   10     -3.35     -0.08
   15   16   10      4.92      1.36
   14   16   10     -3.33     -2.55
   13   16   10      2.11      2.69
   12   16   10     -7.29     -2.90
   11   16   10     -0.01      2.93
   10   16   10     -3.20     -2.31
    9   16   10     -5.93      3.16
    8   16   10      3.44     -2.24
    7   16   10     -7.65      2.17
    6   16   10      2.52      0.19
    5   16   10     -6.30     -2.08
    4   16   10      4.24      0.95
    3   16   10     -9.44     -1.91
    2   16   10     -0.20      0.54
    1   16   10     -5.81      0.35
    0   16   10     -0.10      1.58
   16   16   10     -5.59     -0.03
   16   17   10      3.69      0.77
   15   17   10     -3.71     -1.10
   14   17   10      2.06      2.57
   13   17   10     -2.92     -3.02
   12   17   10     -0.59      1.63
   11   17   10     -3.59     -2.22
   10   17   10     -5.26      3.43
    9   17   10      4.08     -2.79
    8   17   10     -5.26      2.91
    7   17   10      2.00     -0.27
    6   17   10     -3.94     -0.70
    5   17   10      3.07      1.55
    4   17   10     -5.89     -1.93
    3   17   10      3.17      0.44
    2   17   10     -8.83      0.10
    1   17   10     -1.18      0.88
    0   17   10     -9.31     -0.10
   17   17   10     -5.53      0.04
   17   18   10      3.77      0.04
   16   18   10     -2.98      0.19
   15   18   10      0.65      1.97
   14   18   10     -1.01     -1.80
   13   18   10     -0.15      1.70
   12   18   10     -2.75     -2.56
   11   18   10     -3.98      2.10
   10   18   10      0.66     -2.85
    9   18   10     -4.16      3.57
    8   18   10      2.34     -2.47
    7   18   10     -1.83      0.18
    6   18   10      1.23      1.04
    5   18   10     -5.01     -1.70
    4   18   10      7.03      1.38
    3   18   10     -6.34      0.41
    2   18   10      3.86      0.65
    1   18   10     -9.37      0.46
    0   18   10      0.00      1.78
   16   19   10      0.99      0.80
   15   19   10     -0.29     -0.92
   14   19   10      0.41      2.07
   13   19   10     -1.40     -1.99
   12   19   10     -0.16      1.61
   11   19   10     -1.43     -2.72
   10   19   10     -4.02      3.21
    9   19   10      1.58     -3.38
    8   19   10     -0.52      1.06
    7   19   10      1.34     -1.14
    6   19   10     -5.36     -1.50
    5   19   10      5.72      1.08
    4   19   10     -6.88     -0.72
    3   19   10      8.05      1.11
    2   19   10     -4.72      0.58
    1   19   10      2.37      2.26
    0   19   10     -7.02     -0.03
   15   20   10      0.96      1.37
   14   20   10     -1.30     -1.34
   13   20   10      2.39      1.54
   12   20   10     -0.99     -1.97
   11   20   10     -1.37      2.44
   10   20   10      1.23     -3.03
    9   20   10     -1.74      1.71
    8   20   10      2.73     -2.11
    7   20   10     -2.22     -0.99
    6   20   10      4.79      0.18
    5   20   10     -8.01     -1.61
    4   20   10      6.62      0.87
    3   20   10     -3.47     -1.37
    2   20   10      3.43      2.14
    1   20   10     -2.99     -0.82
    0   20   10      0.06      3.32
   13   21   10     -1.16     -0.77
   12   21   10      1.15      1.59
   11   21   10      1.89     -2.33
   10   21   10     -2.55      1.86
    9   21   10      2.33     -1.84
    8   21   10     -0.38     -0.79
    7   21   10      5.33      0.30
    6   21   10     -3.93     -1.51
    5   21   10      5.56      1.33
    4   21   10     -3.84     -2.53
    3   21   10      2.30      1.56
    2   21   10     -0.85     -2.62
    1   21   10      0.45      2.37
    0   21   10     -2.72      0.05
   11   22   10     -1.06      1.35
   10   22   10      1.73     -1.37
    9   22   10     -1.29     -0.49
    8   22   10      2.88      0.75
    7   22   10     -0.29     -2.15
    6   22   10      6.06      2.18
    5   22   10     -1.64     -2.10
    4   22   10      2.65      2.19
    3   22   10      0.07     -2.41
    2   22   10      0.52      1.34
    1   22   10     -1.89     -1.08
    0   22   10      0.02      0.38
    9   23   10     -0.02      0.98
    8   23   10     -0.50     -2.03
    7   23   10      4.21      1.91
    6   23   10     -0.02     -2.31
    5   23   10      3.83      2.50
    4   23   10      0.90     -1.37
    3   23   10      1.14      1.88
    2   23   10      0.03      0.00
    1   23   10      1.05     -0.57
    0   23   10     -1.63      0.07
    6   24   10      3.76      1.26
    5   24   10      0.63     -1.50
    4   24   10      1.32      1.89
    3   24   10      1.12      0.53
    2   24   10      1.57      0.26
    1   24   10      0.14      0.96
    0   24   10     -0.06     -1.57
    7   24   10     -0.70     -1.69
    0   25   10      1.38      0.02
    0    1   11     -4.20     -4.09
    1    1   11      0.15      7.79
    1    2   11      1.65     -0.78
    0    2   11     -1.64      1.67
    2    2   11      0.11     24.63
    2    3   11      2.94     13.78
    1    3   11      2.91     14.73
    0    3   11     11.02     11.01
    3    3   11      0.14     31.61
    3    4   11      0.78     18.29
    2    4   11     -4.79     23.76
    1    4   11     10.83     23.30
    0    4   11     -4.73      4.79
    4    4   11      0.12     18.74
    4    5   11      2.48     11.81
    3    5   11     -9.87     17.03
    2    5   11      2.28     22.00
    1    5   11    -10.92     13.89
    0    5   11     19.75     19.68
    5    5   11     -0.01      5.04
    5    6   11      5.15      9.89
    4    6   11     -5.85      8.87
    3    6   11      3.49      9.05
    2    6   11    -13.84     13.63
    1    6   11      6.12     19.63
    0    6   11    -14.96     14.83
    6    6   11     -0.07      2.47
    6    7   11      4.26     10.91
    5    7   11     -4.63      8.19
    4    7   11      7.79      1.89
    3    7   11     -3.54     11.57
    2    7   11      1.61      9.97
    1    7   11    -13.67     12.13
    0    7   11     10.80     10.62
    7    7   11     -0.06     -2.12
    7    8   11      2.48      1.71
    6    8   11     -7.71      2.88
    5    8   11      3.96      1.30
    4    8   11      2.30     12.05
    3    8   11      2.27      2.37
    2    8   11     -1.66      7.23
    1    8   11      4.87     11.33
    0    8   11    -11.63     11.64
    8    8   11     -0.01    -11.88
    8    9   11      1.90     -9.51
    7    9   11     -5.62     -8.57
    6    9   11     -0.76     -2.95
    5    9   11     -1.02      6.39
    4    9   11     -3.50     -0.04
    3    9   11      6.49      3.34
    2    9   11      2.88      7.84
    1    9   11     -7.36      5.65
    0    9   11      8.52      8.12
    9    9   11     -0.01    -11.23
    9   10   11      0.10    -10.56
    8   10   11      0.90    -11.92
    7   10   11     -0.04     -7.24
    6   10   11      0.41     -4.27
    5   10   11     -8.71     -1.82
    4   10   11      4.58     -0.97
    3   10   11     -1.36      4.33
    2   10   11     -2.22     -2.66
    1   10   11      5.20      3.63
    0   10   11     -8.78      8.76
   10   10   11     -0.09     -3.69
   10   11   11     -3.02     -9.92
    9   11   11      3.86     -8.09
    8   11   11     -0.84     -5.40
    7   11   11      6.61    -10.75
    6   11   11     -5.80     -4.14
    5   11   11      5.10     -4.21
    4   11   11     -5.83      2.32
    3   11   11     -0.38     -6.01
    2   11   11      4.31     -1.31
    1   11   11     -7.65      1.95
    0   11   11     -2.73     -2.77
   11   11   11      0.00     -2.51
   11   12   11     -3.74     -9.86
   10   12   11      4.57     -6.57
    9   12   11     -5.54     -3.44
    8   12   11      6.76    -11.21
    7   12   11     -3.17     -5.43
    6   12   11      9.32     -6.27
    5   12   11     -5.69     -1.87
    4   12   11      1.86     -3.71
    3   12   11      1.80     -0.39
    2   12   11     -2.54     -1.47
    1   12   11     -0.30     -9.17
    0   12   11     -2.74      2.78
   12   12   11      0.10     -3.25
   12   13   11     -2.42     -4.76
   11   13   11      6.93     -5.03
   10   13   11     -5.81     -3.91
    9   13   11      4.48     -8.85
    8   13   11     -4.81     -4.70
    7   13   11      7.95     -6.20
    6   13   11     -4.85     -7.64
    5   13   11      5.65     -2.71
    4   13   11     -2.50     -0.83
    3   13   11      0.08     -0.24
    2   13   11      1.79     -4.55
    1   13   11      2.52      0.14
    0   13   11     -5.84     -5.75
   13   13   11      0.05     -2.09
   13   14   11     -1.84     -0.08
   12   14   11      6.64     -1.92
   11   14   11     -2.42     -2.52
   10   14   11      6.63     -5.24
    9   14   11     -2.66     -3.54
    8   14   11      4.14     -3.00
    7   14   11     -5.38     -8.50
    6   14   11      7.48     -2.70
    5   14   11     -4.99     -4.30
    4   14   11      1.75     -1.69
    3   14   11     -2.28      0.48
    2   14   11      2.47      1.58
    1   14   11     -1.58     -2.19
    0   14   11      3.35     -3.50
   14   14   11      0.07     -1.37
   14   15   11     -1.02      2.47
   13   15   11      2.42      0.01
   12   15   11     -2.32     -0.57
   11   15   11      6.78     -0.99
   10   15   11      1.48     -2.54
    9   15   11      4.23     -0.64
    8   15   11     -3.44     -5.37
    7   15   11      7.00      0.19
    6   15   11     -5.40     -4.06
    5   15   11      5.97     -3.68
    4   15   11     -3.73      0.68
    3   15   11      0.22      0.09
    2   15   11     -2.94      1.73
    1   15   11      2.06      1.50
    0   15   11      0.17      0.33
   15   15   11      0.11      0.73
   15   16   11      0.61      5.20
   14   16   11     -0.74      2.07
   13   16   11     -2.47      0.90
   12   16   11      2.35      1.97
   11   16   11     -0.09     -0.96
   10   16   11      4.15      0.23
    9   16   11     -0.67     -2.88
    8   16   11      5.63      1.94
    7   16   11     -5.84     -1.09
    6   16   11      8.30     -1.62
    5   16   11     -1.74      1.31
    4   16   11      3.02     -1.83
    3   16   11     -1.26      0.71
    2   16   11     -0.76      3.78
    1   16   11      0.22      2.44
    0   16   11     -2.46      2.36
   16   16   11      0.10      1.87
   16   17   11      1.43      3.99
   15   17   11     -1.11      2.93
   14   17   11     -0.02      2.88
   13   17   11      0.10      3.11
   12   17   11     -2.84      0.58
   11   17   11      1.36      1.28
   10   17   11     -1.34     -0.13
    9   17   11      4.15      1.03
    8   17   11     -5.90     -0.27
    7   17   11      5.61      1.07
    6   17   11     -2.58      2.32
    5   17   11      4.42     -0.16
    4   17   11      2.14      0.18
    3   17   11      0.50      3.34
    2   17   11      2.16      0.53
    1   17   11     -1.88      4.72
    0   17   11      4.63      4.69
   17   17   11      0.11     -0.43
   16   18   11     -0.64      0.57
   15   18   11      1.50      2.46
   14   18   11      1.05      2.79
   13   18   11     -1.87      1.71
   12   18   11      0.37      1.17
   11   18   11     -2.67      2.00
   10   18   11      1.99      0.82
    9   18   11     -4.32      0.44
    8   18   11      3.46      1.79
    7   18   11     -4.43      0.91
    6   18   11      0.88      1.74
    5   18   11      1.61      0.82
    4   18   11      0.42      3.68
    3   18   11      2.79     -0.16
    2   18   11     -0.44      4.29
    1   18   11      6.28      5.49
    0   18   11     -2.54      2.51
   15   19   11      1.15      0.97
   14   19   11     -0.78      1.76
   13   19   11      1.70      0.44
   12   19   11     -1.65      1.50
   11   19   11     -0.22      0.45
   10   19   11     -2.26      1.63
    9   19   11      3.30      2.44
    8   19   11     -3.07     -0.07
    7   19   11     -0.36      1.70
    6   19   11      0.24      0.26
    5   19   11     -2.18      2.79
    4   19   11      1.58      1.47
    3   19   11     -1.04      3.92
    2   19   11      3.72      4.57
    1   19   11     -2.39      2.30
    0   19   11      8.19      8.11
   14   20   11      1.70      0.26
   13   20   11     -0.88      0.58
   12   20   11     -0.53     -0.15
   11   20   11     -0.97      0.69
   10   20   11      1.26      2.10
    9   20   11     -1.03      0.69
    8   20   11      2.10      1.47
    7   20   11      0.75      0.51
    6   20   11     -2.71      0.41
    5   20   11      2.13      1.97
    4   20   11     -1.59      2.81
    3   20   11      2.04      4.37
    2   20   11     -3.55      2.50
    1   20   11      5.21      6.31
    0   20   11     -3.92      3.95
   12   21   11     -0.41     -0.16
   11   21   11     -0.63      0.73
   10   21   11     -1.15      0.53
    9   21   11      2.21      1.14
    8   21   11      1.44      1.75
    7   21   11     -1.06     -1.02
    6   21   11      2.70      2.06
    5   21   11     -1.35      0.79
    4   21   11      3.38      3.41
    3   21   11     -1.76      3.17
    2   21   11      4.16      4.16
    1   21   11     -5.53      3.72
    0   21   11      3.95      3.88
   10   22   11      0.52      0.47
    9   22   11      0.29      1.24
    8   22   11     -0.12     -1.04
    7   22   11      2.63      2.45
    6   22   11     -1.84     -0.59
    5   22   11      2.68      1.91
    4   22   11      0.15      2.72
    3   22   11      5.16      2.51
    2   22   11     -3.01      3.62
    1   22   11      4.14      2.31
    0   22   11     -4.55      4.55
    8   23   11      2.00      1.39
    7   23   11     -1.66     -0.96
    6   23   11      1.15      1.27
    5   23   11     -0.62      1.04
    4   23   11      2.83      0.62
    3   23   11     -0.71      3.10
    2   23   11      5.11      1.80
    1   23   11     -2.70      3.08
    0   23   11      2.74      2.65
    4   24   11     -0.99      1.23
    3   24   11      2.77      0.59
    2   24   11     -1.38      1.95
    1   24   11      2.85      1.73
    0   24   11     -1.45      1.42
    5   24   11      0.04     -0.34
    0    0   12    -54.84      0.16
    0    1   12      0.01     -0.02
    1    1   12    -34.24      0.04
    1    2   12     17.79      0.05
    0    2   12    -20.11      0.08
    2    2   12     -7.49     -0.08
    2    3   12     14.83      0.70
    1    3   12     -4.01      1.51
    0    3   12     -0.09      0.73
    3    3   12     -5.91     -0.11
    3    4   12     -1.03      1.07
    2    4   12     -8.03      1.89
    1    4   12      8.90      1.72
    0    4   12     -1.65     -0.01
    4    4   12     -1.15      0.02
    4    5   12      4.04      1.65
    3    5   12     -7.30     -1.15
    2    5   12      7.55      1.24
    1    5   12     -7.07      1.43
    0    5   12     -0.15      0.87
    5    5   12     19.21      0.08
    5    6   12     17.77      2.67
    4    6   12      9.39     -3.60
    3    6   12     14.26      0.76
    2    6   12     -9.10      0.46
    1    6   12      6.40     -1.72
    0    6   12      0.49     -0.13
    6    6   12     25.04     -0.03
    6    7   12     13.40      2.10
    5    7   12     16.48     -3.68
    4    7   12     23.15      1.35
    3    7   12     -0.87      0.08
    2    7   12     10.45     -3.36
    1    7   12      5.41      1.93
    0    7   12     -0.06     -2.51
    7    7   12     12.43     -0.07
    7    8   12      2.79      0.56
    6    8   12      8.80     -2.48
    5    8   12     17.43      0.64
    4    8   12      5.83      0.27
    3    8   12     13.70     -4.46
    2    8   12      5.78      3.10
    1    8   12     -1.78     -0.67
    0    8   12     15.27     -0.18
    8    8   12      7.51     -0.07
    8    9   12      2.62     -1.06
    7    9   12      7.03      0.69
    6    9   12      5.29      0.59
    5    9   12      5.66     -0.31
    4    9   12     12.34     -4.45
    3    9   12      6.89      2.20
    2    9   12     -3.54     -2.31
    1    9   12     10.01      0.36
    0    9   12     -0.06      5.04
    9    9   12     10.65     -0.05
    9   10   12      0.56     -2.85
    8   10   12     10.82      3.02
    7   10   12      0.39      0.75
    6   10   12      6.66     -0.12
    5   10   12      6.18     -0.25
    4   10   12      8.32      1.05
    3   10   12      2.89     -3.82
    2   10   12      6.26     -1.53
    1   10   12     -5.41      3.11
    0   10   12      0.57     -0.04
   10   10   12      5.52     -0.04
   10   11   12     -8.84     -2.90
    9   11   12      6.37      3.60
    8   11   12     -3.31     -1.43
    7   11   12      8.40     -0.61
    6   11   12      0.48      4.36
    5   11   12      6.17     -0.01
    4   11   12      6.84     -0.30
    3   11   12      8.57     -0.90
    2   11   12      2.18     -0.54
    1   11   12     -2.51     -2.95
    0   11   12      0.07      2.18
   11   11   12     -0.98     -0.07
   11   12   12    -11.20     -1.55
   10   12   12     -0.20      3.69
    9   12   12     -9.48     -1.96
    8   12   12      5.32     -1.01
    7   12   12     -3.00      4.79
    6   12   12      1.95     -2.24
    5   12   12      2.65      3.39
    4   12   12      4.60      0.64
    3   12   12      8.07      0.51
    2   12   12      4.37     -2.89
    1   12   12      4.22     -0.11
    0   12   12     -4.25      0.07
   12   12   12      0.49     -0.05
   12   13   12     -7.86     -0.28
   11   13   12     -0.13      1.72
   10   13   12    -10.36     -0.45
    9   13   12      0.58      0.32
    8   13   12     -5.18      4.13
    7   13   12      0.43     -3.79
    6   13   12     -0.25      4.06
    5   13   12     -2.62      0.43
    4   13   12      2.26      1.39
    3   13   12      3.59     -0.62
    2   13   12      6.60      1.44
    1   13   12      1.70     -2.28
    0   13   12      0.09     -0.28
   13   13   12      1.10     -0.04
   13   14   12     -7.44      0.95
   12   14   12      0.18     -0.51
   11   14   12     -7.48      0.50
   10   14   12     -1.33      0.23
    9   14   12     -6.39      3.59
    8   14   12     -0.26     -2.81
    7   14   12      0.55      3.46
    6   14   12     -2.31     -0.36
    5   14   12     -1.08      0.51
    4   14   12     -2.21      0.55
    3   14   12      0.36      2.43
    2   14   12      1.50     -2.33
    1   14   12      3.03      1.66
    0   14   12      0.30      0.08
   14   14   12     -0.80     -0.04
   14   15   12     -5.59      1.00
   13   15   12     -1.30     -1.13
   12   15   12     -6.40      1.56
   11   15   12     -1.35     -0.27
   10   15   12     -6.08      1.86
    9   15   12     -2.39     -1.54
    8   15   12     -1.66      2.64
    7   15   12     -0.50     -0.74
    6   15   12      1.31     -0.33
    5   15   12     -1.46      0.87
    4   15   12     -1.54      1.71
    3   15   12     -2.63     -2.19
    2   15   12      1.16      3.30
    1   15   12     -2.85     -1.66
    0   15   12      0.08      0.74
   15   15   12     -0.14      0.03
   15   16   12     -2.75     -0.19
   14   16   12     -0.70     -1.99
   13   16   12     -4.61      0.83
   12   16   12     -1.13      0.56
   11   16   12     -4.54      0.52
   10   16   12     -2.02     -0.62
    9   16   12     -4.11      1.46
    8   16   12     -3.04     -1.18
    7   16   12      0.04     -0.34
    6   16   12     -0.15      0.70
    5   16   12      1.61      1.04
    4   16   12     -2.83     -1.71
    3   16   12      1.37      3.70
    2   16   12     -5.41     -2.17
    1   16   12      1.59     -0.13
    0   16   12     -4.96      0.01
   16   16   12      0.49      0.05
   16   17   12     -2.29     -0.78
   15   17   12      0.11     -2.00
   14   17   12     -2.17     -1.72
   13   17   12     -0.38     -0.61
   12   17   12     -3.12     -1.07
   11   17   12      0.13      0.66
   10   17   12     -2.08      0.27
    9   17   12     -3.03     -2.16
    8   17   12     -1.88      0.57
    7   17   12     -2.86     -0.24
    6   17   12      1.54      0.30
    5   17   12     -2.25     -0.36
    4   17   12      3.36      3.32
    3   17   12     -5.50     -1.47
    2   17   12      1.78      0.87
    1   17   12     -4.94      0.53
    0   17   12     -0.05     -3.32
   15   18   12     -1.59     -2.18
   14   18   12      0.18     -2.01
   13   18   12     -2.03     -3.08
   12   18   12      0.52     -0.21
   11   18   12     -0.32     -1.02
   10   18   12     -0.18     -2.42
    9   18   12      0.72      0.68
    8   18   12     -3.24     -1.91
    7   18   12      0.81      0.06
    6   18   12     -2.32      0.40
    5   18   12      3.37      1.31
    4   18   12     -4.15     -0.28
    3   18   12      1.68      1.65
    2   18   12     -5.08      1.86
    1   18   12     -0.43     -1.29
    0   18   12     -3.38      0.02
   14   19   12     -0.93     -2.57
   13   19   12      0.22     -1.81
   12   19   12     -0.72     -2.32
   11   19   12     -0.09     -2.20
   10   19   12      2.21     -0.23
    9   19   12     -0.77     -2.73
    8   19   12      2.33     -0.32
    7   19   12     -0.96      0.04
    6   19   12      3.25     -0.46
    5   19   12     -1.65      0.00
    4   19   12      2.60      0.33
    3   19   12     -3.68      0.98
    2   19   12     -0.42      0.50
    1   19   12     -4.12      2.09
    0   19   12     -0.19      1.43
   13   20   12     -0.17     -2.32
   12   20   12     -0.70     -2.01
   11   20   12      0.52     -0.89
   10   20   12     -0.22     -2.04
    9   20   12      2.46     -0.76
    8   20   12      0.40     -0.29
    7   20   12      3.26     -1.04
    6   20   12      0.35     -0.29
    5   20   12      4.18     -0.18
    4   20   12     -1.03     -0.81
    3   20   12      2.36     -0.57
    2   20   12     -3.08      0.83
    1   20   12      0.45      2.22
    0   20   12     -4.26      0.08
   11   21   12     -0.80     -1.53
   10   21   12      0.78      0.00
    9   21   12      0.48     -0.06
    8   21   12      2.24     -1.06
    7   21   12      0.16     -0.15
    6   21   12      4.22      0.25
    5   21   12     -0.44     -1.23
    4   21   12      4.21      0.06
    3   21   12     -0.71     -0.79
    2   21   12      3.62     -0.53
    1   21   12     -2.02     -0.47
    0   21   12     -0.08      1.87
    9   22   12      1.35     -0.01
    8   22   12     -0.14      0.34
    7   22   12      2.64     -0.28
    6   22   12     -1.61     -0.82
    5   22   12      3.59      1.32
    4   22   12     -0.82     -0.13
    3   22   12      3.98     -0.55
    2   22   12      0.21     -1.15
    1   22   12      2.51     -0.91
    0   22   12      0.23     -0.12
    6   23   12      2.16      0.54
    5   23   12     -1.66      0.26
    4   23   12      2.05      0.66
    3   23   12     -0.32      0.42
    2   23   12      2.51     -1.10
    1   23   12      1.36     -1.03
    0   23   12      0.12     -1.73
    0    1   13      5.61     -5.66
    1    1   13      0.05      3.42
    1    2   13     -0.81     -3.94
    0    2   13     -1.11     -1.13
    2    2   13      0.01     20.28
    2    3   13     -3.59      8.77
    1    3   13     -2.66     11.03
    0    3   13     -8.62      8.72
    3    3   13     -0.02     27.28
    3    4   13     -3.18      8.10
    2    4   13      6.46     17.62
    1    4   13    -10.23     18.76
    0    4   13      2.06      1.98
    4    4   13     -0.02     12.81
    4    5   13     -5.23     -0.25
    3    5   13     11.87      8.51
    2    5   13     -3.53     15.98
    1    5   13      7.77      5.77
    0    5   13    -13.59     13.68
    5    5   13     -0.05      2.29
    5    6   13     -6.13      2.30
    4    6   13      7.52      2.29
    3    6   13     -5.79      6.26
    2    6   13     10.16      4.52
    1    6   13      0.89     12.80
    0    6   13      7.37      7.40
    6    6   13     -0.02      2.87
    6    7   13     -1.86      6.45
    5    7   13      3.57      3.92
    4    7   13     -9.58      2.54
    3    7   13      1.78      3.80
    2    7   13      1.01      8.54
    1    7   13      7.39      8.99
    0    7   13     -1.50      1.56
    7    7   13      0.02     -2.19
    7    8   13      2.31      1.86
    6    8   13      2.82      0.39
    5    8   13     -2.62      1.53
    4    8   13     -1.23      4.45
    3    8   13     -5.50      2.69
    2    8   13     -1.90      7.49
    1    8   13     -1.71      5.75
    0    8   13     10.90     11.10
    8    8   13      0.00    -10.62
    8    9   13      1.94     -2.98
    7    9   13     -0.56     -6.67
    6    9   13      4.67     -3.34
    5    9   13      3.24      1.92
    4    9   13     -0.68     -0.95
    3    9   13     -4.33      2.04
    2    9   13     -6.86      2.99
    1    9   13      3.69      9.14
    0    9   13     -6.97      6.96
    9    9   13     -0.01    -12.22
    9   10   13      1.06     -3.24
    8   10   13     -4.03     -8.52
    7   10   13      2.53     -7.21
    6   10   13      1.56     -3.05
    5   10   13      4.79     -3.21
    4   10   13      2.23     -2.34
    3   10   13     -1.17     -0.06
    2   10   13     -0.52      0.57
    1   10   13     -8.25      3.13
    0   10   13      6.08      6.23
   10   10   13      0.01     -9.09
   10   11   13      1.67     -2.69
    9   11   13     -1.65     -6.72
    8   11   13      0.98     -6.10
    7   11   13     -3.69     -4.86
    6   11   13      0.32     -4.88
    5   11   13      2.47     -4.99
    4   11   13      4.48      0.28
    3   11   13      1.44     -3.83
    2   11   13     -1.85     -2.13
    1   11   13      2.26      2.20
    0   11   13     -1.67      1.56
   11   11   13      0.02     -6.41
   11   12   13      0.71     -2.15
   10   12   13      0.78     -5.49
    9   12   13      3.96     -4.34
    8   12   13     -1.70     -4.13
    7   12   13     -1.03     -4.05
    6   12   13     -1.93     -5.36
    5   12   13      0.92     -0.30
    4   12   13      0.22     -3.07
    3   12   13      3.87     -1.95
    2   12   13     -0.44      0.96
    1   12   13      1.10     -5.40
    0   12   13      1.15      1.27
   12   12   13      0.09     -4.89
   12   13   13     -0.29      0.32
   11   13   13     -0.79     -4.50
   10   13   13      2.65     -3.11
    9   13   13      0.50     -4.02
    8   13   13      4.40     -3.45
    7   13   13     -0.84     -3.87
    6   13   13      0.05     -1.45
    5   13   13     -2.68     -2.25
    4   13   13      3.56     -1.96
    3   13   13     -2.46      3.40
    2   13   13      3.08     -5.27
    1   13   13     -2.36      1.81
    0   13   13      3.47     -3.43
   13   13   13      0.11     -2.64
   13   14   13      0.51      2.88
   12   14   13     -0.84     -2.45
   11   14   13      0.14     -0.40
   10   14   13     -2.67     -3.00
    9   14   13      4.89     -3.31
    8   14   13      0.13     -2.49
    7   14   13      4.74     -2.46
    6   14   13     -1.96     -1.69
    5   14   13      3.28     -3.82
    4   14   13     -3.08      2.96
    3   14   13      4.23     -4.03
    2   14   13     -2.00      3.96
    1   14   13      1.09     -1.98
    0   14   13     -1.70     -1.58
   14   14   13      0.02     -0.79
   14   15   13      0.84      3.18
   13   15   13     -0.50     -0.74
   12   15   13      1.55      1.80
   11   15   13     -2.70     -0.82
   10   15   13      2.22     -1.48
    9   15   13     -2.96     -0.33
    8   15   13      6.30     -3.24
    7   15   13     -0.84     -0.45
    6   15   13      4.37     -3.71
    5   15   13     -2.62      1.11
    4   15   13      3.82     -5.02
    3   15   13      0.15      3.14
    2   15   13      2.91     -1.28
    1   15   13      0.16      0.16
    0   15   13     -0.69      0.73
   15   15   13     -0.02     -0.76
   15   16   13      0.71      2.49
   14   16   13     -1.99     -0.43
   13   16   13      1.64      2.09
   12   16   13     -0.90      0.58
   11   16   13      2.40      0.06
   10   16   13     -2.85      1.79
    9   16   13      4.52     -2.46
    8   16   13     -1.31      1.06
    7   16   13      5.23     -2.75
    6   16   13     -1.51      1.17
    5   16   13      1.86     -3.75
    4   16   13     -0.53      1.86
    3   16   13      3.13     -2.56
    2   16   13      3.21      1.40
    1   16   13      2.36      0.29
    0   16   13      1.03      1.14
   16   16   13      0.00     -1.04
   16   17   13      0.66      1.25
   15   17   13     -1.53     -0.50
   14   17   13      0.61      1.53
   13   17   13     -2.03      0.88
   12   17   13      1.37      0.83
   11   17   13     -0.54      2.31
   10   17   13      3.32     -0.98
    9   17   13     -1.06      2.08
    8   17   13      5.30     -2.40
    7   17   13      0.10      1.12
    6   17   13      2.26     -2.04
    5   17   13     -0.91      2.86
    4   17   13      0.26     -2.35
    3   17   13      1.42      2.92
    2   17   13      2.90     -1.08
    1   17   13      3.69      2.55
    0   17   13      2.02     -2.06
   14   18   13     -1.45      0.35
   13   18   13     -0.48      1.35
   12   18   13     -1.26      2.07
   11   18   13      2.05      0.70
   10   18   13     -0.50      2.26
    9   18   13      3.94     -1.27
    8   18   13      0.38      1.04
    7   18   13      4.02     -2.30
    6   18   13      0.94      3.02
    5   18   13      0.33     -1.85
    4   18   13      0.22      4.22
    3   18   13     -0.76     -1.90
    2   18   13      2.50      4.04
    1   18   13      1.47     -1.47
    0   18   13      4.18      4.17
   13   19   13     -1.34      0.99
   12   19   13      0.64      1.77
   11   19   13     -1.43      2.16
   10   19   13      2.76      0.46
    9   19   13     -0.69      1.70
    8   19   13      2.71     -1.32
    7   19   13      1.53      2.42
    6   19   13      2.05     -2.15
    5   19   13      1.78      4.28
    4   19   13     -1.33     -1.80
    3   19   13      1.74      3.47
    2   19   13     -2.58     -2.02
    1   19   13      3.24      3.70
    0   19   13      0.43     -0.66
   12   20   13     -1.79      1.31
   11   20   13      2.05      1.09
   10   20   13     -1.29      1.76
    9   20   13      1.06      0.40
    8   20   13      0.18      2.25
    7   20   13      0.70     -0.72
    6   20   13      2.01      3.79
    5   20   13      0.05     -0.85
    4   20   13      2.50      2.87
    3   20   13     -3.39     -1.77
    2   20   13      2.20      2.00
    1   20   13     -2.26     -1.59
    0   20   13      2.45      2.47
   10   21   13      1.13      0.36
    9   21   13     -0.40      1.25
    8   21   13     -0.56      0.91
    7   21   13      0.62      2.68
    6   21   13     -0.50      0.31
    5   21   13      1.54      2.83
    4   21   13     -2.14      0.04
    3   21   13      1.99      1.95
    2   21   13     -3.00     -1.17
    1   21   13      0.88      1.20
    0   21   13     -0.57     -0.16
    7   22   13     -0.41      0.54
    6   22   13      0.30      1.48
    5   22   13     -2.03      0.67
    4   22   13      0.90      2.19
    3   22   13     -2.40      0.43
    2   22   13      0.19      1.64
    1   22   13     -1.44      0.35
    0   22   13     -0.12      0.02
    3   23   13     -0.01      1.76
    2   23   13     -1.18      1.32
    1   23   13     -0.68      0.33
    0   23   13     -1.59      1.40
    4   23   13     -2.47      0.30
    0    1   14     -9.90     -0.20
    1    1   14      0.34      0.01
    1    2   14    -11.36     -3.61
    0    2   14      0.04      9.67
    2    2   14      1.81     -0.01
    2    3   14    -10.52     -8.98
    1    3   14      0.81      7.14
    0    3   14     -9.15     -0.14
    3    3   14      4.14     -0.05
    3    4   14     -6.12     -7.37
    2    4   14      2.11      2.89
    1    4   14     -6.14    -11.59
    0    4   14      0.09     -2.31
    4    4   14      5.86     -0.09
    4    5   14     -0.62     -1.26
    3    5   14      4.23      5.08
    2    5   14     -2.18     -9.12
    1    5   14      0.09     -8.51
    0    5   14     -2.51      0.09
    5    5   14      5.81     -0.11
    5    6   14      3.31      0.93
    4    6   14      5.58      2.75
    3    6   14      1.81      1.07
    2    6   14      2.06      0.14
    1    6   14      0.58      0.41
    0    6   14      0.10    -13.42
    6    6   14      4.48      0.00
    6    7   14      4.84      1.48
    5    7   14      5.17     -4.37
    4    7   14      4.02      0.64
    3    7   14      4.53      4.11
    2    7   14      3.89      6.00
    1    7   14      1.34     -2.61
    0    7   14      2.23      0.17
    7    7   14      3.05      0.09
    7    8   14      3.29      3.00
    6    8   14      3.92     -4.89
    5    8   14      4.23     -1.66
    4    8   14      5.21     -0.93
    3    8   14      5.57     -1.05
    2    8   14      3.41      4.25
    1    8   14      4.36      4.45
    0    8   14      0.00      1.80
    8    8   14      0.06      0.08
    8    9   14     -0.65      2.55
    7    9   14      1.33     -1.11
    6    9   14      2.31      2.35
    5    9   14      4.48     -0.17
    4    9   14      4.81     -8.10
    3    9   14      3.88      1.97
    2    9   14      6.07     -1.14
    1    9   14      2.25      3.56
    0    9   14      5.14      0.15
    9    9   14     -3.02      0.08
    9   10   14     -2.38      0.51
    8   10   14     -1.31      0.82
    7   10   14     -0.84      3.30
    6   10   14      2.88      4.37
    5   10   14      2.38     -3.56
    4   10   14      2.91      3.36
    3   10   14      5.47     -7.08
    2   10   14      2.63      0.48
    1   10   14      5.94     -0.42
    0   10   14     -0.08      2.24
   10   10   14     -2.17      0.02
   10   11   14     -1.75     -0.73
    9   11   14     -1.35      1.75
    8   11   14     -2.77     -0.55
    7   11   14      0.88      4.49
    6   11   14      0.48      0.16
    5   11   14      2.31      7.68
    4   11   14      3.42     -2.82
    3   11   14      1.39      0.41
    2   11   14      4.44     -1.68
    1   11   14      1.02      0.63
    0   11   14      5.40     -0.03
   11   11   14     -1.85     -0.06
   11   12   14     -3.40     -0.80
   10   12   14     -1.76      2.46
    9   12   14     -2.93     -2.89
    8   12   14     -1.29      3.36
    7   12   14     -1.45     -2.54
    6   12   14      1.36      6.06
    5   12   14      2.35      1.33
    4   12   14      1.89      3.81
    3   12   14      2.19      1.91
    2   12   14      1.19      0.21
    1   12   14      2.71      0.45
    0   12   14     -0.08      3.65
   12   12   14     -3.52     -0.04
   12   13   14     -4.45     -0.45
   11   13   14     -3.37      1.89
   10   13   14     -2.35     -2.54
    9   13   14     -2.72      3.79
    8   13   14     -3.39     -3.82
    7   13   14     -2.01      2.74
    6   13   14     -0.18     -1.08
    5   13   14      2.30      3.32
    4   13   14      1.20      3.80
    3   13   14      3.00      1.75
    2   13   14     -0.09      1.28
    1   13   14      0.72      4.86
    0   13   14      1.43     -0.11
   13   13   14     -1.41     -0.02
   13   14   14     -2.22     -0.11
   12   14   14     -2.29      0.21
   11   14   14     -1.20     -1.94
   10   14   14     -2.85      3.06
    9   14   14     -1.85     -2.63
    8   14   14     -3.37      3.24
    7   14   14     -3.97     -2.05
    6   14   14     -0.54      1.57
    5   14   14     -1.22      0.49
    4   14   14      3.52      2.68
    3   14   14     -1.42      0.37
    2   14   14      2.30      3.70
    1   14   14      0.30     -1.77
    0   14   14     -0.02      5.71
   14   14   14      0.81     -0.04
   14   15   14     -0.90      0.15
   13   15   14     -0.70     -0.60
   12   15   14      0.54     -1.66
   11   15   14     -2.73      1.01
   10   15   14      0.49     -2.76
    9   15   14     -0.74      3.24
    8   15   14     -3.11     -1.07
    7   15   14     -1.67      3.40
    6   15   14     -4.39     -1.31
    5   15   14      0.82      3.13
    4   15   14     -2.58     -1.28
    3   15   14      2.46      3.78
    2   15   14     -1.10     -3.45
    1   15   14      0.26      2.08
    0   15   14      0.75     -0.02
   15   15   14     -0.27     -0.07
   15   16   14     -0.84     -0.02
   14   16   14     -1.15     -0.38
   13   16   14      1.54     -1.08
   12   16   14     -2.16      0.45
   11   16   14      0.66     -3.33
   10   16   14      0.05      1.66
    9   16   14     -0.61     -2.04
    8   16   14      1.36      3.84
    7   16   14     -3.41     -1.23
    6   16   14     -0.97      4.29
    5   16   14     -3.19     -2.02
    4   16   14      0.46      4.19
    3   16   14     -2.06     -1.52
    2   16   14      0.51      1.67
    1   16   14     -0.63     -1.87
    0   16   14      0.06     -1.42
   16   16   14     -0.57     -0.03
   14   17   14      0.81     -0.83
   13   17   14     -1.33      0.52
   12   17   14      1.02     -2.83
   11   17   14     -0.50      1.58
   10   17   14     -1.12     -2.57
    9   17   14      2.30      2.20
    8   17   14     -0.06     -1.90
    7   17   14      0.10      3.66
    6   17   14     -1.86     -2.62
    5   17   14     -1.08      2.94
    4   17   14     -2.05     -0.76
    3   17   14      0.92      2.46
    2   17   14     -1.62      0.69
    1   17   14      0.30     -0.45
    0   17   14     -2.51     -0.04
   13   18   14      0.71     -2.07
   12   18   14      0.23      1.38
   11   18   14     -0.91     -2.10
   10   18   14      0.71      2.09
    9   18   14      0.60     -1.42
    8   18   14      0.66      2.13
    7   18   14      0.86     -2.45
    6   18   14     -0.89      1.52
    5   18   14     -1.65     -2.36
    4   18   14      1.35      0.41
    3   18   14     -1.66      1.17
    2   18   14      1.87      1.01
    1   18   14     -3.02      1.23
    0   18   14      0.03      0.04
   12   19   14      0.13     -2.04
   11   19   14      0.60      1.54
   10   19   14      0.17     -0.93
    9   19   14     -0.41      1.96
    8   19   14      2.11     -1.20
    7   19   14     -0.17      0.99
    6   19   14     -0.91     -1.62
    5   19   14      1.56     -0.60
    4   19   14     -1.81     -0.73
    3   19   14      3.20     -0.66
    2   19   14     -1.51      1.13
    1   19   14      1.47      0.17
    0   19   14     -3.43      0.19
   10   20   14     -0.21      0.94
    9   20   14      1.29     -0.97
    8   20   14     -0.21      0.51
    7   20   14      0.03     -0.16
    6   20   14      1.17     -0.18
    5   20   14     -1.80      0.38
    4   20   14      3.24     -1.29
    3   20   14     -0.67     -0.02
    2   20   14      2.52     -0.79
    1   20   14     -1.54      0.36
    0   20   14     -0.05     -0.68
    8   21   14      0.18     -0.69
    7   21   14      0.75     -0.85
    6   21   14     -0.97      1.24
    5   21   14      1.87     -0.82
    4   21   14     -0.83      1.02
    3   21   14      2.67     -0.86
    2   21   14     -0.12     -0.10
    1   21   14      1.33     -0.70
    0   21   14     -0.65      0.15
    5   22   14     -0.59      1.37
    4   22   14      2.06     -0.86
    3   22   14     -0.32      0.44
    2   22   14      1.78     -0.15
    1   22   14      0.34      0.04
    0   22   14      0.04     -0.01
    0    1   15      4.76      4.80
    1    1   15      0.14      5.87
    1    2   15      2.33      8.20
    0    2   15     -5.69      5.87
    2    2   15      0.16      2.04
    2    3   15      0.05      4.70
    1    3   15     -3.37      4.21
    0    3   15      3.38      3.29
    3    3   15      0.05     -3.32
    3    4   15     -1.45      4.95
    2    4   15      1.38      1.10
    1    4   15      0.95      0.79
    0    4   15     -5.11      5.20
    4    4   15     -0.03     -1.40
    4    5   15     -2.94      6.96
    3    5   15      3.46      2.13
    2    5   15      0.63      0.15
    1    5   15     -1.66      5.68
    0    5   15      2.46      2.46
    5    5   15      0.03      0.38
    5    6   15     -2.67      2.49
    4    6   15      1.49      2.16
    3    6   15     -2.33      0.82
    2    6   15     -0.66      4.68
    1    6   15      6.17      1.79
    0    6   15     -3.84      3.89
    6    6   15      0.03     -0.38
    6    7   15     -0.19     -2.59
    5    7   15     -0.88     -0.08
    4    7   15     -3.91     -0.30
    3    7   15     -3.26      2.74
    2    7   15      2.83     -0.34
    1    7   15     -3.27      1.25
    0    7   15      5.53      5.52
    7    7   15     -0.09      2.23
    7    8   15      1.81     -4.13
    6    8   15     -2.85      0.29
    5    8   15     -0.84     -1.60
    4    8   15     -3.38      0.33
    3    8   15     -1.97     -0.84
    2    8   15     -5.64     -0.37
    1    8   15      2.29      1.18
    0    8   15     -0.07      0.17
    8    8   15     -0.03      4.70
    8    9   15      2.22     -5.83
    7    9   15     -3.93      1.77
    6    9   15      1.84     -1.49
    5    9   15     -1.84     -1.60
    4    9   15     -1.53     -1.36
    3    9   15     -4.66      0.17
    2    9   15     -2.12     -0.42
    1    9   15     -3.00     -1.22
    0    9   15     -1.16     -1.24
    9    9   15      0.08      4.67
    9   10   15      1.12     -6.47
    8   10   15     -3.42      2.03
    7   10   15      2.02     -1.86
    6   10   15     -1.49     -1.49
    5   10   15     -0.75     -1.93
    4   10   15     -0.92     -0.51
    3   10   15     -0.86     -1.89
    2   10   15     -4.00      0.42
    1   10   15     -2.84     -2.31
    0   10   15     -1.15      1.25
   10   10   15     -0.01      5.60
   10   11   15     -0.37     -5.31
    9   11   15     -2.85      3.03
    8   11   15      0.52     -2.59
    7   11   15     -1.83     -0.78
    6   11   15     -2.17     -1.72
    5   11   15      0.73     -0.20
    4   11   15      0.38     -4.29
    3   11   15     -1.77      0.64
    2   11   15      0.71     -2.60
    1   11   15     -2.60      1.48
    0   11   15     -2.45     -2.54
   11   11   15     -0.03      6.25
   11   12   15     -0.45     -4.61
   10   12   15     -0.50      4.02
    9   12   15     -0.92     -2.27
    8   12   15     -2.75      0.16
    7   12   15     -2.74     -2.15
    6   12   15     -0.20      0.99
    5   12   15     -2.27     -4.80
    4   12   15     -0.59      0.59
    3   12   15      3.39     -3.81
    2   12   15     -1.99      0.45
    1   12   15      1.33     -1.46
    0   12   15     -1.47      1.54
   12   12   15      0.03      4.62
   12   13   15     -0.82     -4.32
   11   13   15      2.93      3.17
   10   13   15      0.39     -1.88
    9   13   15     -1.74      1.65
    8   13   15     -0.94     -2.45
    7   13   15     -1.55      1.42
    6   13   15     -3.06     -3.94
    5   13   15     -1.27      1.80
    4   13   15      1.16     -3.48
    3   13   15     -1.83     -1.79
    2   13   15      3.35     -0.81
    1   13   15     -1.10     -0.21
    0   13   15      1.23      1.06
   13   13   15      0.01      3.11
   13   14   15     -1.77     -3.49
   12   14   15      2.74      2.44
   11   14   15      0.54     -2.04
   10   14   15      0.81      2.24
    9   14   15      2.58     -2.30
    8   14   15     -2.28      1.98
    7   14   15     -0.20     -3.05
    6   14   15     -0.50      1.90
    5   14   15     -0.07     -0.58
    4   14   15     -1.71     -1.58
    3   14   15      2.08      0.62
    2   14   15     -1.20     -2.48
    1   14   15      0.81      0.70
    0   14   15     -0.10     -0.08
   14   14   15      0.01      2.99
   14   15   15     -0.99     -2.26
   13   15   15      1.12      2.83
   12   15   15     -1.67     -2.13
   11   15   15      0.50      2.61
   10   15   15      3.97     -2.22
    9   15   15     -2.33      2.48
    8   15   15      1.86     -2.26
    7   15   15     -0.06      0.43
    6   15   15      0.79      1.46
    5   15   15      0.76     -0.88
    4   15   15      1.94      3.96
    3   15   15     -0.51     -2.23
    2   15   15      0.11      0.83
    1   15   15     -0.43     -0.29
    0   15   15     -0.35     -0.35
   15   15   15      0.01      2.18
   14   16   15      0.57      2.39
   13   16   15     -1.21     -1.93
   12   16   15     -0.47      3.07
   11   16   15      1.85     -1.88
   10   16   15     -1.95      2.75
    9   16   15      2.29     -1.11
    8   16   15     -0.96     -0.17
    7   16   15     -0.80      1.92
    6   16   15      2.18     -2.48
    5   16   15      1.75      4.95
    4   16   15      0.81     -1.07
    3   16   15      1.79      1.95
    2   16   15      0.33      0.75
    1   16   15     -0.05     -0.40
    0   16   15     -0.91      0.78
   13   17   15      0.24      2.27
   12   17   15      0.36     -1.48
   11   17   15     -1.58      2.20
   10   17   15      1.53      0.19
    9   17   15      0.08      0.52
    8   17   15     -2.11      2.87
    7   17   15      1.15     -2.50
    6   17   15     -0.71      3.38
    5   17   15      0.70     -1.88
    4   17   15      1.96      1.86
    3   17   15      0.29      1.17
    2   17   15      1.53     -1.05
    1   17   15      0.07      1.10
    0   17   15      0.80      0.92
   12   18   15     -0.72      0.48
   11   18   15      0.06      0.55
   10   18   15      0.56      0.22
    9   18   15     -1.57      3.26
    8   18   15      1.80     -0.29
    7   18   15     -2.16      3.12
    6   18   15     -0.19     -1.22
    5   18   15      0.55      0.75
    4   18   15     -0.77     -0.04
    3   18   15      0.59     -1.00
    2   18   15      0.41      0.52
    1   18   15      1.40      0.08
    0   18   15      0.16     -0.01
   10   19   15     -1.81      1.99
    9   19   15      2.30      0.18
    8   19   15     -1.86      2.85
    7   19   15      0.37      0.74
    6   19   15     -0.17      0.97
    5   19   15     -1.09     -0.55
    4   19   15     -0.48      0.32
    3   19   15      0.18     -0.12
    2   19   15     -0.56     -0.05
    1   19   15     -0.02     -0.35
    0   19   15      0.40      0.45
    8   20   15      1.39      0.22
    7   20   15     -0.76      1.28
    6   20   15     -0.70     -0.23
    5   20   15     -0.02      1.36
    4   20   15      0.08     -0.63
    3   20   15     -1.32      1.27
    2   20   15      0.04      0.19
    1   20   15     -0.89     -0.06
    0   20   15     -0.70      0.78
    6   21   15     -0.20      1.23
    5   21   15     -0.37     -0.83
    4   21   15     -0.24      1.41
    3   21   15      0.26      0.66
    2   21   15     -0.81      0.48
    1   21   15     -0.89      1.12
    0   21   15     -0.90     -0.88
    0    0   16      3.86     -0.07
    0    1   16      0.06     -0.97
    1    1   16      2.62     -0.06
    1    2   16     -1.22     -1.80
    0    2   16      1.73      0.00
    2    2   16      1.37      0.03
    2    3   16      0.06     -0.51
    1    3   16      0.92      1.03
    0    3   16     -0.05     -3.72
    3    3   16      1.46      0.14
    3    4   16      2.69      1.28
    2    4   16      1.37      1.76
    1    4   16      0.17     -1.60
    0    4   16      0.61      0.02
    4    4   16      0.31      0.10
    4    5   16      3.11      2.34
    3    5   16      0.94     -0.72
    2    5   16      1.40      1.39
    1    5   16      1.15      2.10
    0    5   16     -0.01     -1.86
    5    5   16     -1.30      0.04
    5    6   16      2.21      3.12
    4    6   16     -0.19     -3.25
    3    6   16      1.10      2.55
    2    6   16      1.43      1.93
    1    6   16      0.35     -1.11
    0    6   16      0.90     -0.14
    6    6   16     -1.43      0.10
    6    7   16      0.48      2.45
    5    7   16     -0.57     -3.36
    4    7   16     -0.07      3.01
    3    7   16      0.76      0.54
    2    7   16     -0.03     -0.85
    1    7   16      0.86      3.15
    0    7   16     -0.02     -0.47
    7    7   16     -1.80      0.11
    7    8   16     -1.66      1.02
    6    8   16     -1.31     -2.41
    5    8   16     -0.61      2.45
    4    8   16     -0.05     -0.60
    3    8   16     -1.14     -1.71
    2    8   16      0.54      3.45
    1    8   16     -0.43      1.51
    0    8   16      0.42     -0.18
    8    8   16     -1.35     -0.04
    8    9   16     -1.22     -0.02
    7    9   16     -1.71      0.26
    6    9   16     -0.73      2.46
    5    9   16     -0.56     -1.85
    4    9   16     -1.22     -0.84
    3    9   16     -0.05      0.61
    2    9   16     -1.68     -0.51
    1    9   16      0.41      0.72
    0    9   16      0.01      5.36
    9    9   16      0.03     -0.14
    9   10   16     -0.84     -1.49
    8   10   16     -0.94      2.33
    7   10   16     -0.35      3.08
    6   10   16     -1.53     -1.69
    5   10   16     -0.63      3.75
    4   10   16      0.24     -1.79
    3   10   16     -1.94     -0.74
    2   10   16      0.77     -1.86
    1   10   16     -1.20      2.36
    0   10   16      0.31      0.05
   10   10   16     -1.94     -0.15
   10   11   16     -1.99     -2.31
    9   11   16     -1.48      1.53
    8   11   16     -0.26      1.18
    7   11   16     -2.04     -1.74
    6   11   16     -1.02      8.02
    5   11   16     -0.43     -3.21
    4   11   16     -1.78      4.05
    3   11   16      1.60     -2.06
    2   11   16     -1.86     -0.15
    1   11   16      1.53     -2.10
    0   11   16      0.08      0.36
   11   11   16     -3.39     -0.16
   11   12   16      0.25     -1.16
   10   12   16     -1.88      0.53
    9   12   16     -1.21     -0.48
    8   12   16     -0.92     -3.65
    7   12   16     -0.38      8.01
    6   12   16     -1.67     -4.92
    5   12   16     -2.82      7.47
    4   12   16      1.27     -1.33
    3   12   16     -3.07      2.23
    2   12   16      3.08     -1.63
    1   12   16     -0.71     -0.80
    0   12   16      2.34      0.18
   12   12   16     -0.45     -0.09
   12   13   16      2.86      0.66
   11   13   16      0.28      0.14
   10   13   16     -1.36      1.38
    9   13   16     -0.27     -4.34
    8   13   16      0.65      6.45
    7   13   16     -0.45     -6.55
    6   13   16     -1.78      7.51
    5   13   16      0.74     -1.80
    4   13   16     -4.46      3.05
    3   13   16      3.63      0.13
    2   13   16     -2.56      1.72
    1   13   16      2.74     -1.07
    0   13   16     -0.02      0.16
   13   13   16      0.84      0.02
   13   14   16      1.99      1.48
   12   14   16      1.34     -1.14
   11   14   16     -0.17      3.87
   10   14   16      0.08     -3.12
    9   14   16     -1.01      6.35
    8   14   16     -0.37     -6.34
    7   14   16      0.47      6.32
    6   14   16      1.60     -2.15
    5   14   16     -3.49      2.33
    4   14   16      4.35      0.59
    3   14   16     -3.76      2.57
    2   14   16      3.13     -1.13
    1   14   16     -0.49      2.88
    0   14   16      1.00      0.15
   14   14   16     -0.06      0.03
   14   15   16      1.60      1.29
   13   15   16      0.16     -2.44
   12   15   16      0.48      3.80
   11   15   16      1.40     -2.34
   10   15   16     -1.77      6.01
    9   15   16     -1.80     -4.25
    8   15   16     -0.67      4.90
    7   15   16      0.68     -2.28
    6   15   16     -2.07      2.46
    5   15   16      4.20      0.66
    4   15   16     -2.86      2.22
    3   15   16      4.21     -1.38
    2   15   16     -0.50      4.02
    1   15   16      0.72     -1.06
    0   15   16      0.02      2.59
   13   16   16      0.48      2.23
   12   16   16      0.93     -2.10
   11   16   16     -0.54      3.56
   10   16   16     -0.22     -2.18
    9   16   16     -1.48      3.58
    8   16   16     -1.77     -2.39
    7   16   16     -2.00      2.14
    6   16   16      2.34     -0.01
    5   16   16     -2.47      3.19
    4   16   16      3.38     -1.09
    3   16   16     -0.34      3.80
    2   16   16      1.32     -1.36
    1   16   16      0.67      1.01
    0   16   16      1.08     -0.01
   12   17   16     -0.87      0.69
   11   17   16      0.79     -0.95
   10   17   16      0.03      1.89
    9   17   16     -1.85     -2.31
    8   17   16     -1.15      1.77
    7   17   16      0.52     -1.73
    6   17   16     -2.01      3.05
    5   17   16      1.84     -0.10
    4   17   16     -1.04      3.89
    3   17   16      0.69     -0.57
    2   17   16      0.08      0.37
    1   17   16      1.49      0.80
    0   17   16     -0.04     -2.65
   10   18   16     -1.07     -1.95
    9   18   16      0.65      1.54
    8   18   16     -0.93     -2.80
    7   18   16     -0.93      1.76
    6   18   16      2.15     -0.30
    5   18   16     -1.11      2.37
    4   18   16      0.68      1.15
    3   18   16     -0.87      0.66
    2   18   16      0.22      1.76
    1   18   16     -0.67     -2.42
    0   18   16      2.16     -0.06
    9   19   16     -1.42     -2.31
    8   19   16     -0.27      1.08
    7   19   16      1.63     -0.91
    6   19   16     -0.70     -0.02
    5   19   16      2.17      1.46
    4   19   16     -0.85     -0.02
    3   19   16      0.27      1.60
    2   19   16     -0.64     -1.18
    1   19   16      0.70      1.12
    0   19   16     -0.05     -1.12
    6   20   16      2.23      0.60
    5   20   16     -0.37     -0.99
    4   20   16      1.22      0.66
    3   20   16      0.17     -0.86
    2   20   16      0.15      0.66
    1   20   16      0.16     -0.55
    0   20   16      0.43     -0.06
    1   21   16      0.47      0.38
    0   21   16      0.06     -0.74
    0    1   17      1.82     -1.90
    1    1   17     -0.07     -3.85
    1    2   17      0.67     -4.19
    0    2   17     -3.14     -3.10
    2    2   17      0.06     -3.65
    2    3   17     -0.48     -3.55
    1    3   17     -0.98     -4.12
    0    3   17      1.87     -2.00
    3    3   17      0.14     -1.02
    3    4   17     -1.13     -3.44
    2    4   17      1.79     -3.29
    1    4   17      0.41     -2.08
    0    4   17     -3.37     -3.41
    4    4   17      0.02     -1.32
    4    5   17     -1.74     -5.07
    3    5   17      2.72     -3.28
    2    5   17     -0.10     -1.01
    1    5   17     -0.66     -5.29
    0    5   17      3.15     -3.21
    5    5   17      0.01     -1.75
    5    6   17     -1.75     -4.43
    4    6   17      0.83     -3.26
    3    6   17     -1.91     -0.18
    2    6   17      0.28     -4.46
    1    6   17      4.30     -2.38
    0    6   17     -3.31     -3.22
    6    6   17      0.04      0.12
    6    7   17      0.07     -2.43
    5    7   17     -1.10     -1.68
    4    7   17     -3.40     -0.55
    3    7   17     -1.54     -3.71
    2    7   17      0.79      1.07
    1    7   17     -2.23     -1.24
    0    7   17      4.39     -4.38
    7    7   17     -0.03     -0.10
    7    8   17      1.67     -0.62
    6    8   17     -1.02     -0.68
    5    8   17     -0.85     -0.62
    4    8   17     -1.54     -3.17
    3    8   17     -3.32      0.43
    2    8   17     -3.46     -0.24
    1    8   17      0.57     -0.51
    0    8   17     -0.24     -0.27
    8    8   17     -0.05     -1.84
    8    9   17      0.68      2.90
    7    9   17     -1.82     -0.69
    6    9   17      1.56     -0.24
    5    9   17      1.53     -0.50
    4    9   17     -2.13     -1.01
    3    9   17     -1.62     -1.78
    2    9   17     -3.27     -0.42
    1    9   17     -3.12      0.95
    0    9   17     -1.64      1.67
    9    9   17      0.00     -2.59
    9   10   17      0.02      6.31
    8   10   17     -2.96     -0.25
    7   10   17     -1.01      0.08
    6   10   17      1.88      1.52
    5   10   17     -0.75     -0.40
    4   10   17      2.83     -0.26
    3   10   17     -1.06     -1.27
    2   10   17     -2.88     -0.68
    1   10   17     -2.89      0.92
    0   10   17     -1.73     -1.79
   10   10   17      0.00     -3.53
   10   11   17      0.78      6.76
    9   11   17     -0.42     -0.08
    8   11   17     -1.95      1.20
    7   11   17      0.12      2.19
    6   11   17     -3.57     -0.86
    5   11   17      3.84      1.29
    4   11   17      0.37      0.36
    3   11   17     -0.13     -0.56
    2   11   17      0.97     -1.15
    1   11   17     -2.69     -0.15
    0   11   17     -1.34      1.09
   11   11   17      0.00     -4.64
   11   12   17     -0.17      5.69
   10   12   17      1.62     -1.30
    9   12   17      0.68      2.35
    8   12   17      2.15      3.33
    7   12   17     -3.64     -0.24
    6   12   17      2.39      0.52
    5   12   17     -1.59      0.31
    4   12   17      0.46      0.34
    3   12   17      2.55     -1.29
    2   12   17     -1.61      1.31
    1   12   17      0.96     -1.98
    0   12   17      0.00      0.24
   12   12   17      0.02     -4.11
   12   13   17     -1.30      4.72
   11   13   17      0.32     -2.44
   10   13   17     -0.39      2.57
    9   13   17      3.18      2.69
    8   13   17      0.05      2.19
    7   13   17      2.58      1.48
    6   13   17     -1.32      0.47
    5   13   17      0.12     -0.49
    4   13   17      0.95     -1.93
    3   13   17     -0.94      2.06
    2   13   17      1.43     -4.56
    1   13   17      0.65      1.73
    0   13   17      1.23     -1.13
   13   13   17     -0.01     -2.13
   13   14   17     -0.55      2.84
   12   14   17      0.53     -2.00
   11   14   17     -2.21      2.63
   10   14   17     -0.03     -0.08
    9   14   17      0.37      2.56
    8   14   17      2.15      2.45
    7   14   17      0.70      3.22
    6   14   17     -0.19      0.22
    5   14   17      0.30     -2.40
    4   14   17     -0.45      1.29
    3   14   17      0.08     -5.56
    2   14   17      1.94      1.40
    1   14   17     -0.06     -3.31
    0   14   17      0.55      0.43
   14   14   17     -0.05     -1.05
   13   15   17      1.11     -1.37
   12   15   17     -0.49      2.39
   11   15   17     -0.76     -1.38
   10   15   17     -0.95      1.42
    9   15   17     -0.22      0.71
    8   15   17      0.95      3.54
    7   15   17     -0.32      1.78
    6   15   17     -0.19      0.28
    5   15   17     -0.79      0.99
    4   15   17     -0.86     -4.95
    3   15   17      1.78      1.13
    2   15   17     -0.34     -4.53
    1   15   17      1.74     -1.73
    0   15   17      1.66     -1.31
   12   16   17      0.38     -1.22
   11   16   17     -0.09      1.33
   10   16   17     -0.97     -0.36
    9   16   17     -0.38      0.94
    8   16   17      0.14      0.82
    7   16   17     -0.19      1.87
    6   16   17     -0.95      1.56
    5   16   17     -1.48     -2.11
    4   16   17     -0.15      1.07
    3   16   17     -0.37     -3.57
    2   16   17      1.36     -0.59
    1   16   17      2.11     -2.57
    0   16   17     -1.28     -1.34
   10   17   17     -1.21     -0.11
    9   17   17      0.28      0.03
    8   17   17     -0.28      0.03
    7   17   17     -0.12      0.63
    6   17   17     -0.69     -0.11
    5   17   17     -1.19      1.13
    4   17   17     -0.24     -2.00
    3   17   17     -1.04      1.54
    2   17   17      1.49     -1.90
    1   17   17     -0.56     -0.27
    0   17   17      3.15     -3.05
    8   18   17     -0.04     -0.21
    7   18   17      0.69     -0.87
    6   18   17     -1.02      0.90
    5   18   17      0.36     -1.19
    4   18   17     -1.46      1.62
    3   18   17      0.13     -1.90
    2   18   17     -1.35      1.89
    1   18   17      1.99     -2.09
    0   18   17      0.01      0.00
    9   18   17     -1.22     -1.16
    6   19   17      0.96     -1.27
    5   19   17     -0.84      1.52
    4   19   17     -0.18     -1.90
    3   19   17     -0.67      1.27
    2   19   17     -0.22     -1.92
    1   19   17     -0.96      0.45
    0   19   17      2.05     -2.11
    2   20   17     -0.88     -0.47
    1   20   17      1.32     -1.84
    0   20   17     -1.14     -1.12
    0    1   18      6.57      0.07
    1    1   18     -0.86     -0.15
    1    2   18      6.03     -1.37
    0    2   18      0.02      4.53
    2    2   18     -1.76     -0.20
    2    3   18      6.27     -3.87
    1    3   18     -0.47      3.15
    0    3   18      3.56     -0.10
    3    3   18     -2.14     -0.04
    3    4   18      5.00     -3.18
    2    4   18     -0.22      0.39
    1    4   18      2.83     -5.22
    0    4   18     -0.02     -0.84
    4    4   18     -3.50     -0.10
    4    5   18     -0.05     -0.11
    3    5   18     -1.72      1.93
    2    5   18      2.33     -4.11
    1    5   18      1.61     -4.73
    0    5   18      1.42      0.04
    5    5   18     -4.28     -0.36
    5    6   18     -5.34      0.35
    4    6   18     -3.52      1.67
    3    6   18     -1.46      1.64
    2    6   18      0.92     -0.69
    1    6   18      1.33     -0.33
    0    6   18     -0.09     -7.10
    6    6   18     -1.78     -0.28
    6    7   18     -7.08      0.06
    5    7   18     -2.38     -2.25
    4    7   18     -5.19      0.92
    3    7   18     -2.14      2.03
    2    7   18     -1.79      2.98
    1    7   18      0.96     -1.97
    0    7   18      2.13     -0.01
    7    7   18      1.77     -0.04
    7    8   18     -7.59      1.09
    6    8   18     -0.49     -2.46
    5    8   18     -5.20     -1.28
    4    8   18     -3.10     -1.14
    3    8   18     -4.79     -0.10
    2    8   18     -0.78      2.24
    1    8   18     -0.30      1.09
    0    8   18     -0.09     -0.32
    8    8   18      2.47     -0.01
    8    9   18     -8.35      0.68
    7    9   18     -0.93     -0.66
    6    9   18     -4.28      1.05
    5    9   18     -3.10     -0.99
    4    9   18     -4.17     -4.13
    3    9   18     -1.32      1.04
    2    9   18     -4.00     -1.53
    1    9   18     -0.02      0.53
    0    9   18      0.33     -0.05
    9    9   18      2.50     -0.04
    9   10   18     -5.93     -0.45
    8   10   18     -0.77     -0.85
    7   10   18     -3.72      0.76
    6   10   18     -4.00      1.48
    5   10   18     -3.41     -1.67
    4   10   18     -1.18      1.04
    3   10   18     -4.46     -4.20
    2   10   18      0.22     -0.06
    1   10   18     -0.80     -0.57
    0   10   18     -0.06     -1.97
   10   10   18      4.48     -0.06
   10   11   18     -2.05     -0.05
    9   11   18      1.80      0.23
    8   11   18     -1.86     -1.79
    7   11   18     -2.88      0.50
    6   11   18     -2.64     -0.50
    5   11   18     -1.53      3.24
    4   11   18     -3.83     -1.97
    3   11   18      0.07      0.00
    2   11   18     -1.57     -0.64
    1   11   18     -1.43     -2.03
    0   11   18      2.42     -0.42
   11   11   18      4.07     -0.02
   11   12   18     -1.69      0.33
   10   12   18      2.72      2.35
    9   12   18     -0.68     -0.68
    8   12   18     -0.40      0.76
    7   12   18     -0.71     -2.68
    6   12   18     -0.03      2.46
    5   12   18     -2.41     -0.02
    4   12   18     -0.46      2.18
    3   12   18     -1.05      0.42
    2   12   18     -3.41     -0.85
    1   12   18      2.27      0.77
    0   12   18      0.04     -0.29
   12   12   18      1.65      0.12
   12   13   18     -1.74     -0.23
   11   13   18      2.11      1.55
   10   13   18     -1.44      0.54
    9   13   18      0.96      3.34
    8   13   18     -0.24     -1.45
    7   13   18      0.95      1.73
    6   13   18      0.04     -1.69
    5   13   18      0.34      3.52
    4   13   18      0.47      0.89
    3   13   18     -3.01      1.49
    2   13   18      1.99      0.71
    1   13   18     -3.89      1.34
    0   13   18      2.07     -1.00
   13   13   18      2.17      0.15
   12   14   18      2.90     -0.18
   11   14   18     -1.55     -0.95
   10   14   18      2.40      2.57
    9   14   18     -0.24      0.27
    8   14   18      0.58      3.86
    7   14   18      0.84     -1.84
    6   14   18      0.87      3.50
    5   14   18      2.12     -0.76
    4   14   18     -1.52      4.68
    3   14   18      2.66     -0.13
    2   14   18     -3.39      2.07
    1   14   18      1.86     -0.77
    0   14   18      0.02      2.08
   11   15   18      3.32      0.51
   10   15   18      0.38     -1.46
    9   15   18      1.72      3.91
    8   15   18      1.28     -0.70
    7   15   18      0.47      4.69
    6   15   18      2.39     -2.16
    5   15   18     -0.57      5.19
    4   15   18      2.83     -0.60
    3   15   18     -1.23      4.30
    2   15   18      3.58     -0.65
    1   15   18     -0.90      1.51
    0   15   18      1.82     -0.31
   10   16   18      2.22      1.88
    9   16   18      2.12     -1.44
    8   16   18      0.94      5.02
    7   16   18      1.64     -1.67
    6   16   18     -0.17      4.06
    5   16   18      2.72     -1.70
    4   16   18     -0.89      4.24
    3   16   18      3.99      0.66
    2   16   18      0.14      2.70
    1   16   18      3.81     -0.01
    0   16   18      0.04      1.67
    8   17   18      1.61     -0.99
    7   17   18     -0.05      3.61
    6   17   18      1.51     -1.76
    5   17   18     -0.99      1.67
    4   17   18      3.33     -0.17
    3   17   18     -0.71      2.41
    2   17   18      4.83      0.96
    1   17   18      0.72      3.40
    0   17   18      3.32      0.00
    6   18   18     -1.11      1.12
    5   18   18      1.87     -1.33
    4   18   18     -1.37      0.28
    3   18   18      3.58      0.25
    2   18   18      0.02      2.73
    1   18   18      2.91     -0.12
    0   18   18      0.12      4.14
    1   19   18      0.60      2.43
    0   19   18      1.28     -0.05
    0    1   19      2.06      2.32
    1    1   19     -0.08     -1.52
    1    2   19     -0.15      0.99
    0    2   19      0.10     -0.08
    2    2   19      0.04     -9.12
    2    3   19     -1.26     -5.17
    1    3   19     -0.80     -5.94
    0    3   19     -3.44     -3.40
    3    3   19      0.12    -13.01
    3    4   19     -0.66     -4.54
    2    4   19      1.98     -9.55
    1    4   19     -4.63     -7.94
    0    4   19      1.88     -1.76
    4    4   19     -0.01     -7.16
    4    5   19     -1.00     -0.51
    3    5   19      4.43     -5.80
    2    5   19     -1.66     -6.51
    1    5   19      3.25     -3.92
    0    5   19     -6.71     -6.83
    5    5   19     -0.12     -3.22
    5    6   19     -1.90     -3.59
    4    6   19      3.12     -3.44
    3    6   19     -1.24     -2.16
    2    6   19      5.09     -4.21
    1    6   19     -1.39     -5.45
    0    6   19      2.89     -2.96
    6    6   19     -0.08     -3.13
    6    7   19     -1.02     -5.61
    5    7   19      1.55     -4.15
    4    7   19     -2.91     -1.86
    3    7   19      1.89     -4.99
    2    7   19      0.39     -2.66
    1    7   19      3.18     -4.10
    0    7   19     -1.74     -1.73
    7    7   19     -0.12      2.22
    7    8   19      0.31     -0.89
    6    8   19      1.58     -0.46
    5    8   19     -1.09     -1.81
    4    8   19     -0.94     -5.53
    3    8   19     -1.19     -0.44
    2    8   19      0.21     -5.23
    1    8   19     -0.28     -3.39
    0    8   19      3.41     -3.49
    8    8   19     -0.16      6.54
    8    9   19      0.61      1.14
    7    9   19      1.26      3.73
    6    9   19      1.58      1.67
    5    9   19     -0.31     -3.30
    4    9   19      0.31      0.64
    3    9   19     -2.39     -3.57
    2    9   19     -0.84     -2.54
    1    9   19      2.15     -3.33
    0    9   19     -3.22     -3.00
    9    9   19     -0.04      4.25
    9   10   19      0.60      0.83
    8   10   19      1.06      3.35
    7   10   19      2.01      2.87
    6   10   19     -0.13      0.35
    5   10   19      2.57      1.76
    4   10   19     -1.65     -1.73
    3   10   19     -0.01     -0.29
    2   10   19      0.43     -0.01
    1   10   19     -1.18     -2.85
    0   10   19      3.29     -3.36
   10   10   19      0.05      3.67
   10   11   19      0.25      3.61
    9   11   19      1.18      3.83
    8   11   19      2.09      1.25
    7   11   19     -0.53      2.12
    6   11   19      2.27      2.76
    5   11   19     -0.86     -0.31
    4   11   19      1.54      0.66
    3   11   19     -0.16      1.15
    2   11   19      0.17     -0.09
    1   11   19      2.34     -0.10
    0   11   19      0.52      0.89
   11   11   19      0.03      5.03
   11   12   19     -0.22      4.27
   10   12   19      0.84      5.20
    9   12   19      1.55      1.86
    8   12   19     -0.34      2.97
    7   12   19      2.17      2.28
    6   12   19     -1.51      0.99
    5   12   19      1.28      2.14
    4   12   19      0.44     -0.39
    3   12   19      1.30      0.98
    2   12   19      0.05      1.71
    1   12   19      2.44      2.87
    0   12   19      0.40     -0.55
   12   12   19     -0.01      2.53
   12   13   19     -0.29      0.82
   11   13   19      0.66      2.80
   10   13   19      0.44      2.58
    9   13   19     -0.54      3.53
    8   13   19      2.41      1.80
    7   13   19     -1.57      0.75
    6   13   19      1.17      3.59
    5   13   19     -0.64     -0.14
    4   13   19      1.77      2.07
    3   13   19      0.08     -0.16
    2   13   19      2.41      2.27
    1   13   19     -0.81      0.55
    0   13   19      3.99      3.86
   11   14   19     -0.02      0.95
   10   14   19     -0.70      2.14
    9   14   19      1.46      1.91
    8   14   19     -1.38     -0.11
    7   14   19      2.33      3.16
    6   14   19     -1.55     -0.19
    5   14   19      1.36      4.15
    4   14   19     -0.40     -0.18
    3   14   19      2.46      1.69
    2   14   19     -0.52     -0.54
    1   14   19      2.37      3.11
    0   14   19      0.46     -0.20
    9   15   19     -1.63     -0.09
    8   15   19      1.80      2.38
    7   15   19     -0.97     -1.72
    6   15   19      2.01      3.98
    5   15   19     -1.50      0.42
    4   15   19      1.43      3.13
    3   15   19     -0.19     -0.15
    2   15   19      1.16      1.93
    1   15   19      1.03     -2.04
    0   15   19      2.38      1.96
    7   16   19      1.74      2.69
    6   16   19     -0.70     -0.87
    5   16   19      0.72      3.43
    4   16   19     -1.37      0.73
    3   16   19      0.57      1.67
    2   16   19      0.66     -1.75
    1   16   19      0.72      1.96
    0   16   19      2.26     -2.29
    8   16   19     -1.12     -1.47
    5   17   19     -1.06      0.14
    4   17   19     -0.13      1.68
    3   17   19     -0.79     -0.47
    2   17   19      0.32      0.93
    1   17   19      0.90     -2.50
    0   17   19      0.78      0.67
    0    0   20     23.39      0.09
    0    1   20     -0.09     -0.88
    1    1   20     17.11      0.15
    1    2   20     -5.20     -1.38
    0    2   20     12.51     -0.03
    2    2   20      7.67      0.39
    2    3   20     -4.34     -0.69
    1    3   20      5.91      0.62
    0    3   20     -0.01     -2.62
    3    3   20      4.06      0.56
    3    4   20      0.56     -0.64
    2    4   20      3.78      0.46
    1    4   20     -2.05     -1.53
    0    4   20      3.95     -0.06
    4    4   20     -0.46      0.36
    4    5   20     -1.54     -0.56
    3    5   20      0.51     -1.10
    2    5   20     -1.47     -1.55
    1    5   20      3.59      0.20
    0    5   20      0.15     -1.66
    5    5   20     -8.65      0.10
    5    6   20     -6.34      0.33
    4    6   20     -5.67     -0.70
    3    6   20     -4.69     -1.70
    2    6   20      1.64     -1.23
    1    6   20     -2.69     -2.05
    0    6   20      1.36      0.01
    6    6   20    -10.54      0.22
    6    7   20     -4.26      0.04
    5    7   20     -7.00      0.66
    4    7   20     -8.11      0.00
    3    7   20     -1.53     -0.99
    2    7   20     -5.60     -2.10
    1    7   20     -2.30     -0.42
    0    7   20      0.21     -1.87
    7    7   20     -6.02      0.56
    7    8   20     -1.25     -0.66
    6    8   20     -4.05      0.13
    5    8   20     -5.59     -0.06
    4    8   20     -2.85      0.32
    3    8   20     -5.80     -0.44
    2    8   20     -2.75     -0.63
    1    8   20     -1.76     -1.35
    0    8   20     -7.43     -0.05
    8    8   20     -4.31      0.56
    8    9   20     -1.95     -0.22
    7    9   20     -3.73      0.41
    6    9   20     -1.59     -0.94
    5    9   20     -3.09     -0.83
    4    9   20     -3.56      0.30
    3    9   20     -2.69     -0.46
    2    9   20     -0.83     -0.47
    1    9   20     -5.45     -0.24
    0    9   20      0.12     -0.33
    9    9   20     -3.89      0.27
    9   10   20     -0.57     -0.11
    8   10   20     -3.92      1.22
    7   10   20     -0.28      0.45
    6   10   20     -3.81     -1.15
    5   10   20     -0.83     -0.09
    4   10   20     -4.43     -1.75
    3   10   20     -1.31      0.37
    2   10   20     -2.41     -0.51
    1   10   20      1.18     -0.18
    0   10   20     -3.23      0.04
   10   10   20     -1.76      0.11
   10   11   20      2.06     -0.32
    9   11   20     -1.81      0.07
    8   11   20      1.08      0.83
    7   11   20     -3.81      0.18
    6   11   20      0.84      0.97
    5   11   20     -4.32     -2.58
    4   11   20     -1.57      0.22
    3   11   20     -3.45     -1.57
    2   11   20     -0.34     -0.16
    1   11   20     -0.60     -0.32
    0   11   20     -0.09      0.03
   11   11   20     -1.38      0.06
   11   12   20      1.90      0.25
   10   12   20     -0.64     -0.84
    9   12   20      2.46     -0.18
    8   12   20     -2.06     -0.46
    7   12   20      1.48      1.34
    6   12   20     -2.95     -1.19
    5   12   20     -0.17      0.22
    4   12   20     -2.76     -2.68
    3   12   20     -2.49     -0.42
    2   12   20     -1.37     -1.24
    1   12   20      0.47     -0.26
    0   12   20      0.44      0.07
   10   13   20      1.59      0.49
    9   13   20     -0.21     -1.17
    8   13   20      2.10      0.10
    7   13   20     -1.90     -0.75
    6   13   20      0.14      0.41
    5   13   20     -0.65     -1.91
    4   13   20     -1.66     -0.80
    3   13   20     -0.81     -1.91
    2   13   20     -0.91     -0.69
    1   13   20     -0.46     -0.82
    0   13   20     -0.13     -0.43
    8   14   20     -0.45     -1.07
    7   14   20      0.26     -0.33
    6   14   20     -0.27     -1.09
    5   14   20     -0.85     -0.61
    4   14   20      1.58     -1.43
    3   14   20     -1.26     -1.08
    2   14   20     -0.85     -0.84
    1   14   20      0.09     -0.45
    0   14   20     -0.32      0.08
    6   15   20     -0.98     -0.58
    5   15   20      1.66     -1.07
    4   15   20     -0.36     -1.01
    3   15   20      0.83     -0.34
    2   15   20     -0.42     -0.42
    1   15   20     -0.63      0.00
    0   15   20     -0.10      0.01
    7   15   20      0.30     -1.04
    4   16   20      1.42     -0.49
    3   16   20      0.19     -0.57
    2   16   20     -0.43      0.22
    1   16   20     -0.62      0.10
    0   16   20      0.43      0.00
    0    1   21     -0.14      0.26
    1    1   21      0.09     -3.42
    1    2   21      0.94     -1.78
    0    2   21     -1.63     -1.67
    2    2   21      0.41     -7.26
    2    3   21      0.90     -5.15
    1    3   21      0.21     -5.25
    0    3   21      4.63     -4.68
    3    3   21      0.24     -8.34
    3    4   21     -0.12     -5.99
    2    4   21     -1.87     -6.58
    1    4   21      4.52     -8.29
    0    4   21     -2.86     -2.91
    4    4   21     -0.30     -6.13
    4    5   21      0.41     -5.05
    3    5   21     -4.19     -4.89
    2    5   21      1.24     -7.35
    1    5   21     -4.37     -4.49
    0    5   21      7.84     -7.84
    5    5   21     -0.12     -3.19
    5    6   21      1.64     -5.68
    4    6   21     -2.73     -3.14
    3    6   21      0.92     -4.87
    2    6   21     -5.43     -4.10
    1    6   21      2.65     -6.36
    0    6   21     -4.82     -4.74
    6    6   21      0.25     -2.13
    6    7   21      0.99     -7.01
    5    7   21     -1.24     -2.41
    4    7   21      2.26     -4.53
    3    7   21     -1.69     -4.56
    2    7   21      0.29     -3.35
    1    7   21     -4.16     -4.14
    0    7   21      2.85     -2.77
    7    7   21     -0.06     -1.17
    7    8   21     -0.38     -4.25
    6    8   21     -1.79     -1.10
    5    8   21      0.04     -4.26
    4    8   21      0.84     -3.93
    3    8   21      0.57     -2.34
    2    8   21      0.05     -4.56
    1    8   21      0.85     -2.74
    0    8   21     -3.25     -3.26
    8    8   21     -0.39      2.18
    8    9   21     -0.99      0.13
    7    9   21     -1.13      1.83
    6    9   21     -2.54     -2.12
    5    9   21      0.07     -1.28
    4    9   21     -1.77     -1.26
    3    9   21      2.18     -3.22
    2    9   21      0.23     -2.43
    1    9   21     -1.56     -2.60
    0    9   21      2.50     -2.41
    9    9   21     -0.22      3.38
    9   10   21     -1.52      0.07
    8   10   21     -0.11      3.43
    7   10   21     -2.81     -0.11
    6   10   21      0.67      1.11
    5   10   21     -3.31     -0.32
    4   10   21      0.98     -0.52
    3   10   21     -1.16     -0.72
    2   10   21     -0.80     -0.42
    1   10   21      1.13     -2.45
    0   10   21     -2.51     -2.57
   10   10   21     -0.06      0.90
   10   11   21     -1.46     -1.20
    9   11   21     -0.07      2.01
    8   11   21     -3.05     -0.38
    7   11   21      0.92      2.83
    6   11   21     -2.14     -0.25
    5   11   21      0.88      0.42
    4   11   21     -1.48      0.18
    3   11   21     -0.83      0.91
    2   11   21      0.21     -1.16
    1   11   21     -3.00     -0.10
    0   11   21      0.67     -0.68
    8   12   21     -0.21      3.07
    7   12   21     -1.54      0.15
    6   12   21      0.61      1.49
    5   12   21     -0.12     -0.22
    4   12   21     -0.38      0.11
    3   12   21     -0.21     -0.74
    2   12   21     -1.78      1.53
    1   12   21      0.01     -0.28
    0   12   21     -1.44     -1.35
    9   12   21     -2.41     -1.15
    7   13   21     -0.70      2.70
    6   13   21      0.61      0.37
    5   13   21     -0.06      0.43
    4   13   21     -0.12     -1.06
    3   13   21     -0.22      0.70
    2   13   21      0.02     -0.95
    1   13   21     -0.90      0.26
    0   13   21     -0.74      0.56
    5   14   21      0.49     -0.54
    4   14   21      0.80      0.11
    3   14   21     -0.46     -1.59
    2   14   21      0.78      0.13
    1   14   21     -0.42      0.63
    0   14   21     -0.39     -0.22
    1   15   21      0.91     -0.70
    0   15   21     -1.16      0.95
    0    1   22      9.82     -0.01
    1    1   22     -0.56     -0.35
    1    2   22      8.76      0.33
    0    2   22      0.02     -0.86
    2    2   22     -2.06     -0.63
    2    3   22      7.02      1.63
    1    3   22     -1.01     -0.88
    0    3   22      5.98      0.04
    3    3   22     -4.60     -0.68
    3    4   22      3.87      2.03
    2    4   22     -3.03     -0.24
    1    4   22      3.90      1.97
    0    4   22     -0.01      1.15
    4    4   22     -6.67     -1.68
    4    5   22      0.26      0.29
    3    5   22     -5.50     -0.84
    2    5   22      2.02      1.99
    1    5   22     -0.73      2.75
    0    5   22      1.90      0.00
    5    5   22     -5.57     -2.89
    5    6   22     -1.81     -0.93
    4    6   22     -5.63     -1.96
    3    6   22     -0.27     -1.00
    2    6   22     -2.61      1.34
    1    6   22      1.06     -0.48
    0    6   22     -0.02      3.80
    6    6   22     -3.08     -2.37
    6    7   22     -2.08     -0.14
    5    7   22     -4.30     -0.18
    4    7   22     -1.76     -2.67
    3    7   22     -4.39     -0.33
    2    7   22     -0.83     -2.50
    1    7   22     -0.58      1.06
    0    7   22      1.62     -0.01
    7    7   22     -1.05     -1.04
    7    8   22     -0.81     -0.23
    6    8   22     -2.72      1.91
    5    8   22     -1.69     -1.17
    4    8   22     -5.14      1.33
    3    8   22     -2.78     -2.07
    2    8   22     -1.96     -0.80
    1    8   22     -0.10     -1.24
    0    8   22     -0.11     -1.75
    8    8   22      1.05     -0.56
    8    9   22      0.08     -1.19
    7    9   22     -0.49      0.55
    6    9   22     -0.25     -0.98
    5    9   22     -4.25      2.77
    4    9   22     -2.78     -0.10
    3    9   22     -2.76      0.13
    2    9   22     -3.46      0.30
    1    9   22     -0.43     -2.15
    0    9   22     -0.25      0.07
    9    9   22      1.18     -0.35
    8   10   22      0.35     -0.63
    7   10   22      0.33     -2.10
    6   10   22     -1.69      0.56
    5   10   22     -1.52     -0.15
    4   10   22     -2.31      0.48
    3   10   22     -4.33      1.71
    2   10   22     -0.51     -0.85
    1   10   22     -1.90      0.89
    0   10   22      0.05     -1.32
    7   11   22      0.19     -1.12
    6   11   22     -0.69     -1.29
    5   11   22     -0.77     -0.62
    4   11   22     -3.06      1.08
    3   11   22     -0.85     -0.98
    2   11   22     -2.84      1.03
    1   11   22     -0.98      0.00
    0   11   22     -0.07      0.02
    5   12   22     -1.05     -0.01
    4   12   22     -0.85     -1.16
    3   12   22     -2.43      0.31
    2   12   22     -2.47     -0.37
    1   12   22     -0.29     -0.24
    0   12   22      0.06      0.39
    2   13   22     -0.96     -0.90
    1   13   22     -2.39     -0.32
    0   13   22     -0.09     -0.06
    3   13   22     -2.00     -0.47
    0    1   23     -0.72     -0.81
    1    1   23     -0.08     -2.01
    1    2   23     -0.63     -2.54
    0    2   23      2.05     -2.21
    2    2   23      0.19     -3.51
    2    3   23     -0.51     -4.36
    1    3   23      2.19     -3.86
    0    3   23     -1.91     -1.77
    3    3   23      0.05     -3.70
    3    4   23     -0.55     -4.48
    2    4   23      1.48     -4.86
    1    4   23     -1.57     -2.70
    0    4   23      3.45     -3.46
    4    4   23     -0.51     -3.90
    4    5   23     -0.29     -3.57
    3    5   23      0.81     -5.31
    2    5   23     -1.40     -2.79
    1    5   23      2.40     -4.59
    0    5   23     -2.86     -2.98
    5    5   23     -0.40     -4.04
    5    6   23      0.11     -1.57
    4    6   23      1.32     -4.52
    3    6   23     -0.41     -1.53
    2    6   23      2.08     -5.10
    1    6   23     -3.11     -3.55
    0    6   23      2.98     -2.93
    6    6   23      0.15     -1.71
    6    7   23      0.19      1.54
    5    7   23      1.98     -2.02
    4    7   23      0.43      0.29
    3    7   23      2.32     -3.37
    2    7   23     -1.54     -1.86
    1    7   23      2.85     -2.76
    0    7   23     -4.06     -4.08
    7    7   23      0.07      0.35
    7    8   23      0.02      2.86
    6    8   23      1.55     -0.31
    5    8   23      0.31      1.24
    4    8   23      2.25     -0.92
    3    8   23      0.21      0.25
    2    8   23      3.48     -0.92
    1    8   23     -2.02     -2.64
    0    8   23      2.56     -2.51
    6    9   23     -0.43      1.30
    5    9   23      1.22     -0.16
    4    9   23      0.48      0.04
    3    9   23      2.90      0.58
    2    9   23      0.01     -0.40
    1    9   23      4.23     -1.11
    0    9   23     -0.51     -0.51
    4   10   23      0.73     -0.11
    3   10   23     -0.05      0.11
    2   10   23      3.91     -0.17
    1   10   23      1.24      1.27
    0   10   23      3.56     -3.62
    5   10   23     -0.63     -0.40
    1   11   23      3.37     -1.84
    0   11   23      2.21      2.31
    2   11   23      0.03      1.54
    0    0   24      4.62      0.13
    0    1   24      0.17     -0.58
    1    1   24      3.57      0.13
    1    2   24     -0.81     -0.71
    0    2   24      3.10      0.01
    2    2   24      0.87      0.31
    2    3   24     -1.47     -0.16
    1    3   24      1.19      0.50
    0    3   24      0.04     -0.55
    3    3   24     -1.60      0.57
    3    4   24     -0.48     -0.34
    2    4   24     -0.90      0.18
    1    4   24     -1.21      0.71
    0    4   24      0.75     -0.17
    4    4   24     -1.77      0.46
    4    5   24      1.01     -0.30
    3    5   24     -1.13     -0.63
    2    5   24     -0.68      0.52
    1    5   24     -0.43     -0.65
    0    5   24     -0.05      1.98
    5    5   24     -0.46      0.16
    5    6   24      1.03      0.18
    4    6   24     -0.15     -0.38
    3    6   24      0.73      0.41
    2    6   24     -0.52     -2.04
    1    6   24     -0.35      1.71
    0    6   24     -1.24      0.00
    4    7   24      1.17      0.88
    3    7   24      0.23     -1.97
    2    7   24      0.57      1.17
    1    7   24     -1.37     -1.39
    0    7   24      0.04      0.98
    2    8   24     -0.07     -1.67
    1    8   24      0.58     -0.13
    0    8   24     -1.80     -0.01
    0    1   25     -0.77      0.69
    1    1   25     -0.03     -0.89
    1    2   25     -0.21      2.24
    0    2   25     -0.32     -0.26
    2    2   25      0.09     -0.46
    2    3   25      0.13      1.94
    1    3   25      0.06      0.09
    0    3   25     -0.67      0.66
    0    0    0      0.00      0.00
loop_
  _platon_squeeze_void_nr
  _platon_squeeze_void_average_x
  _platon_squeeze_void_average_y
  _platon_squeeze_void_average_z
  _platon_squeeze_void_volume
  _platon_squeeze_void_count_electrons
  _platon_squeeze_void_content
   1  0.000  0.000 -0.012       453       233 ' '
   2  0.229  0.562  0.000         7         1 ' '
   3  0.500  0.500 -0.017       452       230 ' '
   4  0.562  0.227 -0.002         6         1 ' '
   5  0.062  0.273  0.252         7         1 ' '
   6  0.727  0.938  0.248         6         1 ' '
   7  0.437  0.773  0.498         7         1 ' '
   8  0.773  0.437  0.502         7         2 ' '
   9  0.273  0.062  0.748         7         1 ' '
  10  0.938  0.727  0.752         7         1 ' '
_platon_squeeze_void_probe_radius                  1.20
_platon_squeeze_details
(replace by semicolon in column 1 when used as .sqf)
TITL fp432212 in P43212 #96
CELL   18.9809   18.9809   17.5707     90.00     90.00     90.00
SPGR P43212
Q101 0.981 0.954 0.045 !      14.56 eA-3
Q102 0.438 0.515 0.201 !      13.87 eA-3
Q103 0.575 0.313 0.045 !       9.29 eA-3
C104 0.906 0.831 0.546 !       9.25 eA-3
C105 0.514 0.468 0.272 !       3.33 eA-3
Q106 0.995 1.000 0.755 !       2.72 eA-3
Q107 0.374 0.519 0.206 !       2.27 eA-3
Q108 0.409 0.576 0.269 !       2.14 eA-3
C109 0.499 0.487 0.095 !       1.99 eA-3
C110 0.013 0.046 0.931 !       1.94 eA-3
C111 0.406 0.406 0.499 !       1.81 eA-3
Q112 0.597 0.534 0.048 !       1.72 eA-3
Q113 0.569 0.527 0.928 !       1.64 eA-3
Q114 0.101 0.011 0.799 !       1.59 eA-3
C115 0.854 0.923 0.373 !       1.53 eA-3
Q116 0.974 0.956 0.736 !       1.35 eA-3
C117 0.044 0.954 0.753 !       1.31 eA-3
C118 0.076 0.078-0.002 !       1.08 eA-3
Q119 0.273 0.577 0.000 !       1.07 eA-3
Q120 0.422 0.736 0.493 !       1.06 eA-3
Q121 0.081 0.075 0.864 !       0.98 eA-3
Q122 0.090 0.905 0.938 !       0.96 eA-3
C123 0.102 0.093 0.949 !       0.90 eA-3
Q124 0.421 0.598 0.881 !       0.90 eA-3
C125 0.571 0.497 0.101 !       0.89 eA-3
Q126 0.046 0.022 0.815 !       0.89 eA-3
Q127 0.142 0.827 0.445 !       0.88 eA-3
C128 0.913 0.881 0.496 !       0.88 eA-3
Q129 0.092 0.036 0.007 !       0.88 eA-3
Q130 0.992 0.081 0.825 !       0.88 eA-3
Q131 0.417 0.600 0.408 !       0.88 eA-3
Q132 0.403 0.516 0.158 !       0.87 eA-3
Q133 0.596 0.415 0.589 !       0.84 eA-3
Q134 0.481 0.441 0.235 !       0.83 eA-3
Q135 0.960 0.828 0.388 !       0.83 eA-3
Q136 0.437 0.936 0.589 !       0.83 eA-3
C137 0.061 0.048 0.971 !       0.82 eA-3
Q138 0.109 0.983 0.852 !       0.82 eA-3
Q139 0.620 0.405 0.574 !       0.81 eA-3
Q140 0.077 0.737 0.039 !       0.81 eA-3
C141 0.585 0.547 0.087 !       0.80 eA-3
Q142 0.135 0.019 0.857 !       0.80 eA-3
Q143 0.559 0.580 0.871 !       0.79 eA-3
Q144 0.062 0.049 0.811 !       0.78 eA-3
Q145 0.968 0.810 0.426 !       0.78 eA-3
Q146 0.373 0.520 0.357 !       0.76 eA-3
Q147 0.391 0.485 0.915 !       0.76 eA-3
Q148 0.638 0.494 0.883 !       0.76 eA-3
Q149 0.621 0.512 0.541 !       0.73 eA-3
Q150 0.020 0.141 0.904 !       0.73 eA-3
Q151 0.099 0.966 0.818 !       0.72 eA-3
Q152 0.510 0.452 0.184 !       0.72 eA-3
Q153 0.449 0.562 0.598 !       0.72 eA-3
Q154 0.844 0.844 0.500 !       0.71 eA-3
Q155 0.362 0.857 0.412 !       0.71 eA-3
Q156 0.910 0.813 0.424 !       0.71 eA-3
Q157 0.087 0.046 0.895 !       0.70 eA-3
Q158 0.725 0.796 0.561 !       0.70 eA-3
Q159 0.966 0.034 0.073 !       0.69 eA-3
Q160 0.138 0.548 0.768 !       0.69 eA-3
Q161 0.672 0.688 0.668 !       0.69 eA-3
Q162 0.824 0.719 0.561 !       0.68 eA-3
Q163 0.074 0.984 0.883 !       0.68 eA-3
Q164 0.781 0.404 0.488 !       0.67 eA-3
Q165 0.917 0.517 0.221 !       0.67 eA-3
Q166 0.576 0.372 0.787 !       0.67 eA-3
Q167 0.894 0.202 0.189 !       0.66 eA-3
C168 0.634 0.586 0.953 !       0.65 eA-3
C169 0.832 0.935 0.584 !       0.65 eA-3
Q170 0.824 0.182 0.579 !       0.64 eA-3
C171 0.923 0.079 0.249 !       0.63 eA-3
C172 0.050 0.147 0.941 !       0.63 eA-3
C173 0.913 0.862 0.456 !       0.63 eA-3
Q174 0.328 0.394 0.488 !       0.62 eA-3
Q175 0.536 0.622 0.032 !       0.61 eA-3
Q176 0.770 0.701 0.547 !       0.61 eA-3
Q177 0.484 0.374 0.298 !       0.60 eA-3
Q178 0.440 0.314 0.327 !       0.60 eA-3
Q179 0.759 0.343 0.443 !       0.60 eA-3
Q180 0.524 0.406 0.197 !       0.60 eA-3
Q181 0.721 0.982 0.466 !       0.59 eA-3
Q182 0.326 0.428 0.475 !       0.59 eA-3
Q183 0.067 0.855 0.599 !       0.59 eA-3
Q184 0.137 0.016 0.986 !       0.59 eA-3
Q185 0.810 0.298 0.297 !       0.59 eA-3
Q186 0.361 0.500 0.792 !       0.58 eA-3
Q187 0.389 0.341 0.450 !       0.58 eA-3
Q188 0.450 0.586 0.888 !       0.58 eA-3
C189 0.633 0.647 0.973 !       0.57 eA-3
Q190 0.136 0.689 0.122 !       0.57 eA-3
Q191 0.849 0.856 0.412 !       0.56 eA-3
Q192 0.801 0.842 0.458 !       0.55 eA-3
Q193 0.230 0.629 0.298 !       0.55 eA-3
Q194 0.472 0.777 0.315 !       0.55 eA-3
Q195 0.263 0.606 0.877 !       0.55 eA-3
Q196 0.921 0.799 0.159 !       0.55 eA-3
Q197 0.429 0.869 0.295 !       0.54 eA-3
Q198 0.407 0.391 0.390 !       0.54 eA-3
Q199 0.423 0.842 0.303 !       0.54 eA-3
(replace by semicolon in column 1 when used as .sqf)
;
_olex2_submission_special_instructions 'No special instructions were received'
#END Tags that were not found in dictionaries
loop_
_space_group_symop_operation_xyz
'x, y, z'
'-y+1/2, x+1/2, z+3/4'
'-x, -y, z+1/2'
'y+1/2, -x+1/2, z+1/4'
'x+1/2, -y+1/2, -z+1/4'
'-x+1/2, y+1/2, -z+3/4'
'y, x, -z'
'-y, -x, -z+1/2'
loop_
_atom_site_label
_atom_site_type_symbol
_atom_site_fract_x
_atom_site_fract_y
_atom_site_fract_z
_atom_site_U_iso_or_equiv
_atom_site_adp_type
_atom_site_occupancy
_atom_site_site_symmetry_order
_atom_site_calc_flag
_atom_site_refinement_flags_posn
_atom_site_refinement_flags_occupancy
_atom_site_disorder_assembly
_atom_site_disorder_group
Cu1 Cu 0.81033(4) 0.71617(4) 0.54680(4) 0.02155(17) Uani 1 1 d . . . .
Cu2 Cu 0.64209(4) 0.70555(4) 0.57152(4) 0.02083(17) Uani 1 1 d . . . .
OW1 O 0.8243(3) 0.6992(3) 0.6584(3) 0.0367(11) Uani 1 1 d . . . .
HW1A H 0.8443 0.6515 0.6744 0.055 Uiso 1 1 d GR . . .
HW1B H 0.7807 0.7017 0.6921 0.055 Uiso 1 1 d GR . . .
OW2 O 0.5597(3) 0.7692(3) 0.5845(3) 0.0388(11) Uani 1 1 d . . . .
HW2A H 0.5624 0.8065 0.5539 0.058 Uiso 1 1 d GR . . .
HW2B H 0.5573 0.7847 0.6324 0.058 Uiso 1 1 d GR . . .
O0AA O 0.9725(3) 0.7062(2) 0.5286(3) 0.0328(10) Uani 1 1 d . . . .
O1 O 0.9245(2) 0.56218(19) 0.6668(2) 0.0200(8) Uani 1 1 d . . . .
O1M1 O 0.7115(2) 0.6356(2) 0.5400(2) 0.0222(8) Uani 1 1 d . . . .
O1M2 O 0.7884(2) 0.7373(2) 0.4411(2) 0.0216(8) Uani 1 1 d . . . .
O2 O 0.8753(2) 0.6392(2) 0.5200(2) 0.0232(8) Uani 1 1 d . . . .
O4 O 0.9286(2) 0.2507(2) 0.5356(2) 0.0248(9) Uani 1 1 d . . . .
O5 O 0.8009(2) 0.1649(2) 0.4311(2) 0.0283(9) Uani 1 1 d . . . .
O6 O 0.8744(4) 0.0757(3) 0.4388(3) 0.065(2) Uani 1 1 d . . . .
O7 O 0.7854(4) 0.3076(3) 0.8409(3) 0.0603(19) Uani 1 1 d . . . .
N1 N 0.9492(2) 0.5195(2) 0.5497(3) 0.0183(8) Uani 1 1 d D . . .
H1 H 0.955(4) 0.485(3) 0.516(3) 0.022 Uiso 1 1 d DR . . .
N2 N 0.8285(3) 0.2029(3) 0.5816(3) 0.0249(10) Uani 1 1 d D . . .
H2 H 0.807(3) 0.200(4) 0.626(2) 0.030 Uiso 1 1 d DR . . .
C0AA C 1.0270(4) 0.5732(3) 0.4542(4) 0.0289(13) Uani 1 1 d . . . .
H0AA H 1.0592 0.5330 0.4583 0.043 Uiso 1 1 calc GR . . .
H0AB H 1.0539 0.6158 0.4424 0.043 Uiso 1 1 calc GR . . .
H0AC H 0.9928 0.5643 0.4136 0.043 Uiso 1 1 calc GR . . .
C1 C 0.8848(3) 0.4449(3) 0.6399(3) 0.0185(10) Uani 1 1 d . . . .
C1M1 C 0.7254(4) 0.5719(4) 0.5811(4) 0.0302(13) Uani 1 1 d . . . .
H1MA H 0.7735 0.5560 0.5702 0.045 Uiso 1 1 calc GR . . .
H1MB H 0.6919 0.5354 0.5653 0.045 Uiso 1 1 calc GR . . .
H1MC H 0.7203 0.5806 0.6358 0.045 Uiso 1 1 calc GR . . .
C1M2 C 0.8405(3) 0.7367(4) 0.3826(3) 0.0296(14) Uani 1 1 d . . . .
H1MD H 0.8732 0.7760 0.3903 0.044 Uiso 1 1 calc GR . . .
H1ME H 0.8175 0.7416 0.3329 0.044 Uiso 1 1 calc GR . . .
H1MF H 0.8665 0.6921 0.3843 0.044 Uiso 1 1 calc GR . . .
C2 C 0.8896(3) 0.3848(3) 0.5948(3) 0.0183(10) Uani 1 1 d . . . .
H2A H 0.9120 0.3872 0.5466 0.022 Uiso 1 1 calc R . . .
C3 C 0.8618(3) 0.3211(3) 0.6203(3) 0.0191(10) Uani 1 1 d . . . .
C4 C 0.8291(4) 0.3180(3) 0.6908(3) 0.0266(12) Uani 1 1 d . . . .
H4 H 0.8099 0.2747 0.7083 0.032 Uiso 1 1 calc R . . .
C5 C 0.8243(4) 0.3779(3) 0.7361(3) 0.0308(14) Uani 1 1 d . . . .
C6 C 0.8526(4) 0.4406(3) 0.7109(3) 0.0279(13) Uani 1 1 d . . . .
H6 H 0.8501 0.4812 0.7423 0.033 Uiso 1 1 calc R . . .
C7 C 0.9201(3) 0.5131(3) 0.6187(3) 0.0177(10) Uani 1 1 d . . . .
C8 C 0.9880(3) 0.5831(3) 0.5299(3) 0.0190(10) Uani 1 1 d . . . .
H8 H 1.0242 0.5909 0.5703 0.023 Uiso 1 1 calc R . . .
C1AA C 0.9413(3) 0.6490(3) 0.5268(3) 0.0181(10) Uani 1 1 d . . . .
C11 C 0.8746(3) 0.2556(3) 0.5743(3) 0.0190(10) Uani 1 1 d . . . .
C12 C 0.8447(4) 0.1320(3) 0.5536(3) 0.0301(14) Uani 1 1 d . . . .
H12 H 0.8937 0.1194 0.5698 0.036 Uiso 1 1 calc R . . .
C13 C 0.7935(7) 0.0796(5) 0.5893(5) 0.068(3) Uani 1 1 d . . . .
H13A H 0.7927 0.0862 0.6446 0.102 Uiso 1 1 calc GR . . .
H13B H 0.8086 0.0315 0.5775 0.102 Uiso 1 1 calc GR . . .
H13C H 0.7461 0.0875 0.5687 0.102 Uiso 1 1 calc GR . . .
C14 C 0.8396(4) 0.1248(3) 0.4677(4) 0.0348(15) Uani 1 1 d . . . .
C15 C 0.7937(5) 0.3675(3) 0.8145(4) 0.045(2) Uani 1 1 d . . . .
N3 N 0.7896(13) 0.424(2) 0.8597(13) 0.020(5) Uani 0.261(11) 1 d . P A 1
H3 H 0.8045 0.4659 0.8452 0.024 Uiso 0.261(11) 1 calc R P A 1
C16 C 0.7588(13) 0.4118(15) 0.9346(14) 0.030(5) Uani 0.261(11) 1 d . P A 1
H16 H 0.7921 0.3891 0.9712 0.036 Uiso 0.261(11) 1 calc R P A 1
C17 C 0.725(2) 0.4854(16) 0.9664(17) 0.046(7) Uani 0.261(11) 1 d . P A 1
H17A H 0.7130 0.5160 0.9234 0.069 Uiso 0.261(11) 1 calc GR P A 1
H17B H 0.7596 0.5092 0.9990 0.069 Uiso 0.261(11) 1 calc GR P A 1
H17C H 0.6825 0.4751 0.9959 0.069 Uiso 0.261(11) 1 calc GR P A 1
C18 C 0.6873(12) 0.3731(14) 0.9285(12) 0.037(5) Uani 0.261(11) 1 d . P A 1
O8 O 0.6421(11) 0.4037(18) 0.8770(14) 0.068(9) Uani 0.261(11) 1 d . P A 1
H8A H 0.6272 0.3729 0.8467 0.101 Uiso 0.261(11) 1 calc R P A 1
O9 O 0.6681(11) 0.3309(13) 0.9769(11) 0.054(7) Uani 0.261(11) 1 d . P A 1
N3A N 0.7662(9) 0.4253(9) 0.8496(7) 0.062(5) Uani 0.739(11) 1 d . P A 2
H3A H 0.7716 0.4668 0.8280 0.074 Uiso 0.739(11) 1 calc R P A 2
C16A C 0.7281(10) 0.4212(8) 0.9214(7) 0.073(5) Uani 0.739(11) 1 d . P A 2
H16A H 0.7310 0.3719 0.9412 0.087 Uiso 0.739(11) 1 calc R P A 2
C17A C 0.7646(8) 0.4737(6) 0.9818(6) 0.050(3) Uani 0.739(11) 1 d . P A 2
H17D H 0.8022 0.4486 1.0088 0.074 Uiso 0.739(11) 1 calc GR P A 2
H17E H 0.7293 0.4900 1.0184 0.074 Uiso 0.739(11) 1 calc GR P A 2
H17F H 0.7846 0.5142 0.9548 0.074 Uiso 0.739(11) 1 calc GR P A 2
C18A C 0.6517(13) 0.4439(17) 0.9199(15) 0.154(10) Uani 0.739(11) 1 d . P A 2
O8A O 0.6295(11) 0.4622(15) 0.8463(13) 0.237(12) Uani 0.739(11) 1 d . P A 2
H8AA H 0.6242 0.4255 0.8202 0.356 Uiso 0.739(11) 1 calc R P A 2
O9A O 0.6141(13) 0.4344(13) 0.9753(12) 0.207(11) Uani 0.739(11) 1 d . P A 2
loop_
_atom_site_aniso_label
_atom_site_aniso_U_11
_atom_site_aniso_U_22
_atom_site_aniso_U_33
_atom_site_aniso_U_23
_atom_site_aniso_U_13
_atom_site_aniso_U_12
Cu1 0.0176(3) 0.0282(4) 0.0188(3) 0.0024(3) -0.0013(2) 0.0057(3)
Cu2 0.0180(3) 0.0256(4) 0.0189(3) -0.0003(3) 0.0006(2) 0.0039(3)
OW1 0.032(2) 0.047(3) 0.031(2) 0.005(2) -0.0012(19) 0.004(2)
OW2 0.036(3) 0.046(3) 0.035(2) 0.001(2) 0.002(2) 0.012(2)
O0AA 0.039(3) 0.0150(19) 0.045(3) 0.0057(19) -0.013(2) -0.0036(19)
O1 0.026(2) 0.0144(17) 0.0194(17) -0.0027(14) -0.0059(15) 0.0002(15)
O1M1 0.025(2) 0.0216(19) 0.0194(16) 0.0045(14) 0.0016(15) 0.0044(16)
O1M2 0.0174(18) 0.027(2) 0.0206(17) 0.0030(15) -0.0003(14) 0.0032(15)
O2 0.0197(19) 0.025(2) 0.0246(19) 0.0020(16) 0.0005(15) 0.0056(16)
O4 0.023(2) 0.023(2) 0.029(2) -0.0003(17) 0.0074(17) -0.0016(17)
O5 0.040(3) 0.023(2) 0.0212(18) 0.0026(16) 0.0022(18) -0.0091(18)
O6 0.114(6) 0.045(3) 0.036(3) -0.012(3) -0.006(3) 0.040(4)
O7 0.129(6) 0.024(2) 0.029(2) 0.0075(19) 0.020(3) -0.013(3)
N1 0.020(2) 0.016(2) 0.018(2) -0.0006(16) -0.0013(17) -0.0007(17)
N2 0.033(3) 0.020(2) 0.022(2) -0.0047(19) 0.0014(19) -0.008(2)
C0AA 0.031(3) 0.020(3) 0.035(3) -0.007(2) 0.016(3) -0.006(2)
C1 0.021(3) 0.019(2) 0.016(2) -0.0015(18) -0.0032(19) 0.001(2)
C1M1 0.028(3) 0.031(3) 0.031(3) 0.003(3) 0.000(2) 0.007(3)
C1M2 0.030(3) 0.038(4) 0.021(3) 0.004(2) 0.010(2) 0.001(3)
C2 0.015(2) 0.018(2) 0.021(2) -0.0020(19) -0.0013(19) -0.0018(19)
C3 0.023(3) 0.014(2) 0.021(2) -0.0002(18) -0.002(2) -0.003(2)
C4 0.040(3) 0.016(3) 0.023(3) 0.003(2) 0.008(2) -0.002(2)
C5 0.056(4) 0.020(3) 0.016(2) 0.003(2) 0.008(3) 0.002(3)
C6 0.048(4) 0.019(3) 0.016(2) -0.001(2) 0.001(3) 0.000(3)
C7 0.023(3) 0.013(2) 0.016(2) 0.0011(18) -0.0013(19) 0.0008(19)
C8 0.017(2) 0.016(2) 0.024(3) -0.0010(19) 0.0013(19) -0.001(2)
C1AA 0.020(3) 0.017(2) 0.017(2) 0.0011(18) -0.0033(18) 0.001(2)
C11 0.022(3) 0.015(2) 0.020(2) 0.001(2) -0.001(2) 0.0013(19)
C12 0.051(4) 0.015(3) 0.025(3) 0.003(2) 0.001(3) -0.007(2)
C13 0.129(10) 0.036(4) 0.040(4) 0.008(3) 0.003(5) -0.047(5)
C14 0.053(4) 0.023(3) 0.027(3) -0.006(2) 0.005(3) -0.005(3)
C15 0.090(6) 0.020(3) 0.025(3) 0.001(2) 0.020(4) -0.015(4)
N3 0.023(9) 0.030(11) 0.007(7) 0.001(6) 0.004(6) -0.011(8)
C16 0.028(8) 0.053(11) 0.009(7) 0.005(7) 0.007(6) 0.003(7)
C17 0.053(16) 0.060(12) 0.025(12) -0.008(9) 0.013(11) 0.005(10)
C18 0.031(8) 0.058(11) 0.021(8) 0.019(7) 0.003(6) -0.001(7)
O8 0.024(8) 0.13(2) 0.051(12) 0.066(14) 0.001(8) -0.004(10)
O9 0.041(10) 0.082(14) 0.037(10) 0.041(10) -0.008(8) -0.017(9)
N3A 0.122(13) 0.027(5) 0.036(6) -0.003(5) 0.037(7) -0.026(9)
C16A 0.127(12) 0.052(7) 0.039(6) -0.005(5) 0.043(7) -0.016(9)
C17A 0.085(9) 0.034(5) 0.029(5) 0.000(4) 0.028(5) 0.002(6)
C18A 0.131(16) 0.17(2) 0.158(15) 0.082(15) 0.079(13) -0.005(16)
O8A 0.205(19) 0.32(3) 0.186(15) 0.147(16) 0.073(14) -0.05(2)
O9A 0.22(2) 0.22(2) 0.174(15) 0.083(15) 0.128(14) 0.007(17)
loop_
_atom_type_symbol
_atom_type_description
_atom_type_scat_dispersion_real
_atom_type_scat_dispersion_imag
_atom_type_scat_source
C C 0.0033 0.0016 'International Tables Vol C Tables 4.2.6.8 and 6.1.1.4'
H H 0.0000 0.0000 'International Tables Vol C Tables 4.2.6.8 and 6.1.1.4'
Cu Cu 0.3201 1.2651 'International Tables Vol C Tables 4.2.6.8 and 6.1.1.4'
N N 0.0061 0.0033 'International Tables Vol C Tables 4.2.6.8 and 6.1.1.4'
O O 0.0106 0.0060 'International Tables Vol C Tables 4.2.6.8 and 6.1.1.4'
loop_
_geom_angle_atom_site_label_1
_geom_angle_atom_site_label_2
_geom_angle_atom_site_label_3
_geom_angle
_geom_angle_site_symmetry_1
_geom_angle_site_symmetry_3
OW1 Cu1 Cu1 134.97(16) . 7_556
OW1 Cu1 O1M1 92.81(17) . .
O1M1 Cu1 Cu1 83.60(9) . 7_556
O1M2 Cu1 Cu1 39.27(11) 7_556 7_556
O1M2 Cu1 Cu1 39.66(12) . 7_556
O1M2 Cu1 OW1 95.71(19) 7_556 .
O1M2 Cu1 OW1 174.44(19) . .
O1M2 Cu1 O1M1 84.22(15) 7_556 .
O1M2 Cu1 O1M1 85.26(15) . .
O1M2 Cu1 O1M2 78.92(17) . 7_556
O1M2 Cu1 O2 93.36(17) . .
O1M2 Cu1 O2 170.85(17) 7_556 .
O2 Cu1 Cu1 132.88(13) . 7_556
O2 Cu1 OW1 91.86(19) . .
O2 Cu1 O1M1 90.30(15) . .
OW2 Cu2 Cu2 130.39(15) . 7_556
OW2 Cu2 O1M2 101.80(19) . 7_556
O1M1 Cu2 Cu2 39.00(11) 7_556 7_556
O1M1 Cu2 Cu2 39.39(11) . 7_556
O1M1 Cu2 OW2 167.64(19) . .
O1M1 Cu2 OW2 91.74(19) 7_556 .
O1M1 Cu2 O1M1 78.39(18) 7_556 .
O1M1 Cu2 O1M2 84.95(16) . 7_556
O1M1 Cu2 O1M2 85.31(15) 7_556 7_556
O1M1 Cu2 O5 170.94(17) 7_556 4_565
O1M1 Cu2 O5 94.92(17) . 4_565
O1M2 Cu2 Cu2 83.39(9) 7_556 7_556
O5 Cu2 Cu2 133.96(13) 4_565 7_556
O5 Cu2 OW2 95.6(2) 4_565 .
O5 Cu2 O1M2 88.05(16) 4_565 7_556
Cu1 OW1 HW1A 117.4 . .
Cu1 OW1 HW1B 117.0 . .
HW1A OW1 HW1B 100.5 . .
Cu2 OW2 HW2A 111.6 . .
Cu2 OW2 HW2B 110.5 . .
HW2A OW2 HW2B 108.0 . .
Cu2 O1M1 Cu1 94.51(16) . .
Cu2 O1M1 Cu1 93.05(15) 7_556 .
Cu2 O1M1 Cu2 101.61(18) 7_556 .
C1M1 O1M1 Cu1 111.4(4) . .
C1M1 O1M1 Cu2 123.8(4) . .
C1M1 O1M1 Cu2 124.4(4) . 7_556
Cu1 O1M2 Cu1 101.07(17) . 7_556
Cu1 O1M2 Cu2 94.84(16) 7_556 7_556
Cu1 O1M2 Cu2 94.20(16) . 7_556
C1M2 O1M2 Cu1 122.5(4) . .
C1M2 O1M2 Cu1 124.6(4) . 7_556
C1M2 O1M2 Cu2 112.4(4) . 7_556
C1AA O2 Cu1 119.1(4) . .
C14 O5 Cu2 114.1(4) . 2_644
C7 N1 H1 126(4) . .
C7 N1 C8 120.1(5) . .
C8 N1 H1 113(4) . .
C11 N2 H2 116(5) . .
C11 N2 C12 121.2(5) . .
C12 N2 H2 110(5) . .
H0AA C0AA H0AB 109.5 . .
H0AA C0AA H0AC 109.5 . .
H0AB C0AA H0AC 109.5 . .
C8 C0AA H0AA 109.5 . .
C8 C0AA H0AB 109.5 . .
C8 C0AA H0AC 109.5 . .
C2 C1 C7 122.4(5) . .
C6 C1 C2 119.3(5) . .
C6 C1 C7 117.9(5) . .
O1M1 C1M1 H1MA 109.5 . .
O1M1 C1M1 H1MB 109.5 . .
O1M1 C1M1 H1MC 109.5 . .
H1MA C1M1 H1MB 109.5 . .
H1MA C1M1 H1MC 109.5 . .
H1MB C1M1 H1MC 109.5 . .
O1M2 C1M2 H1MD 109.5 . .
O1M2 C1M2 H1ME 109.5 . .
O1M2 C1M2 H1MF 109.5 . .
H1MD C1M2 H1ME 109.5 . .
H1MD C1M2 H1MF 109.5 . .
H1ME C1M2 H1MF 109.5 . .
C1 C2 H2A 119.9 . .
C3 C2 C1 120.3(5) . .
C3 C2 H2A 119.9 . .
C2 C3 C4 119.6(5) . .
C2 C3 C11 118.9(5) . .
C4 C3 C11 121.2(5) . .
C3 C4 H4 119.8 . .
C3 C4 C5 120.4(5) . .
C5 C4 H4 119.8 . .
C4 C5 C15 116.2(5) . .
C6 C5 C4 119.7(5) . .
C6 C5 C15 123.9(6) . .
C1 C6 H6 119.7 . .
C5 C6 C1 120.7(5) . .
C5 C6 H6 119.7 . .
O1 C7 N1 120.8(5) . .
O1 C7 C1 120.0(5) . .
N1 C7 C1 119.1(5) . .
N1 C8 C0AA 110.5(5) . .
N1 C8 H8 107.6 . .
N1 C8 C1AA 113.1(4) . .
C0AA C8 H8 107.6 . .
C0AA C8 C1AA 110.4(5) . .
C1AA C8 H8 107.6 . .
O0AA C1AA O2 127.0(5) . .
O0AA C1AA C8 116.0(5) . .
O2 C1AA C8 117.0(5) . .
O4 C11 N2 122.7(5) . .
O4 C11 C3 119.6(5) . .
N2 C11 C3 117.6(5) . .
N2 C12 H12 108.6 . .
N2 C12 C13 109.1(6) . .
N2 C12 C14 113.7(5) . .
C13 C12 H12 108.6 . .
C14 C12 H12 108.6 . .
C14 C12 C13 108.0(6) . .
C12 C13 H13A 109.5 . .
C12 C13 H13B 109.5 . .
C12 C13 H13C 109.5 . .
H13A C13 H13B 109.5 . .
H13A C13 H13C 109.5 . .
H13B C13 H13C 109.5 . .
O5 C14 C12 120.0(6) . .
O6 C14 O5 124.1(6) . .
O6 C14 C12 115.9(7) . .
O7 C15 C5 120.8(6) . .
O7 C15 N3 120.5(15) . .
O7 C15 N3A 121.4(8) . .
N3 C15 C5 117.3(14) . .
N3A C15 C5 117.1(8) . .
C15 N3 H3 122.3 . .
C15 N3 C16 115(3) . .
C16 N3 H3 122.3 . .
N3 C16 H16 113.3 . .
N3 C16 C17 109(2) . .
C17 C16 H16 113.3 . .
C18 C16 N3 111(2) . .
C18 C16 H16 113.3 . .
C18 C16 C17 94.9(19) . .
C16 C17 H17A 109.5 . .
C16 C17 H17B 109.5 . .
C16 C17 H17C 109.5 . .
H17A C17 H17B 109.5 . .
H17A C17 H17C 109.5 . .
H17B C17 H17C 109.5 . .
O8 C18 C16 113(2) . .
O9 C18 C16 122(2) . .
O9 C18 O8 123(2) . .
C18 O8 H8A 109.5 . .
C15 N3A H3A 118.7 . .
C15 N3A C16A 122.6(13) . .
C16A N3A H3A 118.7 . .
N3A C16A H16A 108.9 . .
N3A C16A C17A 108.9(11) . .
C17A C16A H16A 108.9 . .
C18A C16A N3A 116.4(16) . .
C18A C16A H16A 108.9 . .
C18A C16A C17A 104.4(16) . .
C16A C17A H17D 109.5 . .
C16A C17A H17E 109.5 . .
C16A C17A H17F 109.5 . .
H17D C17A H17E 109.5 . .
H17D C17A H17F 109.5 . .
H17E C17A H17F 109.5 . .
O8A C18A C16A 112.0(18) . .
O9A C18A C16A 120(2) . .
O9A C18A O8A 127(2) . .
C18A O8A H8AA 109.5 . .
loop_
_geom_bond_atom_site_label_1
_geom_bond_atom_site_label_2
_geom_bond_distance
_geom_bond_site_symmetry_2
Cu1 Cu1 3.0155(13) 7_556
Cu1 OW1 2.004(5) .
Cu1 O1M1 2.424(4) .
Cu1 O1M2 1.945(4) .
Cu1 O1M2 1.961(4) 7_556
Cu1 O2 1.969(4) .
Cu2 Cu2 3.0362(13) 7_556
Cu2 OW2 1.989(5) .
Cu2 O1M1 1.951(4) .
Cu2 O1M1 1.967(4) 7_556
Cu2 O1M2 2.405(4) 7_556
Cu2 O5 1.977(4) 4_565
OW1 HW1A 1.0225 .
OW1 HW1B 1.0196 .
OW2 HW2A 0.8916 .
OW2 HW2B 0.8933 .
O0AA C1AA 1.236(7) .
O1 C7 1.261(6) .
O1M1 Cu2 1.967(4) 7_556
O1M1 C1M1 1.432(7) .
O1M2 Cu1 1.961(4) 7_556
O1M2 Cu2 2.405(4) 7_556
O1M2 C1M2 1.427(7) .
O2 C1AA 1.272(7) .
O4 C11 1.234(7) .
O5 Cu2 1.977(4) 2_644
O5 C14 1.238(9) .
O6 C14 1.251(9) .
O7 C15 1.237(8) .
N1 H1 0.89(3) .
N1 C7 1.338(7) .
N1 C8 1.455(7) .
N2 H2 0.88(3) .
N2 C11 1.335(7) .
N2 C12 1.464(8) .
C0AA H0AA 0.9800 .
C0AA H0AB 0.9800 .
C0AA H0AC 0.9800 .
C0AA C8 1.533(8) .
C1 C2 1.391(7) .
C1 C6 1.393(8) .
C1 C7 1.504(7) .
C1M1 H1MA 0.9800 .
C1M1 H1MB 0.9800 .
C1M1 H1MC 0.9800 .
C1M2 H1MD 0.9800 .
C1M2 H1ME 0.9800 .
C1M2 H1MF 0.9800 .
C2 H2A 0.9500 .
C2 C3 1.393(7) .
C3 C4 1.386(8) .
C3 C11 1.504(7) .
C4 H4 0.9500 .
C4 C5 1.391(8) .
C5 C6 1.378(9) .
C5 C15 1.507(8) .
C6 H6 0.9500 .
C8 H8 1.0000 .
C8 C1AA 1.533(7) .
C12 H12 1.0000 .
C12 C13 1.527(10) .
C12 C14 1.519(8) .
C13 H13A 0.9800 .
C13 H13B 0.9800 .
C13 H13C 0.9800 .
C15 N3 1.34(4) .
C15 N3A 1.363(18) .
N3 H3 0.8800 .
N3 C16 1.46(2) .
C16 H16 1.0000 .
C16 C17 1.64(2) .
C16 C18 1.55(3) .
C17 H17A 0.9800 .
C17 H17B 0.9800 .
C17 H17C 0.9800 .
C18 O8 1.38(3) .
C18 O9 1.22(2) .
O8 H8A 0.8400 .
N3A H3A 0.8800 .
N3A C16A 1.456(13) .
C16A H16A 1.0000 .
C16A C17A 1.612(17) .
C16A C18A 1.51(3) .
C17A H17D 0.9800 .
C17A H17E 0.9800 .
C17A H17F 0.9800 .
C18A O8A 1.40(3) .
C18A O9A 1.22(2) .
O8A H8AA 0.8400 .
loop_
_geom_torsion_atom_site_label_1
_geom_torsion_atom_site_label_2
_geom_torsion_atom_site_label_3
_geom_torsion_atom_site_label_4
_geom_torsion
_geom_torsion_site_symmetry_1
Cu1 O2 C1AA O0AA -21.3(8) .
Cu1 O2 C1AA C8 161.3(4) .
Cu2 O5 C14 O6 2.9(10) 2_644
Cu2 O5 C14 C12 -174.7(5) 2_644
O7 C15 N3 C16 -14(3) .
O7 C15 N3A C16A 3(2) .
N1 C8 C1AA O0AA 163.2(5) .
N1 C8 C1AA O2 -19.2(7) .
N2 C12 C14 O5 -25.5(10) .
N2 C12 C14 O6 156.7(7) .
C0AA C8 C1AA O0AA -72.5(6) .
C0AA C8 C1AA O2 105.2(6) .
C1 C2 C3 C4 0.1(8) .
C1 C2 C3 C11 -173.5(5) .
C2 C1 C6 C5 -1.4(10) .
C2 C1 C7 O1 -167.9(5) .
C2 C1 C7 N1 9.2(8) .
C2 C3 C4 C5 -0.2(9) .
C2 C3 C11 O4 29.0(8) .
C2 C3 C11 N2 -155.5(5) .
C3 C4 C5 C6 -0.4(11) .
C3 C4 C5 C15 -174.7(7) .
C4 C3 C11 O4 -144.4(6) .
C4 C3 C11 N2 31.1(8) .
C4 C5 C6 C1 1.2(11) .
C4 C5 C15 O7 12.3(13) .
C4 C5 C15 N3 178.9(15) .
C4 C5 C15 N3A -158.1(11) .
C5 C15 N3 C16 179.2(16) .
C5 C15 N3A C16A 173.0(13) .
C6 C1 C2 C3 0.7(8) .
C6 C1 C7 O1 5.4(8) .
C6 C1 C7 N1 -177.5(5) .
C6 C5 C15 O7 -161.7(9) .
C6 C5 C15 N3 4.9(18) .
C6 C5 C15 N3A 27.9(15) .
C7 N1 C8 C0AA 170.0(5) .
C7 N1 C8 C1AA -65.7(6) .
C7 C1 C2 C3 173.8(5) .
C7 C1 C6 C5 -174.8(6) .
C8 N1 C7 O1 1.5(8) .
C8 N1 C7 C1 -175.6(5) .
C11 N2 C12 C13 163.8(6) .
C11 N2 C12 C14 -75.6(8) .
C11 C3 C4 C5 173.2(6) .
C12 N2 C11 O4 9.8(9) .
C12 N2 C11 C3 -165.6(5) .
C13 C12 C14 O5 95.7(9) .
C13 C12 C14 O6 -82.1(10) .
C15 C5 C6 C1 175.0(7) .
C15 N3 C16 C17 -155(2) .
C15 N3 C16 C18 -51(3) .
C15 N3A C16A C17A 124.8(17) .
C15 N3A C16A C18A -118(2) .
N3 C16 C18 O8 -50(3) .
N3 C16 C18 O9 146(3) .
C17 C16 C18 O8 63(3) .
C17 C16 C18 O9 -101(3) .
N3A C16A C18A O8A 3(3) .
N3A C16A C18A O9A 171(3) .
C17A C16A C18A O8A 123(2) .
C17A C16A C18A O9A -68(3) .
