#------------------------------------------------------------------------------
#$Date: 2016-02-13 21:28:24 +0200 (Sat, 13 Feb 2016) $
#$Revision: 176429 $
#$URL: svn://www.crystallography.net/cod/cif/7/03/55/7035521.cif $
#------------------------------------------------------------------------------
#
# This file is available in the Crystallography Open Database (COD),
# http://www.crystallography.net/
#
# All data on this site have been placed in the public domain by the
# contributors.
#
data_7035521
loop_
_publ_author_name
'Du, Xia'
'Li, Zijian'
'Liu, Yan'
'Yang, Shiping'
'Cui, Yong'
_publ_section_title
;
 Chiral porous metal-organic frameworks containing \m-oxo-bis[Ti(salan)]
 units for asymmetric cyanation of aldehydes.
;
_journal_issue                   29
_journal_name_full
'Dalton transactions (Cambridge, England : 2003)'
_journal_page_first              12999
_journal_page_last               13002
_journal_paper_doi               10.1039/c5dt01682g
_journal_volume                  44
_journal_year                    2015
_chemical_absolute_configuration rmad
_chemical_formula_moiety         'C41 H52 Br Cd N4 O5.5 Ti'
_chemical_formula_sum            'C41 H52 Br Cd N4 O5.5 Ti'
_chemical_formula_weight         929.07
_space_group_crystal_system      tetragonal
_space_group_IT_number           92
_space_group_name_Hall           'P 4abw 2nw'
_space_group_name_H-M_alt        'P 41 21 2'
_symmetry_space_group_name_Hall  'P 4abw 2nw'
_symmetry_space_group_name_H-M   'P 41 21 2'
_atom_sites_solution_hydrogens   geom
_audit_block_doi                 10.5517/cc14hywg
_audit_creation_date             2015-06-07
_audit_creation_method
;
Olex2 1.2
(compiled 2015.01.26 svn.r3150 for OlexSys, GUI svn.r4998)
;
_audit_update_record
;
2015-06-08 deposited with the CCDC.
2015-06-24 downloaded from the CCDC.
;
_cell_angle_alpha                90
_cell_angle_beta                 90
_cell_angle_gamma                90
_cell_formula_units_Z            8
_cell_length_a                   26.8901(2)
_cell_length_b                   26.8901(2)
_cell_length_c                   13.2591(3)
_cell_measurement_temperature    173(2)
_cell_volume                     9587.4(2)
_computing_molecular_graphics    'Olex2 (Dolomanov et al., 2009)'
_computing_publication_material  'Olex2 (Dolomanov et al., 2009)'
_computing_structure_refinement  'XL (Sheldrick, 2008)'
_diffrn_ambient_temperature      173.15
_diffrn_measured_fraction_theta_full 0.817
_diffrn_measured_fraction_theta_max 0.995
_diffrn_measurement_device_type  'Bruker P4'
_diffrn_measurement_method       '\w scans'
_diffrn_radiation_monochromator  graphite
_diffrn_radiation_type           CuK\a
_diffrn_radiation_wavelength     1.54178
_diffrn_reflns_av_R_equivalents  0.0486
_diffrn_reflns_av_unetI/netI     0.0592
_diffrn_reflns_Laue_measured_fraction_full 0.817
_diffrn_reflns_Laue_measured_fraction_max 0.995
_diffrn_reflns_limit_h_max       29
_diffrn_reflns_limit_h_min       -30
_diffrn_reflns_limit_k_max       28
_diffrn_reflns_limit_k_min       -23
_diffrn_reflns_limit_l_max       12
_diffrn_reflns_limit_l_min       -14
_diffrn_reflns_number            24662
_diffrn_reflns_point_group_measured_fraction_full 0.799
_diffrn_reflns_point_group_measured_fraction_max 0.981
_diffrn_reflns_theta_full        67.679
_diffrn_reflns_theta_max         59.728
_diffrn_reflns_theta_min         3.287
_exptl_absorpt_coefficient_mu    6.282
_exptl_absorpt_correction_type   none
_exptl_crystal_colour            yellow
_exptl_crystal_density_diffrn    1.287
_exptl_crystal_description       block
_exptl_crystal_F_000             3800
_exptl_crystal_size_max          0.07
_exptl_crystal_size_mid          0.05
_exptl_crystal_size_min          0.05
_refine_diff_density_max         0.521
_refine_diff_density_min         -1.063
_refine_diff_density_rms         0.109
_refine_ls_abs_structure_details
;
 Flack x determined using 2254 quotients [(I+)-(I-)]/[(I+)+(I-)]
 (Parsons, Flack and Wagner, Acta Cryst. B69 (2013) 249-259).
;
_refine_ls_abs_structure_Flack   0.045(5)
_refine_ls_extinction_method     none
_refine_ls_goodness_of_fit_ref   1.050
_refine_ls_hydrogen_treatment    constr
_refine_ls_matrix_type           full
_refine_ls_number_parameters     574
_refine_ls_number_reflns         6936
_refine_ls_number_restraints     157
_refine_ls_restrained_S_all      1.051
_refine_ls_R_factor_all          0.0775
_refine_ls_R_factor_gt           0.0672
_refine_ls_shift/su_max          0.000
_refine_ls_shift/su_mean         0.000
_refine_ls_structure_factor_coef Fsqd
_refine_ls_weighting_details
'w=1/[\s^2^(Fo^2^)+(0.1500P)^2^+8.4316P] where P=(Fo^2^+2Fc^2^)/3'
_refine_ls_weighting_scheme      calc
_refine_ls_wR_factor_gt          0.1965
_refine_ls_wR_factor_ref         0.2117
_reflns_Friedel_coverage         0.742
_reflns_Friedel_fraction_full    0.777
_reflns_Friedel_fraction_max     0.963
_reflns_number_gt                5995
_reflns_number_total             6936
_reflns_threshold_expression     'I > 2\s(I)'
_cod_data_source_file            c5dt01682g2.cif
_cod_data_source_block           mof2_sq
_cod_depositor_comments
'Adding full bibliography for 7035520--7035521.cif.'
_cod_original_cell_volume        9587.4(3)
_cod_original_formula_sum        'C41 H52 Br Cd N4 O5.50 Ti'
_cod_database_code               7035521
#BEGIN Tags that were not found in dictionaries:
_shelxl_version_number           2014/6
_shelx_space_group_comment
;
The symmetry employed for this shelxl refinement is uniquely defined
by the following loop, which should always be used as a source of
symmetry information in preference to the above space-group names.
They are only intended as comments.
;
_shelx_estimated_absorpt_t_max   0.744
_shelx_estimated_absorpt_t_min   0.668
_olex2_refinement_description
;
1. Fixed Uiso
 At 1.2 times of:
  All C(H) groups, All C(H,H) groups, All N(H) groups
 At 1.5 times of:
  All C(H,H,H) groups
2. Restrained distances
 C34-C28
 1.4 with sigma of 0.02
 O6A-C40A
 1.25 with sigma of 0.02
 O6-C40 = O5-C40
 1.22 with sigma of 0.02
 C40A-C41A
 1.51 with sigma of 0.02
 C41-C40 = C41A-C40A
 1.51 with sigma of 0.02
 O6A-C41A \\sim C41A-O5A
 with sigma of 0.02
3. Restrained planarity
 C22, N3, C19, C20, C18, C21
 with sigma of 0.1
4. Rigid bond restraints
 Cd1, C37
 with sigma for 1-2 distances of 0.01 and sigma for 1-3 distances of 0.01
 C28, C34A
 with sigma for 1-2 distances of 0.005 and sigma for 1-3 distances of 0.01
 C34, C35
 with sigma for 1-2 distances of 0.005 and sigma for 1-3 distances of 0.01
 C34, C38
 with sigma for 1-2 distances of 0.005 and sigma for 1-3 distances of 0.01
 N4, C37
 with sigma for 1-2 distances of 0.005 and sigma for 1-3 distances of 0.01
 C37A, N4A
 with sigma for 1-2 distances of 0.005 and sigma for 1-3 distances of 0.01
 C34A, C38A
 with sigma for 1-2 distances of 0.005 and sigma for 1-3 distances of 0.01
 C40, O6
 with sigma for 1-2 distances of 0.01 and sigma for 1-3 distances of 0.01
 C22A, C21A
 with sigma for 1-2 distances of 0.01 and sigma for 1-3 distances of 0.01
 C12, C18A
 with sigma for 1-2 distances of 0.005 and sigma for 1-3 distances of 0.005
 C18A, C19A
 with sigma for 1-2 distances of 0.01 and sigma for 1-3 distances of 0.01
 C35A, C34A
 with sigma for 1-2 distances of 0.005 and sigma for 1-3 distances of 0.01
 O5, N4
 with sigma for 1-2 distances of 0.005 and sigma for 1-3 distances of 0.01
 O5, C40
 with sigma for 1-2 distances of 0.005 and sigma for 1-3 distances of 0.005
 O5, C40
 with sigma for 1-2 distances of 0.01 and sigma for 1-3 distances of 0.01
 C40, C41
 with sigma for 1-2 distances of 0.01 and sigma for 1-3 distances of 0.01
 C37A, N4A
 with sigma for 1-2 distances of 0.005 and sigma for 1-3 distances of 0.01
 C38A, C34A
 with sigma for 1-2 distances of 0.005 and sigma for 1-3 distances of 0.01
 C20A
 with sigma for 1-2 distances of 0.005 and sigma for 1-3 distances of 0.01
 N3A, C21A
 with sigma for 1-2 distances of 0.005 and sigma for 1-3 distances of 0.01
5. Uiso/Uaniso restraints and constraints
Cd1A \\sim O6: within 1.7A with sigma of 0.001 and sigma for terminal atoms of
0.08
C37 \\sim C38: within 1.7A with sigma of 0.04 and sigma for terminal atoms of
0.08
Cd1 \\sim C37: within 1.7A with sigma of 0.04 and sigma for terminal atoms of
0.08
C35 \\sim C36: within 1.7A with sigma of 0.04 and sigma for terminal atoms of
0.08
C34 \\sim C35: within 1.7A with sigma of 0.04 and sigma for terminal atoms of
0.08
C34 \\sim C38: within 1.7A with sigma of 0.04 and sigma for terminal atoms of
0.08
C28 \\sim C34A: within 1.7A with sigma of 0.04 and sigma for terminal atoms of
0.08
C28 \\sim C34: within 1.7A with sigma of 0.04 and sigma for terminal atoms of
0.08
C34A \\sim C38A: within 1.7A with sigma of 0.01 and sigma for terminal atoms of
0.08
C40 \\sim O6: within 1.7A with sigma of 0.001 and sigma for terminal atoms of
1.7
C40 \\sim O6: within 1.7A with sigma of 0.02 and sigma for terminal atoms of
0.08
O6A \\sim C40A: within 1.7A with sigma of 0.02 and sigma for terminal atoms of
0.08
C22A \\sim C21A: within 1.7A with sigma of 0.04 and sigma for terminal atoms of
0.08
C12 \\sim C18A: within 1.7A with sigma of 0.04 and sigma for terminal atoms of
0.08
C18A \\sim C19A: within 1.7A with sigma of 0.04 and sigma for terminal atoms of
0.08
C35A \\sim C34A: within 1.7A with sigma of 0.04 and sigma for terminal atoms of
0.08
C36A \\sim C35A: within 1.7A with sigma of 0.02 and sigma for terminal atoms of
0.08
O5 \\sim N4: within 1.7A with sigma of 0.02 and sigma for terminal atoms of 0.08
O5 \\sim C40: within 1.7A with sigma of 0.02 and sigma for terminal atoms of
0.08
O5A \\sim C40A: within 1.7A with sigma of 0.01 and sigma for terminal atoms of
0.08
C40 \\sim C41: within 1.7A with sigma of 0.02 and sigma for terminal atoms of
0.08
C41A \\sim C40A: within 1.7A with sigma of 0.005 and sigma for terminal atoms
of 0.08
Uanis(O5) \\sim Ueq: with sigma of 0.001 and sigma for terminal atoms of 0.2
Uanis(C37A) \\sim Ueq: with sigma of 0.001 and sigma for terminal atoms of 0.2
Uanis(C40A) = Uanis(C40)
Uanis(O6) = Uanis(O6A)
Uanis(C41A) = Uanis(C41)
Uanis(C41A) = Uanis(C41)
6. Rigid body (RIGU) restrains
 C18A, C12
 with sigma for 1-2 distances of 0.004 and sigma for 1-3 distances of 0.004
 C22A, C21A
 with sigma for 1-2 distances of 0.004 and sigma for 1-3 distances of 0.004
7. Others
 Sof(Cd1A)=Sof(Br1A)=Sof(O6A)=Sof(O5A)=Sof(C41A)=Sof(H41D)=Sof(H41E)=Sof(H41F)=
 Sof(C40A)=Sof(N4A)=Sof(C36A)=Sof(H36A)=Sof(C35A)=Sof(H35A)=Sof(C34A)=Sof(C38A)=
 Sof(H38A)=Sof(C37A)=Sof(H37A)=Sof(C22A)=Sof(H22A)=Sof(C18A)=Sof(C19A)=
 Sof(H19A)=Sof(C20A)=Sof(H20A)=Sof(N3A)=Sof(C21A)=Sof(H21A)=1-FVAR(1)
 Sof(Cd1)=Sof(C22)=Sof(H22)=Sof(Br1)=Sof(O5)=Sof(C40)=Sof(O6)=Sof(C41)=
 Sof(H41A)=Sof(H41B)=Sof(H41C)=Sof(C38)=Sof(H38)=Sof(C34)=Sof(C35)=Sof(H35)=
 Sof(C36)=Sof(H36)=Sof(N4)=Sof(C37)=Sof(H37)=Sof(N3)=Sof(C19)=Sof(H19)=Sof(C20)=
 Sof(H20)=Sof(C18)=Sof(C21)=Sof(H21)=FVAR(1)
8.a Ternary CH refined with riding coordinates:
 N0AA(H0AA), N2(H2), C3AA(H3AA), C2AA(H2AA)
8.b Secondary CH2 refined with riding coordinates:
 C23(H23A,H23B), C1AA(H1AA,H1AB), C7AA(H7AA,H7AB), C5(H5A,H5B), C8AA(H8AA,
 H8AB), C5AA(H5AA,H5AB)
8.c Me refined with riding coordinates:
 C39(H39A,H39B,H39C), C41(H41A,H41B,H41C), C41A(H41D,H41E,H41F)
8.d Aromatic/amide H refined with riding coordinates:
 C11(H11), C13(H13), C29(H29), C4AA(H4AA), C22(H22), C38(H38), C35(H35),
 C36(H36), C37(H37), C36A(H36A), C35A(H35A), C38A(H38A), C37A(H37A), C19(H19),
 C20(H20), C21(H21), C22A(H22A), C19A(H19A), C20A(H20A), C21A(H21A)
8.e Fitted hexagon refined as free rotating group:
 C11(C6AA,C9,C8,C13,C12), C29(C28,C4AA,C26,C24,C25), C38(C34,C35,C36,N4,C37),
 N4A(C36A,C35A,C34A,C38A,C37A), C22A(C18A,C19A,C20A,N3A,C21A)
8.f Idealised Me refined as rotating group:
 C15(H15A,H15B,H15C), C32(H32A,H32B,H32C), C31(H31A,H31B,H31C), C33(H33A,H33B,
 H33C), C16(H16A,H16B,H16C), C17(H17A,H17B,H17C)
;
_shelx_res_file
;
TITL mof2_sq in P4(3)2(1)2
CELL 1.54178 26.8901 26.8901 13.2591 90 90 90
ZERR 8 0.0002 0.0002 0.0003 0 0 0
LATT -1
SYMM 0.5-Y,0.5+X,0.25+Z
SYMM -X,-Y,0.5+Z
SYMM 0.5+Y,0.5-X,0.75+Z
SYMM 0.5+X,0.5-Y,0.75-Z
SYMM 0.5-X,0.5+Y,0.25-Z
SYMM +Y,+X,-Z
SYMM -Y,-X,0.5-Z
SFAC C H Br Cd N O Ti
UNIT 328 416 8 8 32 44 8
DFIX 1.4 C34 C28
DFIX 1.25 O6A C40A
DFIX 1.22 O6 C40 O5 C40
DFIX 1.51 C40A C41A
DFIX 1.51 C41 C40 C41A C40A
SADI O6A C41A C41A O5A
FLAT C22 N3 > C21
DELU Cd1 C37
DELU 0.005 0.01 C28 C34A
DELU 0.005 0.01 C34 C35
DELU 0.005 0.01 C34 C38
DELU 0.005 0.01 N4 C37
DELU 0.005 0.01 C37A N4A
DELU 0.005 0.01 C34A C38A
DELU C40 O6
DELU C22A C21A
DELU 0.005 0.005 C12 C18A
DELU C18A C19A
DELU 0.005 0.01 C35A C34A
DELU 0.005 0.01 O5 N4
DELU 0.005 0.005 O5 C40
DELU O5 C40
DELU C40 C41
DELU 0.005 0.01 C37A N4A
DELU 0.005 0.01 C38A C34A
DELU 0.005 0.01 C20A
DELU 0.005 0.01 N3A C21A
SIMU 0.001 0.08 1.7 Cd1A O6
SIMU 0.04 0.08 1.7 C37 C38
SIMU 0.04 0.08 1.7 Cd1 C37
SIMU 0.04 0.08 1.7 C35 C36
SIMU 0.04 0.08 1.7 C34 C35
SIMU 0.04 0.08 1.7 C34 C38
SIMU 0.04 0.08 1.7 C28 C34A
SIMU 0.04 0.08 1.7 C28 C34
SIMU 0.01 0.08 1.7 C34A C38A
SIMU 0.001 1.7 1.7 C40 O6
SIMU 0.02 0.08 1.7 C40 O6
SIMU 0.02 0.08 1.7 O6A C40A
SIMU 0.04 0.08 1.7 C22A C21A
SIMU 0.04 0.08 1.7 C12 C18A
SIMU 0.04 0.08 1.7 C18A C19A
SIMU 0.04 0.08 1.7 C35A C34A
SIMU 0.02 0.08 1.7 C36A C35A
SIMU 0.02 0.08 1.7 O5 N4
SIMU 0.02 0.08 1.7 O5 C40
SIMU 0.01 0.08 1.7 O5A C40A
SIMU 0.02 0.08 1.7 C40 C41
SIMU 0.005 0.08 1.7 C41A C40A
RIGU C18A C12
RIGU C22A C21A
ISOR 0.001 0.2 O5
ISOR 0.001 0.2 C37A
EADP C40A C40
EADP O6 O6A
EADP C41A C41
EADP C41A C41

L.S. 10 0 44
PLAN  20
SIZE 0.07 0.05 0.05
TEMP -100
GRID
ABIN
fmap 2
acta
MERG 2
REM <olex2.extras>
REM <HklSrc "%.\\mof2_sq.hkl">
REM </olex2.extras>

WGHT    0.150000    8.431600
FVAR       0.05703   0.54488
TI1   7    0.305732    0.774185    0.678715    11.00000    0.02281    0.02819 =
         0.05664    0.00313    0.00117    0.00104
O4    6    0.287092    0.820895    0.775170    11.00000    0.03574    0.02659 =
         0.06588   -0.00131    0.00469   -0.00145
O0AA  6    0.322451    0.825667    0.580932    11.00000    0.02645    0.03094 =
         0.06117    0.00956    0.00559   -0.00018
N0AA  5    0.236651    0.773170    0.589795    11.00000    0.03481    0.03282 =
         0.06094    0.01398   -0.00407   -0.00189
AFIX  13
H0AA  2    0.211713    0.753823    0.629680    11.00000   -1.20000
AFIX   0
N2    5    0.320799    0.716166    0.558926    11.00000    0.03843    0.03135 =
         0.05712    0.00589    0.00443    0.00010
AFIX  13
H2    2    0.343710    0.730995    0.507692    11.00000   -1.20000
AFIX   0
O3    6    0.276318    0.723682    0.750000    10.50000    0.02824    0.02824 =
         0.05737   -0.00194   -0.00194    0.00156
O1AA  6    0.372207    0.762474    0.709518    11.00000    0.02161    0.03635 =
         0.06759    0.00177    0.00024    0.00171
C3AA  1    0.274298    0.700756    0.506647    11.00000    0.04553    0.04238 =
         0.05305    0.01007   -0.01272   -0.01055
AFIX  13
H3AA  2    0.255861    0.677508    0.552112    11.00000   -1.20000
AFIX   0
C23   1    0.345768    0.671543    0.603623    11.00000    0.04029    0.04047 =
         0.06329    0.00481    0.00793    0.00981
AFIX  23
H23A  2    0.351941    0.647219    0.548990    11.00000   -1.20000
H23B  2    0.322551    0.655882    0.652091    11.00000   -1.20000
AFIX  66
C11   1    0.302863    0.910746    0.372862    11.00000    0.03642    0.03124 =
         0.06980    0.00206    0.00057   -0.00280
AFIX  43
H11   2    0.321520    0.929893    0.326020    11.00000   -1.20000
AFIX  65
C6AA  1    0.327227    0.882037    0.444685    11.00000    0.03660    0.02472 =
         0.06122    0.00040    0.00604   -0.00033
C9    1    0.299929    0.854024    0.513223    11.00000    0.03081    0.02561 =
         0.05559   -0.00330    0.00096    0.00236
C8    1    0.248267    0.854719    0.509937    11.00000    0.03487    0.02916 =
         0.07267    0.00188   -0.00373    0.00221
C13   1    0.223903    0.883428    0.438114    11.00000    0.03405    0.03260 =
         0.09308    0.01296   -0.01018   -0.00147
AFIX  43
H13   2    0.188595    0.883903    0.435869    11.00000   -1.20000
AFIX  65
C12   1    0.251200    0.911442    0.369576    11.00000    0.03414    0.03576 =
         0.08377    0.01645   -0.01137   -0.00516
AFIX  66
C29   1    0.427608    0.641768    0.661262    11.00000    0.04653    0.03980 =
         0.08236    0.00906    0.02207    0.00515
AFIX  43
H29   2    0.420221    0.611775    0.626487    11.00000   -1.20000
AFIX  65
C28   1    0.471485    0.645968    0.716026    11.00000    0.02982    0.06773 =
         0.09105    0.02771    0.01215    0.02137
C4AA  1    0.482293    0.689852    0.766907    11.00000    0.02888    0.05373 =
         0.09790    0.02128    0.00674    0.00954
AFIX  43
H4AA  2    0.512281    0.692723    0.804336    11.00000   -1.20000
AFIX  65
C26   1    0.449224    0.729536    0.763024    11.00000    0.02539    0.05008 =
         0.06786    0.00988    0.00593    0.00223
C24   1    0.405347    0.725336    0.708261    11.00000    0.02534    0.03530 =
         0.06809    0.00621    0.00836    0.00844
C25   1    0.394538    0.681453    0.657379    11.00000    0.03102    0.04008 =
         0.06917    0.01145    0.01582    0.00646
AFIX   0
C39   1    0.297151    0.872043    0.784627    11.00000    0.07710    0.04196 =
         0.08580   -0.00779    0.02561   -0.01161
AFIX  33
H39A  2    0.281094    0.884888    0.845650    11.00000   -1.50000
H39B  2    0.333158    0.877181    0.789308    11.00000   -1.50000
H39C  2    0.284207    0.889677    0.725510    11.00000   -1.50000
AFIX   0
PART 1
CD1   4    0.626271    0.452824    0.711054    21.00000    0.05569    0.05360 =
         0.08634    0.02255    0.01880    0.02572
PART 0
C1AA  1    0.217244    0.824721    0.581476    11.00000    0.02709    0.03485 =
         0.08394    0.00781    0.00316    0.00081
AFIX  23
H1AA  2    0.217520    0.840635    0.648803    11.00000   -1.20000
H1AB  2    0.182432    0.823833    0.557239    11.00000   -1.20000
AFIX   0
C14   1    0.385567    0.882169    0.448688    11.00000    0.03280    0.03841 =
         0.06482    0.00551    0.00577    0.00272
C7AA  1    0.281565    0.675262    0.406934    11.00000    0.08561    0.04779 =
         0.05857   -0.00365   -0.01038    0.00039
AFIX  23
H7AA  2    0.301046    0.644432    0.417159    11.00000   -1.20000
H7AB  2    0.300763    0.697283    0.361497    11.00000   -1.20000
AFIX   0
C30   1    0.461704    0.779083    0.820437    11.00000    0.01392    0.07952 =
         0.07880    0.01545   -0.00514   -0.00186
C15   1    0.405183    0.828279    0.435438    11.00000    0.05858    0.05329 =
         0.07357    0.01201    0.01779    0.02539
AFIX 137
H15A  2    0.395622    0.808280    0.494107    11.00000   -1.50000
H15B  2    0.441507    0.828842    0.429536    11.00000   -1.50000
H15C  2    0.390805    0.813688    0.374307    11.00000   -1.50000
AFIX   0
C5    1    0.198568    0.707486    0.345952    11.00000    0.08910    0.07320 =
         0.07717    0.01853   -0.02411   -0.02276
AFIX  23
H5A   2    0.213269    0.730307    0.295514    11.00000   -1.20000
H5B   2    0.165803    0.696541    0.320125    11.00000   -1.20000
AFIX   0
C2AA  1    0.242156    0.747509    0.491740    11.00000    0.04635    0.03813 =
         0.06358    0.01155   -0.01260   -0.01213
AFIX  13
H2AA  2    0.260429    0.770353    0.445174    11.00000   -1.20000
AFIX   0
C32   1    0.461292    0.822904    0.750357    11.00000    0.03817    0.04248 =
         0.09003    0.00314   -0.00943   -0.00330
AFIX 137
H32A  2    0.487855    0.819170    0.700322    11.00000   -1.50000
H32B  2    0.466655    0.853481    0.789076    11.00000   -1.50000
H32C  2    0.429097    0.824677    0.715907    11.00000   -1.50000
AFIX   0
C31   1    0.514215    0.776634    0.874665    11.00000    0.03111    0.09722 =
         0.08413    0.01433   -0.01222   -0.00187
AFIX 137
H31A  2    0.515740    0.746945    0.917419    11.00000   -1.50000
H31B  2    0.518779    0.806379    0.916358    11.00000   -1.50000
H31C  2    0.540576    0.775065    0.823726    11.00000   -1.50000
AFIX   0
C33   1    0.422726    0.786973    0.903922    11.00000    0.03988    0.08045 =
         0.07319   -0.00275    0.00782   -0.00401
AFIX 137
H33A  2    0.390413    0.794401    0.873240    11.00000   -1.50000
H33B  2    0.432906    0.814820    0.946903    11.00000   -1.50000
H33C  2    0.420041    0.756723    0.944781    11.00000   -1.50000
AFIX   0
C8AA  1    0.191284    0.734735    0.441936    11.00000    0.05968    0.05371 =
         0.08076    0.00883   -0.03099   -0.02163
AFIX  23
H8AA  2    0.171360    0.714106    0.488755    11.00000   -1.20000
H8AB  2    0.172652    0.765819    0.428775    11.00000   -1.20000
AFIX   0
C16   1    0.402496    0.903670    0.545866    11.00000    0.03843    0.03542 =
         0.09581    0.00646   -0.01019   -0.00134
AFIX 137
H16A  2    0.389372    0.937494    0.552861    11.00000   -1.50000
H16B  2    0.438921    0.904644    0.547252    11.00000   -1.50000
H16C  2    0.390376    0.883072    0.601666    11.00000   -1.50000
AFIX   0
PART 1
C22   1    0.233029    0.990317    0.280279    21.00000    0.04082    0.07486 =
         0.04706    0.02354    0.00315    0.01194
AFIX  43
H22   2    0.261991    1.004407    0.309720    21.00000   -1.20000
AFIX   0
PART 0
C17   1    0.408126    0.912490    0.362905    11.00000    0.04444    0.09028 =
         0.10197    0.04380    0.02066    0.00471
AFIX 137
H17A  2    0.405331    0.893812    0.299691    11.00000   -1.50000
H17B  2    0.443262    0.919029    0.377376    11.00000   -1.50000
H17C  2    0.390279    0.944110    0.356531    11.00000   -1.50000
AFIX   0
C5AA  1    0.232132    0.662377    0.357648    11.00000    0.10362    0.05571 =
         0.07652   -0.00550   -0.01730   -0.01348
AFIX  23
H5AA  2    0.238460    0.647731    0.290357    11.00000   -1.20000
H5AB  2    0.214894    0.637050    0.399054    11.00000   -1.20000
AFIX   0
BR1   3    0.591682    0.397486    0.869249    21.00000    0.08490    0.16411 =
         0.16431    0.07758    0.02557    0.01787
PART 1
O5    6    0.705829    0.426543    0.741780    21.00000    0.09605    0.09646 =
         0.09593    0.00082    0.00023    0.00031
PART 0
PART 2
CD1A  4    0.642101    0.471386    0.764802   -21.00000    0.06115    0.05741 =
         0.09879    0.03616    0.02747    0.02627
PART 0
PART 1
C40   1    0.715492    0.466628    0.790050    21.00000    0.06569    0.06094 =
         0.10268    0.03181    0.02433    0.02309
PART 0
BR1A  3    0.603565    0.425773    0.925875   -21.00000    0.07117    0.11899 =
         0.14462    0.06506    0.02070    0.02015
PART 1
O6    6    0.684782    0.498245    0.812880    21.00000    0.06473    0.06047 =
         0.10186    0.03257    0.02493    0.02384
C41   1    0.768312    0.476927    0.821635    21.00000    0.11206    0.14103 =
         0.10429    0.01685   -0.03838   -0.01232
AFIX  33
H41A  2    0.789725    0.449474    0.799793    21.00000   -1.50000
H41B  2    0.779680    0.507953    0.790455    21.00000   -1.50000
H41C  2    0.769891    0.480055    0.895204    21.00000   -1.50000
AFIX   0
PART 0
PART 2
O6A   6    0.699817    0.523972    0.862926   -21.00000    0.06473    0.06047 =
         0.10186    0.03257    0.02493    0.02384
O5A   6    0.718365    0.446287    0.786192   -21.00000    0.06392    0.06784 =
         0.13538    0.06024    0.02753    0.04618
C41A  1    0.783087    0.497356    0.845073   -21.00000    0.11206    0.14103 =
         0.10429    0.01685   -0.03838   -0.01232
AFIX  33
H41D  2    0.800880    0.467632    0.822119   -21.00000   -1.50000
H41E  2    0.792694    0.525845    0.803298   -21.00000   -1.50000
H41F  2    0.791598    0.504099    0.915627   -21.00000   -1.50000
AFIX   0
C40A  1    0.727828    0.488881    0.836108   -21.00000    0.06569    0.06094 =
         0.10268    0.03181    0.02433    0.02309
PART 0
PART 1
AFIX  66
C38   1    0.499766    0.562002    0.636540    21.00000    0.03116    0.06144 =
         0.07719    0.01401    0.00751    0.00801
AFIX  43
H38   2    0.476656    0.565010    0.582691    21.00000   -1.20000
AFIX  65
C34   1    0.502361    0.598721    0.710140    21.00000    0.04000    0.04779 =
         0.08777    0.01440   -0.01000    0.02345
C35   1    0.536175    0.594320    0.788928    21.00000    0.06912    0.08134 =
         0.09505   -0.00019   -0.02771    0.02908
AFIX  43
H35   2    0.537948    0.619415    0.839231    21.00000   -1.20000
AFIX  65
C36   1    0.567395    0.553200    0.794116    21.00000    0.07963    0.08150 =
         0.08892    0.01414   -0.05664    0.01565
AFIX  43
H36   2    0.590505    0.550192    0.847965    21.00000   -1.20000
AFIX  65
N4    5    0.564801    0.516481    0.720516    21.00000    0.03524    0.09037 =
         0.07616   -0.00012    0.00259    0.00983
C37   1    0.530987    0.520882    0.641728    21.00000    0.04214    0.05749 =
         0.07290    0.02692    0.00998    0.02838
AFIX  43
H37   2    0.529213    0.495786    0.591425    21.00000   -1.20000
AFIX  66
PART 0
PART 2
N4A   5    0.579694    0.527660    0.756606   -21.00000    0.04084    0.04204 =
         0.07304    0.01480    0.00907   -0.00184
C36A  1    0.576554    0.563269    0.832330   -21.00000    0.03969    0.10425 =
         0.08223    0.01715   -0.01466    0.01203
AFIX  43
H36A  2    0.597692    0.561175    0.889582   -21.00000   -1.20000
AFIX  65
C35A  1    0.542487    0.601944    0.824285   -21.00000    0.04940    0.09010 =
         0.06427    0.03526    0.00287    0.02923
AFIX  43
H35A  2    0.540341    0.626281    0.876039   -21.00000   -1.20000
AFIX  65
C34A  1    0.511559    0.605009    0.740516   -21.00000    0.03717    0.04590 =
         0.07129    0.02282    0.00279    0.01054
C38A  1    0.514699    0.569400    0.664792   -21.00000    0.04222    0.04315 =
         0.07123    0.02414   -0.01040    0.01611
AFIX  43
H38A  2    0.493561    0.571495    0.607540   -21.00000   -1.20000
AFIX  65
C37A  1    0.548766    0.530725    0.672836   -21.00000    0.06513    0.06509 =
         0.06499    0.00008    0.00021    0.00003
AFIX  43
H37A  2    0.550911    0.506388    0.621081   -21.00000   -1.20000
AFIX   0
PART 0
PART 1
N3    5    0.166587    1.002354    0.176379    21.00000    0.06083    0.04975 =
         0.06502    0.02360   -0.01756   -0.01110
C19   1    0.177942    0.928204    0.258642    21.00000    0.03346    0.03598 =
         0.09752    0.02228   -0.00928   -0.00780
AFIX  43
H19   2    0.166103    0.895646    0.272682    21.00000   -1.20000
AFIX   0
C20   1    0.152134    0.957055    0.195292    21.00000    0.05715    0.06704 =
         0.10680    0.02406   -0.00971   -0.03037
AFIX  43
H20   2    0.123022    0.944413    0.163823    21.00000   -1.20000
AFIX   0
C18   1    0.219600    0.943600    0.302578    21.00000    0.01601    0.03744 =
         0.06744    0.02290    0.00837   -0.00441
C21   1    0.205403    1.016860    0.216425    21.00000    0.05336    0.04889 =
         0.07023    0.00430    0.00386   -0.01560
AFIX  43
H21   2    0.216459    1.049485    0.200513    21.00000   -1.20000
AFIX  66
PART 0
PART 2
C22A  1    0.239577    0.988008    0.255864   -21.00000    0.02438    0.02870 =
         0.04362    0.00935   -0.00804   -0.01451
AFIX  43
H22A  2    0.264640    1.005008    0.292761   -21.00000   -1.20000
AFIX  65
C18A  1    0.229847    0.938188    0.275665   -21.00000    0.03015    0.03962 =
         0.07578    0.01699    0.00583    0.00613
C19A  1    0.193176    0.913316    0.221678   -21.00000    0.06524    0.02115 =
         0.08098    0.01102   -0.00591    0.01250
AFIX  43
H19A  2    0.186526    0.879266    0.235212   -21.00000   -1.20000
AFIX  65
C20A  1    0.166234    0.938263    0.147889   -21.00000    0.05798    0.06213 =
         0.10120    0.02497   -0.01816   -0.01977
AFIX  43
H20A  2    0.141171    0.921264    0.110991   -21.00000   -1.20000
AFIX  65
N3A   5    0.175964    0.988083    0.128086   -21.00000    0.06449    0.05517 =
         0.07104    0.03794   -0.04212   -0.02864
C21A  1    0.212635    1.012956    0.182073   -21.00000    0.03296    0.05225 =
         0.06047    0.03234   -0.01295   -0.01956
AFIX  43
H21A  2    0.219284    1.047006    0.168538   -21.00000   -1.20000
AFIX   0
HKLF 4

REM  mof2_sq in P4(3)2(1)2
REM R1 =  0.0672 for    5995 Fo > 4sig(Fo)  and  0.0775 for all    6936 data
REM    574 parameters refined using    157 restraints

END

WGHT      0.1500      8.4314

REM Highest difference peak  0.521,  deepest hole -1.063,  1-sigma level  0.109
Q1    1   0.8000  0.5238  0.7584  11.00000  0.05    0.52
Q2    1   0.3364  0.8770  0.4334  11.00000  0.05    0.49
Q3    1   0.6868  0.5332  0.7977  11.00000  0.05    0.49
Q4    1   0.6588  0.4759  0.9387  11.00000  0.05    0.45
Q5    1   0.6092  0.4608  0.7645  11.00000  0.05    0.45
Q6    1   0.2984  0.7868  0.6419  11.00000  0.05    0.42
Q7    1   0.5577  0.4169  0.8181  11.00000  0.05    0.41
Q8    1   0.3178  0.6822  0.7500  10.50000  0.05    0.38
Q9    1   0.4699  0.7082  0.7685  11.00000  0.05    0.37
Q10   1   0.2238  0.8000  0.5652  11.00000  0.05    0.35
Q11   1   0.6911  0.4924  0.9141  11.00000  0.05    0.35
Q12   1   0.6582  0.5058  0.8337  11.00000  0.05    0.35
Q13   1   0.6895  0.5088  0.9247  11.00000  0.05    0.34
Q14   1   0.2999  0.7942  0.8079  11.00000  0.05    0.33
Q15   1   0.5601  0.5396  0.7686  11.00000  0.05    0.32
Q16   1   0.4568  0.7363  0.7835  11.00000  0.05    0.31
Q17   1   0.6922  0.3869  0.6768  11.00000  0.05    0.31
Q18   1   0.5187  0.4727  0.5384  11.00000  0.05    0.30
Q19   1   0.4338  0.6587  0.6475  11.00000  0.05    0.30
Q20   1   0.2212  0.7448  0.4628  11.00000  0.05    0.30
;
_shelx_res_checksum              87575
_shelx_fab_checksum              11622
_shelx_fab_file
;
    0    2    0    125.99      0.00
    1    2    0     47.52     -0.05
    2    2    0     44.80      0.02
    2    3    0      7.53      0.01
    3    3    0      3.02     -0.04
    3    4    0      5.50      0.01
    1    4    0     42.05      0.00
    2    4    0     -7.09      0.04
    4    4    0      7.89      0.04
    4    5    0    -31.64      0.03
    3    5    0     28.52     -0.03
    2    5    0    -48.24      0.03
    1    5    0     12.63     -0.02
    5    5    0      2.84     -0.09
    5    6    0      4.86      0.03
    4    6    0     -1.64      0.00
    3    6    0     14.95     -0.01
    2    6    0      4.11     -0.02
    1    6    0     16.16     -0.01
    0    6    0    -35.99      0.01
    6    6    0    -21.24      0.03
    6    7    0      6.65     -0.04
    5    7    0    -12.02     -0.02
    4    7    0      4.33      0.04
    3    7    0     16.63      0.01
    2    7    0    -19.93      0.06
    1    7    0     29.58     -0.01
    7    7    0    -11.91      0.00
    7    8    0     -4.68     -0.02
    6    8    0      0.96      0.08
    5    8    0     12.32      0.01
    4    8    0     -1.74      0.01
    3    8    0     16.51     -0.04
    2    8    0    -15.25     -0.05
    1    8    0     -0.38     -0.04
    8    8    0      4.60      0.02
    8    9    0     -9.22      0.02
    7    9    0      5.71      0.00
    6    9    0     -1.85     -0.05
    5    9    0     -0.05      0.00
    4    9    0      4.42     -0.03
    3    9    0      5.65      0.02
    2    9    0    -11.80      0.01
    1    9    0     21.10      0.03
    9    9    0      5.66      0.03
    9   10    0      6.94     -0.01
    8   10    0     -0.75     -0.04
    7   10    0      5.26      0.01
    6   10    0      5.69      0.03
    5   10    0      1.46      0.01
    4   10    0     -1.49      0.00
    3   10    0     -0.23     -0.01
    2   10    0    -16.30      0.01
    1   10    0     -6.43      0.00
    0   10    0    -21.17      0.04
   10   10    0     -2.99     -0.06
   10   11    0     -0.97      0.05
    9   11    0     -1.95      0.03
    8   11    0    -10.05      0.03
    7   11    0      0.32     -0.01
    6   11    0     -6.55     -0.01
    5   11    0     -2.72      0.01
    4   11    0     -0.56      0.00
    3   11    0     -0.98      0.00
    2   11    0     -5.38     -0.01
    1   11    0     17.15     -0.03
   11   11    0      2.37     -0.01
   11   12    0     -0.28      0.01
   10   12    0      0.98     -0.05
    9   12    0      5.79      0.01
    8   12    0      0.11     -0.04
    7   12    0      7.91      0.04
    6   12    0      0.15     -0.02
    5   12    0      0.03     -0.02
    4   12    0      0.58     -0.04
    3   12    0      0.15     -0.02
    2   12    0     -3.84      0.02
    1   12    0      0.69      0.02
    0   12    0     -1.52      0.06
   12   12    0     -2.23      0.03
   12   13    0      1.17     -0.05
   11   13    0      0.42      0.01
   10   13    0     -2.19      0.01
    9   13    0     -2.86      0.01
    8   13    0     -4.76     -0.02
    7   13    0      0.58     -0.03
    6   13    0     -1.99      0.01
    5   13    0     -1.31      0.00
    4   13    0      3.61      0.06
    3   13    0     -2.87      0.02
    2   13    0      3.42      0.02
    1   13    0      5.87     -0.04
   13   13    0      0.36      0.00
   13   14    0     -0.32     -0.01
   12   14    0     -1.00      0.03
   11   14    0      0.10     -0.03
   10   14    0      3.25      0.00
    9   14    0      0.39     -0.01
    8   14    0      1.91      0.03
    7   14    0      0.52      0.03
    6   14    0     -2.02      0.02
    5   14    0     -1.74     -0.01
    4   14    0      2.16     -0.02
    3   14    0     -1.14     -0.02
    2   14    0     -2.11     -0.01
    1   14    0      1.01      0.02
    0   14    0     -7.00      0.00
   14   14    0      0.48      0.02
   14   15    0      0.56     -0.02
   13   15    0     -1.40      0.01
   12   15    0      1.66     -0.01
   11   15    0     -3.97      0.04
   10   15    0     -0.43      0.03
    9   15    0     -1.68      0.01
    8   15    0     -0.83     -0.02
    7   15    0      2.62     -0.02
    6   15    0      0.05     -0.02
    5   15    0      1.51     -0.01
    4   15    0      2.73      0.02
    3   15    0      0.36     -0.01
    2   15    0      1.52      0.01
    1   15    0      4.33     -0.02
   15   15    0     -0.33     -0.01
   15   16    0     -2.45      0.04
   14   16    0      1.57     -0.01
   13   16    0     -2.30      0.01
   12   16    0      0.59      0.00
   11   16    0      3.38     -0.04
   10   16    0      1.26     -0.01
    9   16    0      2.07     -0.03
    8   16    0      0.80      0.03
    7   16    0     -1.30     -0.01
    6   16    0     -1.31      0.03
    5   16    0      0.34     -0.01
    4   16    0      0.11      0.01
    3   16    0     -1.68      0.01
    2   16    0     -3.37      0.00
    1   16    0     -2.18      0.02
    0   16    0     -7.55     -0.02
   16   16    0      0.76     -0.03
   16   17    0      0.68      0.02
   15   17    0      0.76     -0.06
   14   17    0     -0.31      0.00
   13   17    0      2.59     -0.02
   12   17    0     -2.28      0.02
   11   17    0     -0.03      0.03
   10   17    0      0.67      0.04
    9   17    0     -2.00     -0.01
    8   17    0      0.58      0.00
    7   17    0     -0.33      0.00
    6   17    0     -1.48     -0.02
    5   17    0      1.57      0.02
    4   17    0     -0.80     -0.02
    3   17    0      1.41      0.00
    2   17    0     -2.12     -0.03
    1   17    0      4.88     -0.02
   17   17    0     -1.84     -0.03
   17   18    0      1.18     -0.03
   16   18    0     -2.50      0.01
   15   18    0      1.39      0.05
   14   18    0     -2.23      0.01
   13   18    0      0.52      0.04
   12   18    0      1.22     -0.02
   11   18    0      1.06     -0.02
   10   18    0      1.13     -0.04
    9   18    0     -1.39      0.00
    8   18    0     -0.66     -0.01
    7   18    0     -1.05      0.00
    6   18    0     -1.84     -0.01
    5   18    0      4.05     -0.02
    4   18    0     -4.12      0.00
    3   18    0      2.67      0.01
    2   18    0     -2.58      0.02
    1   18    0     -0.39      0.03
    0   18    0      1.66      0.00
   18   18    0      0.13      0.03
   18   19    0     -1.73     -0.02
   17   19    0      1.09      0.04
   16   19    0     -0.21      0.00
   15   19    0      1.78     -0.03
   14   19    0      0.72     -0.02
   13   19    0      0.81     -0.03
   12   19    0     -0.18      0.00
   11   19    0      0.16      0.01
   10   19    0      0.77      0.01
    9   19    0     -1.40     -0.02
    8   19    0     -0.85      0.00
    7   19    0      2.68      0.00
    6   19    0     -2.51      0.01
    5   19    0      5.14      0.04
    4   19    0     -0.50      0.00
    3   19    0      0.22      0.02
    2   19    0      0.98     -0.03
    1   19    0      0.94     -0.02
   19   19    0      1.19      0.02
   19   20    0      0.05      0.00
   18   20    0      1.09      0.01
   17   20    0     -0.15     -0.06
   16   20    0     -0.46      0.02
   15   20    0     -0.43      0.00
   14   20    0     -1.34      0.03
   13   20    0     -0.62      0.03
   12   20    0      0.87      0.00
   11   20    0     -0.75      0.00
   10   20    0     -1.81      0.00
    9   20    0     -1.02      0.03
    8   20    0     -2.77     -0.01
    7   20    0      0.42      0.03
    6   20    0      0.39     -0.03
    5   20    0     -0.07     -0.01
    4   20    0     -1.83     -0.01
    3   20    0     -0.69      0.01
    2   20    0     -3.77      0.02
    1   20    0      0.78      0.01
    0   20    0     -1.06      0.00
   20   20    0     -2.40      0.00
   20   21    0      1.48      0.00
   19   21    0     -0.46     -0.01
   18   21    0      0.47      0.01
   17   21    0     -0.73      0.04
   16   21    0      0.24      0.01
   15   21    0      0.20      0.01
   14   21    0      1.38     -0.01
   13   21    0      0.01      0.00
   12   21    0      0.84     -0.01
   11   21    0      0.05      0.02
   10   21    0     -0.26     -0.02
    9   21    0     -0.76     -0.01
    8   21    0      2.38     -0.02
    7   21    0      2.18     -0.01
    6   21    0      0.89      0.01
    5   21    0      3.62      0.02
    4   21    0     -1.66      0.01
    3   21    0      1.33     -0.01
    2   21    0      1.21     -0.03
    1   21    0      3.18     -0.02
   21   21    0      1.37     -0.03
   20   22    0     -1.30      0.00
   19   22    0      0.06      0.03
   18   22    0      0.98     -0.01
   17   22    0     -0.71     -0.02
   16   22    0      0.86      0.01
   15   22    0     -1.27     -0.01
   14   22    0      0.15      0.01
   13   22    0     -0.60      0.00
   12   22    0      0.75     -0.02
   11   22    0     -1.21     -0.02
   10   22    0     -0.56      0.00
    9   22    0     -0.22      0.01
    8   22    0     -0.64      0.01
    7   22    0      2.02      0.02
    6   22    0     -1.21     -0.02
    5   22    0     -1.28     -0.01
    4   22    0     -2.04      0.01
    3   22    0     -2.51     -0.01
    2   22    0     -2.00      0.03
    1   22    0      0.91     -0.01
    0   22    0     -2.32     -0.02
   19   23    0     -0.59     -0.02
   18   23    0      0.31      0.01
   17   23    0     -1.57      0.00
   16   23    0      0.12      0.00
   15   23    0     -0.33     -0.02
   14   23    0      0.62     -0.01
   13   23    0      0.37      0.00
   12   23    0     -0.73      0.00
   11   23    0     -0.34      0.03
   10   23    0     -1.39     -0.01
    9   23    0     -0.23      0.00
    8   23    0      2.47      0.00
    7   23    0     -0.59     -0.02
    6   23    0      0.83      0.02
    5   23    0      0.33     -0.01
    4   23    0     -1.21      0.00
    3   23    0      1.76     -0.03
    2   23    0      2.20     -0.02
    1   23    0      0.55      0.03
   18   24    0     -0.03     -0.03
   17   24    0      0.41      0.00
   16   24    0      0.31      0.00
   15   24    0      0.65      0.02
   14   24    0      0.41      0.01
   13   24    0      0.98      0.01
   12   24    0      0.23     -0.02
   11   24    0     -0.57     -0.01
   10   24    0      1.93      0.01
    9   24    0     -0.36     -0.01
    8   24    0      3.12      0.01
    7   24    0      0.46     -0.01
    6   24    0     -1.57     -0.02
    5   24    0     -0.49      0.01
    4   24    0     -1.66      0.01
    3   24    0     -0.98      0.04
    2   24    0      1.92      0.02
    1   24    0      0.30      0.00
    0   24    0      0.70     -0.04
   16   25    0      0.23      0.00
   15   25    0     -0.01     -0.02
   14   25    0      0.40      0.00
   13   25    0     -1.01     -0.01
   12   25    0     -0.92      0.01
   11   25    0     -1.47      0.01
   10   25    0     -0.62     -0.01
    9   25    0     -0.07      0.00
    8   25    0      0.39      0.00
    7   25    0     -1.83      0.02
    6   25    0     -0.10      0.03
    5   25    0     -1.12      0.01
    4   25    0     -0.19      0.00
    3   25    0      0.60     -0.03
    2   25    0     -0.17     -0.01
    1   25    0     -2.99      0.02
   15   26    0      0.08      0.01
   14   26    0     -0.21      0.00
   13   26    0     -0.19      0.01
   12   26    0     -0.52     -0.01
   11   26    0      0.55      0.02
   10   26    0      1.25      0.02
    9   26    0      1.02      0.01
    8   26    0      2.05      0.02
    7   26    0     -1.78     -0.02
    6   26    0     -0.59     -0.02
    5   26    0     -0.74     -0.01
    4   26    0      0.17      0.00
    3   26    0      1.66      0.00
    2   26    0      3.40     -0.01
    1   26    0      0.64     -0.02
    0   26    0      2.64     -0.03
   13   27    0     -0.55     -0.01
   12   27    0     -0.07      0.02
   11   27    0     -0.13     -0.02
   10   27    0      0.20     -0.01
    9   27    0      0.07     -0.02
    8   27    0     -0.83     -0.01
    7   27    0     -1.47      0.01
    6   27    0      0.70      0.00
    5   27    0     -0.67      0.00
    4   27    0      1.73     -0.02
    3   27    0     -0.45      0.00
    2   27    0     -1.13      0.01
    1   27    0     -2.44      0.03
   11   28    0      0.59      0.01
   10   28    0      0.72      0.00
    9   28    0      0.89      0.01
    8   28    0      0.30     -0.01
    7   28    0     -1.29     -0.01
    6   28    0      0.95     -0.01
    5   28    0     -0.28      0.01
    4   28    0      1.00      0.01
    3   28    0      1.09      0.00
    2   28    0      0.84     -0.01
    1   28    0     -0.20     -0.03
    0   28    0      0.41     -0.01
    8   29    0     -1.27      0.00
    7   29    0     -0.90      0.01
    6   29    0     -0.34      0.00
    5   29    0      0.15     -0.02
    4   29    0      0.91     -0.01
    3   29    0     -0.75     -0.01
    2   29    0     -0.19      0.02
    1   29    0     -1.15      0.02
    0    1    1    -11.88    -11.81
    1    1    1      0.02    111.22
    1    2    1    -26.38    -11.29
    0    2    1     45.03    -45.08
    2    2    1     -0.01    -63.86
    2    3    1     -7.25     10.10
    0    3    1    -39.83    -39.76
    1    3    1    -61.56     71.70
    3    3    1     -0.01     11.28
    3    4    1      1.28     24.99
    2    4    1     14.06    -53.04
    1    4    1     16.00     32.74
    0    4    1     59.01    -59.08
    4    4    1     -0.05     -8.61
    4    5    1      9.13     -6.20
    3    5    1     -2.33      3.25
    2    5    1    -15.72      2.50
    0    5    1    -29.57    -29.59
    1    5    1    -32.86      9.82
    5    5    1      0.04     19.78
    5    6    1      1.33    -16.66
    4    6    1      9.62     14.95
    3    6    1     11.37    -14.78
    2    6    1      7.67    -11.82
    1    6    1     30.93     14.81
    0    6    1     23.38    -23.37
    6    6    1      0.03      4.22
    6    7    1      7.65      6.52
    5    7    1      7.02      0.72
    4    7    1      3.28     -1.48
    3    7    1     -5.65      3.43
    2    7    1    -18.06      0.83
    1    7    1    -22.79      4.02
    0    7    1     -9.70     -9.70
    7    7    1     -0.01     -8.34
    7    8    1     -4.87      6.50
    6    8    1      5.65     -8.28
    5    8    1     -0.62     -1.23
    4    8    1      6.83      9.27
    3    8    1     -5.53    -10.46
    1    8    1     11.53      5.71
    0    8    1      3.05     -3.06
    2    8    1      6.43      7.30
    8    8    1      0.02     -6.90
    8    9    1      7.26     -3.91
    7    9    1     -4.12      0.95
    6    9    1      7.86      4.58
    5    9    1     -5.63     -4.40
    4    9    1     -2.50      4.19
    3    9    1     -8.22     -6.16
    1    9    1     -1.79     -7.19
    0    9    1     -3.08     -3.09
    2    9    1    -14.00     -0.49
    9    9    1     -0.06      1.23
    9   10    1     -7.88     -2.79
    8   10    1      1.32      2.70
    7   10    1     -2.64      4.79
    6   10    1      3.37     -3.85
    5   10    1      0.49      5.31
    4   10    1     -2.28      3.87
    3   10    1     -0.75     -1.48
    2   10    1      3.88      9.62
    1   10    1      7.52      5.56
    0   10    1     -0.99      0.94
   10   10    1      0.00      2.38
   10   11    1      6.90      0.85
    9   11    1      2.10     -0.16
    8   11    1     -0.67     -2.12
    7   11    1     -1.32      4.62
    6   11    1     -1.41     -4.73
    5   11    1     -5.99     -0.40
    4   11    1      0.17     -2.25
    3   11    1     -2.94     -8.22
    2   11    1     -0.34     -2.78
    1   11    1      7.35     -9.41
    0   11    1     -0.20     -0.21
   11   11    1      0.02     -1.06
   11   12    1     -4.79     -0.59
   10   12    1     -3.69     -0.64
    9   12    1     -2.23     -1.46
    8   12    1      0.20      1.24
    7   12    1      1.10      0.44
    6   12    1      5.11     -2.32
    5   12    1     -0.17      1.40
    4   12    1      1.90      4.17
    3   12    1      2.69     -2.45
    2   12    1      2.82     11.69
    1   12    1      2.67     -1.32
    0   12    1     -4.54      4.52
   12   12    1      0.02      0.19
   12   13    1      1.51     -0.45
   11   13    1      2.49      0.23
   10   13    1      4.09      2.34
    9   13    1     -0.85     -1.02
    8   13    1     -1.42      3.75
    7   13    1     -1.17     -1.66
    6   13    1     -1.93     -0.35
    5   13    1     -1.33     -0.99
    4   13    1      2.44     -0.33
    3   13    1     -3.00     -4.83
    2   13    1      1.97      0.42
    1   13    1     -1.88     -1.97
    0   13    1     -0.71     -0.72
   13   13    1      0.02     -0.97
   13   14    1      1.24      0.80
   12   14    1     -1.10      1.22
   11   14    1     -3.10     -1.48
   10   14    1      0.15      1.95
    9   14    1      0.53     -2.60
    8   14    1      1.38      1.47
    7   14    1      2.59     -1.25
    6   14    1      2.35     -2.11
    5   14    1     -2.86      3.24
    4   14    1      3.80      1.21
    3   14    1     -2.99      1.21
    2   14    1      3.81      4.11
    1   14    1     -2.40     -2.16
    0   14    1     -0.17      0.18
   14   14    1     -0.03      0.06
   14   15    1     -1.86      0.78
   13   15    1      0.90     -1.75
   12   15    1      1.83      0.08
   11   15    1      1.17     -0.06
   10   15    1      1.28     -0.65
    9   15    1     -3.20      0.32
    8   15    1     -0.66     -0.85
    7   15    1     -1.75     -1.14
    6   15    1      1.10     -0.44
    5   15    1     -0.75      0.83
    4   15    1      2.72     -1.64
    3   15    1     -4.84     -2.48
    2   15    1      1.13      0.52
    1   15    1     -3.69     -2.72
    0   15    1      0.89      0.85
   15   15    1     -0.03      0.77
   15   16    1      1.50      0.09
   14   16    1      0.78     -0.38
   13   16    1     -0.13      1.63
   12   16    1      0.02     -1.85
   11   16    1     -1.75      1.50
   10   16    1      2.42     -0.03
    9   16    1     -0.07     -0.67
    8   16    1      0.84      1.77
    7   16    1      0.83     -0.28
    6   16    1     -0.75      0.49
    5   16    1     -2.25      3.76
    4   16    1      2.17      0.63
    3   16    1     -3.11      1.16
    2   16    1      3.33      1.44
    1   16    1      0.07      0.73
    0   16    1      0.67     -0.66
   16   16    1      0.00      0.95
   16   17    1     -0.67     -0.28
   15   17    1     -2.10      1.08
   14   17    1      0.80     -2.04
   13   17    1     -0.16     -0.72
   12   17    1      1.08     -0.03
   11   17    1     -0.28     -0.26
   10   17    1     -2.36      0.42
    9   17    1     -1.71      0.04
    8   17    1     -0.86     -0.68
    7   17    1     -0.22     -0.08
    6   17    1      2.40      0.13
    5   17    1     -0.69     -0.30
    4   17    1      1.59     -3.75
    3   17    1     -2.28     -0.76
    2   17    1      0.90     -3.19
    1   17    1      0.22     -1.74
    0   17    1      0.78      0.75
   17   17    1      0.03      0.06
   17   18    1      0.38      0.58
   16   18    1      2.23      0.52
   15   18    1      0.00     -0.95
   14   18    1      1.06      1.01
   13   18    1      1.13     -0.34
   12   18    1     -1.27     -0.01
   11   18    1      1.92      1.54
   10   18    1      0.97     -0.86
    9   18    1     -0.81     -0.38
    8   18    1      2.51      0.85
    7   18    1     -1.14     -0.67
    6   18    1      1.00      0.68
    5   18    1     -0.09      2.33
    4   18    1     -0.64     -1.04
    3   18    1      0.08      0.21
    2   18    1      0.38      2.30
    1   18    1      0.80      0.51
    0   18    1     -1.51      1.53
   18   18    1      0.02      0.88
   18   19    1      0.51      0.47
   17   19    1      0.04     -1.72
   16   19    1     -1.06      0.77
   15   19    1     -0.11     -1.34
   14   19    1     -0.41     -1.05
   13   19    1      1.09      0.40
   12   19    1     -1.02      0.38
   11   19    1     -2.29      0.08
   10   19    1     -0.93      0.80
    9   19    1     -2.97     -0.66
    8   19    1      1.43      0.22
    7   19    1      0.24     -0.58
    6   19    1     -0.10      0.34
    5   19    1      0.60     -3.52
    4   19    1     -2.73     -0.20
    3   19    1      0.64     -1.13
    2   19    1     -0.57      0.29
    1   19    1      0.22      2.14
    0   19    1      1.11      1.10
   19   19    1      0.01     -0.22
   19   20    1     -0.58     -0.45
   18   20    1     -1.31      0.91
   17   20    1      1.04     -0.25
   16   20    1     -0.70      0.05
   15   20    1     -0.21      0.11
   14   20    1      0.26      0.85
   13   20    1     -1.04     -0.50
   12   20    1     -0.41      1.57
   11   20    1     -0.23     -0.83
   10   20    1      0.51      0.00
    9   20    1     -0.03     -1.49
    8   20    1      1.70      2.23
    7   20    1      0.57     -1.54
    6   20    1     -0.12      3.16
    5   20    1      0.89      0.87
    4   20    1     -1.16     -0.06
    3   20    1      1.55      1.49
    2   20    1      2.00      1.46
    1   20    1     -1.08     -1.12
    0   20    1      1.36     -1.32
   20   20    1     -0.05     -0.01
   20   21    1     -0.08     -0.33
   19   21    1      1.12      0.71
   18   21    1      0.13     -0.72
   17   21    1      0.07     -0.04
   16   21    1     -0.21      0.33
   15   21    1      0.00     -1.54
   14   21    1      1.35      1.03
   13   21    1      0.65     -0.68
   12   21    1     -0.21      1.49
   11   21    1     -0.37     -1.58
   10   21    1      0.54      1.06
    9   21    1      0.48     -1.74
    8   21    1      2.71     -0.16
    7   21    1      0.83     -0.60
    6   21    1      0.23     -2.00
    5   21    1     -0.78     -1.67
    4   21    1     -1.35      0.46
    3   21    1     -0.12     -1.36
    2   21    1     -0.85      1.60
    1   21    1      0.25      0.18
    0   21    1     -1.00     -1.00
   21   21    1     -0.01     -0.79
   20   22    1     -0.48     -0.45
   19   22    1     -1.16      0.71
   18   22    1     -0.19      0.09
   17   22    1     -0.05     -0.94
   16   22    1     -0.23      0.85
   15   22    1      0.29     -0.37
   14   22    1      0.27      1.48
   13   22    1     -1.58     -0.51
   12   22    1     -0.27      0.64
   11   22    1     -0.88     -0.83
   10   22    1      0.40     -1.06
    9   22    1      0.16      1.55
    8   22    1     -0.22      1.75
    7   22    1     -1.56      0.60
    6   22    1     -2.07      3.58
    5   22    1     -1.51     -0.84
    4   22    1     -1.31      0.72
    3   22    1      2.29      0.95
    2   22    1     -0.87      0.27
    1   22    1      0.25     -1.32
    0   22    1     -0.08      0.14
   19   23    1      0.23     -0.23
   18   23    1      0.26      0.46
   17   23    1      0.07      0.54
   16   23    1      0.27      0.20
   15   23    1      0.15     -0.39
   14   23    1      1.36      0.07
   13   23    1     -0.73     -0.18
   12   23    1     -0.13     -0.53
   11   23    1      0.60      0.21
   10   23    1      0.07      0.24
    9   23    1      2.13     -1.07
    8   23    1      0.88      0.50
    7   23    1      0.52     -2.68
    6   23    1     -0.11     -1.19
    5   23    1      0.53     -0.65
    4   23    1      0.80     -0.50
    3   23    1      1.75     -0.21
    2   23    1      0.84      0.38
    1   23    1      1.25     -1.69
    0   23    1     -0.56     -0.54
   18   24    1      0.47     -0.89
   17   24    1      0.11     -0.55
   16   24    1      0.35     -0.38
   15   24    1      0.30     -0.11
   14   24    1     -0.70      0.46
   13   24    1     -0.55     -0.47
   12   24    1     -1.00     -0.03
   11   24    1      1.07     -0.91
   10   24    1      0.15     -0.31
    9   24    1      0.16      1.68
    8   24    1     -1.03      0.43
    7   24    1     -2.08      0.58
    6   24    1     -1.62      1.31
    5   24    1     -1.29     -1.41
    4   24    1     -0.26      0.93
    3   24    1      0.06      0.76
    2   24    1     -2.66     -0.25
    1   24    1     -0.05     -0.10
    0   24    1     -1.60      1.63
   16   25    1     -0.82      0.19
   15   25    1      0.41     -0.07
   14   25    1     -0.87      0.23
   13   25    1     -0.47      0.06
   12   25    1     -0.23      0.07
   11   25    1      0.43      1.48
   10   25    1      0.61     -0.28
    9   25    1      0.32      0.47
    8   25    1     -0.22     -0.42
    7   25    1     -0.61     -1.89
    6   25    1      0.09      0.82
    5   25    1      1.96     -0.18
    4   25    1      1.48      0.55
    3   25    1      2.66      0.67
    2   25    1      1.06     -0.29
    1   25    1      0.40     -0.49
    0   25    1      0.23      0.25
   15   26    1      0.11      0.49
   14   26    1     -0.25      0.00
   13   26    1     -0.03     -0.13
   12   26    1      0.49     -0.55
   11   26    1      1.31     -0.71
   10   26    1      0.25     -0.04
    9   26    1     -0.35      0.59
    8   26    1     -0.82     -0.48
    7   26    1     -0.60      0.40
    6   26    1     -0.50      0.14
    5   26    1      0.29     -1.05
    4   26    1     -0.08      1.02
    3   26    1     -1.44     -1.03
    2   26    1     -0.92     -1.06
    1   26    1     -0.15     -0.07
    0   26    1      0.49     -0.48
   13   27    1      0.40      0.12
   12   27    1      0.13      0.27
   11   27    1      0.52      0.68
   10   27    1     -0.04     -0.08
    9   27    1     -0.64      0.18
    8   27    1     -0.63     -0.86
    7   27    1     -0.40     -0.68
    6   27    1      1.34      0.82
    5   27    1      1.11     -0.54
    4   27    1      1.51      0.93
    3   27    1      0.69      0.70
    2   27    1     -0.60     -0.24
    1   27    1     -1.32      1.71
    0   27    1     -0.47     -0.42
   10   28    1     -0.48      0.35
    9   28    1     -0.83     -0.60
    8   28    1     -0.17      0.00
    7   28    1     -0.23      0.69
    6   28    1      0.68      0.03
    5   28    1      0.21      1.01
    4   28    1     -0.53     -0.42
    3   28    1     -1.00     -0.38
    2   28    1     -0.44     -1.59
    1   28    1      0.42      0.11
    0   28    1      0.80     -0.82
    7   29    1      0.94      0.68
    6   29    1      0.76     -0.45
    5   29    1      0.04     -0.21
    4   29    1     -0.23     -0.37
    3   29    1     -0.78      0.01
    2   29    1     -1.14      0.35
    1   29    1     -0.41      0.73
    0   29    1      0.35      0.38
    0   30    1      0.83     -0.88
    0    1    2    -26.64     -0.02
    1    1    2      3.98     -0.01
    1    2    2     -9.20      3.57
    2    2    2    -86.66      0.06
    2    3    2     13.90     -7.35
    1    3    2     15.17     -2.98
    0    3    2     33.86     -0.01
    3    3    2     39.45      0.01
    3    4    2     -8.51    -26.76
    2    4    2    -44.57    -15.83
    1    4    2     17.86    -14.72
    0    4    2      0.03    -16.13
    4    4    2     -9.59     -0.05
    4    5    2    -11.69     17.00
    3    5    2     38.90      0.34
    2    5    2    -14.28      4.99
    1    5    2     20.89     32.94
    0    5    2     -4.65      0.03
    5    5    2     22.67     -0.02
    5    6    2      7.54     -9.03
    4    6    2     -7.69    -11.04
    3    6    2     -6.81    -12.75
    2    6    2    -12.70    -14.31
    1    6    2     19.88     -4.22
    0    6    2      0.06     -7.67
    6    6    2     -9.47      0.00
    6    7    2     11.86      6.33
    5    7    2     -3.06      5.68
    4    7    2     -2.06     14.43
    3    7    2     10.39      0.81
    2    7    2    -18.58     24.79
    0    7    2    -23.27      0.05
    1    7    2     10.95     15.24
    7    7    2      0.82      0.03
    7    8    2     -1.00     -2.39
    6    8    2     -4.82      5.81
    5    8    2      2.15    -12.98
    4    8    2    -11.02     -0.01
    3    8    2     -1.23    -14.08
    2    8    2     -5.75     -9.27
    1    8    2     13.14     -2.79
    0    8    2     -0.01    -14.18
    8    8    2     -2.03      0.04
    8    9    2     -2.55      5.75
    7    9    2      6.02     -0.50
    6    9    2      3.20      7.14
    5    9    2     -8.99      1.81
    4    9    2      3.06      5.59
    3    9    2     -2.62      5.47
    2    9    2      0.24     13.42
    1    9    2      3.67      1.68
    0    9    2     -2.71     -0.02
    9    9    2      8.29     -0.03
    9   10    2     -3.59     -4.71
    8   10    2     -1.71     -0.86
    7   10    2     -6.68      0.82
    6   10    2      4.70     -2.87
    5   10    2     -5.26     -7.76
    4   10    2      5.43     -0.23
    3   10    2     -0.23    -13.01
    2   10    2      6.26     -0.69
    1   10    2      6.87     -5.41
    0   10    2     -0.01     -5.66
   10   10    2     -1.97     -0.03
   10   11    2      3.57      3.06
    9   11    2      0.76      2.34
    8   11    2      2.79      2.22
    7   11    2      2.46      1.52
    6   11    2      0.96      1.86
    5   11    2     -4.91     -1.19
    4   11    2      1.90      3.70
    3   11    2      0.58      3.63
    2   11    2     -2.82      2.58
    1   11    2      2.82     -1.32
    0   11    2     -8.28     -0.01
   11   11    2     -4.13      0.00
   11   12    2     -0.19      1.70
   10   12    2     -1.21      0.12
    9   12    2     -2.06     -2.97
    8   12    2     -2.89     -1.34
    7   12    2      3.08      0.00
    6   12    2      0.63     -6.78
    5   12    2      2.46      1.63
    4   12    2      1.59     -2.48
    3   12    2      0.61     -2.02
    2   12    2      1.12      6.76
    1   12    2      0.81     -2.62
    0   12    2      0.01      9.51
   12   12    2      4.14     -0.03
   12   13    2     -0.17     -2.70
   11   13    2      0.80      0.53
   10   13    2      1.44      0.34
    9   13    2      3.79      0.97
    8   13    2     -1.80     -0.90
    7   13    2      1.37      3.42
    6   13    2     -4.13     -1.13
    5   13    2     -3.90      2.36
    4   13    2      1.72      5.74
    3   13    2     -0.92     -3.80
    2   13    2     -0.15      2.98
    1   13    2      0.56     -9.50
    0   13    2     -3.77      0.02
   13   13    2     -0.18      0.06
   13   14    2      2.45      1.56
   12   14    2     -0.99     -0.17
   11   14    2     -1.48      2.24
   10   14    2     -5.02     -1.23
    9   14    2     -2.73     -2.22
    8   14    2      0.55      1.22
    7   14    2      3.44     -2.60
    6   14    2      1.54      0.69
    5   14    2      2.72     -0.61
    4   14    2     -0.55     -1.05
    3   14    2     -1.51     -1.91
    2   14    2     -0.72      3.50
    1   14    2     -1.53     -1.90
    0   14    2      0.02      7.96
   14   14    2     -0.81      0.03
   14   15    2     -1.28     -0.06
   13   15    2      0.67     -0.39
   12   15    2     -0.29     -1.25
   11   15    2      1.01     -0.43
   10   15    2      3.64      1.76
    9   15    2      1.91     -2.50
    8   15    2     -1.45      3.05
    7   15    2      1.15      0.46
    6   15    2     -4.69     -0.44
    5   15    2     -1.10      4.84
    4   15    2      2.49     -0.64
    3   15    2     -1.77     -1.00
    2   15    2      3.48      1.17
    1   15    2     -0.58     -3.98
    0   15    2      2.40      0.02
   15   15    2      3.15     -0.02
   15   16    2      0.74     -1.13
   14   16    2     -0.60      0.46
   13   16    2      1.59     -0.45
   12   16    2     -1.78      1.92
   11   16    2     -2.39      0.29
   10   16    2     -3.29     -0.38
    9   16    2      0.59      0.12
    8   16    2      1.70     -0.15
    7   16    2      1.60      1.02
    6   16    2      0.37     -1.63
    5   16    2     -1.18     -1.06
    4   16    2     -0.08     -4.51
    3   16    2     -3.25     -1.56
    2   16    2      2.25     -0.57
    1   16    2     -1.94     -0.23
    0   16    2      0.00      3.95
   16   16    2     -2.09     -0.03
   16   17    2     -0.48     -0.77
   15   17    2      1.88     -1.43
   14   17    2     -2.86      0.44
   13   17    2      1.26     -1.05
   12   17    2     -0.73     -1.51
   11   17    2      0.98      0.94
   10   17    2      2.51     -2.31
    9   17    2     -0.88     -0.46
    8   17    2     -0.79      0.98
    7   17    2      0.14     -1.15
    6   17    2     -1.81      0.38
    5   17    2      0.68      2.64
    4   17    2      3.58     -2.41
    3   17    2     -1.27      3.87
    2   17    2      2.26      1.61
    1   17    2     -0.23      1.30
    0   17    2     -0.30      0.01
   17   17    2      1.07     -0.01
   17   18    2      0.18     -0.70
   16   18    2     -1.16     -1.47
   15   18    2      2.03     -0.53
   14   18    2     -0.05      0.11
   13   18    2      0.86      1.24
   12   18    2     -1.23      0.90
   11   18    2     -1.47      0.77
   10   18    2     -0.74      0.58
    9   18    2      2.52      0.20
    8   18    2      0.44      1.10
    7   18    2     -0.39      0.58
    6   18    2     -0.66     -2.56
    5   18    2     -2.18      0.51
    4   18    2     -0.93     -3.26
    3   18    2     -0.90      3.59
    2   18    2      0.49     -1.03
    1   18    2     -0.06      3.01
    0   18    2     -0.04     -0.23
   18   18    2     -0.46      0.03
   18   19    2     -0.34      1.07
   17   19    2      0.06     -0.04
   16   19    2     -0.33     -0.83
   15   19    2     -0.18      0.80
   14   19    2     -2.08      1.62
   13   19    2      0.69     -0.55
   12   19    2     -2.21      0.71
   11   19    2      1.68      0.12
   10   19    2     -0.24     -2.08
    9   19    2     -0.79      1.74
    8   19    2      0.32     -0.30
    7   19    2      0.03      0.74
    6   19    2      0.06      0.73
    5   19    2      2.26      0.87
    4   19    2      2.30     -1.56
    3   19    2      0.53      3.04
    2   19    2      1.02     -1.78
    1   19    2      0.44     -2.80
    0   19    2     -1.80      0.03
   19   19    2     -0.86      0.03
   19   20    2      0.13     -1.09
   18   20    2      0.27      0.53
   17   20    2      0.35     -0.71
   16   20    2      0.48     -0.20
   15   20    2      2.18      0.51
   14   20    2     -0.49      0.70
   13   20    2      1.55      0.69
   12   20    2     -1.14     -1.41
   11   20    2      0.63      0.60
   10   20    2      1.84     -1.68
    9   20    2      1.90     -0.61
    8   20    2      0.56      0.17
    7   20    2     -1.07     -2.82
    6   20    2     -0.01     -0.89
    5   20    2     -1.68     -1.02
    4   20    2     -0.97      1.17
    3   20    2     -0.50      1.70
    2   20    2     -1.34      0.79
    1   20    2     -0.69      1.13
    0   20    2     -0.02     -1.43
   20   20    2     -0.24      0.02
   20   21    2     -0.39      0.35
   19   21    2     -0.26     -0.55
   18   21    2     -0.28      0.24
   17   21    2      0.31     -0.68
   16   21    2     -0.73     -1.08
   15   21    2     -0.54      2.11
   14   21    2     -1.34     -1.22
   13   21    2     -0.50     -0.31
   12   21    2     -0.85     -0.06
   11   21    2      0.12     -1.91
   10   21    2      0.05      1.70
    9   21    2     -2.47      0.71
    8   21    2      0.45      2.03
    7   21    2     -1.87      0.83
    6   21    2     -0.51      1.35
    5   21    2      1.47     -0.14
    4   21    2      0.18      0.97
    3   21    2     -0.51      1.00
    2   21    2      1.36     -3.13
    1   21    2     -0.98     -0.96
    0   21    2      0.20      0.00
   21   21    2      0.29     -0.05
   20   22    2     -0.58      0.40
   19   22    2      1.03      1.08
   18   22    2     -0.07      0.46
   17   22    2      0.72      1.27
   16   22    2      1.41     -0.46
   15   22    2      0.26      1.37
   14   22    2      0.37      0.72
   13   22    2     -0.40     -1.34
   12   22    2      0.55      1.65
   11   22    2      0.62     -0.79
   10   22    2      3.34      0.13
    9   22    2      0.90      0.38
    8   22    2      0.67     -1.27
    7   22    2      0.08     -0.54
    6   22    2      0.29     -0.75
    5   22    2     -0.92      0.27
    4   22    2      1.02      0.52
    3   22    2     -0.57     -1.76
    2   22    2      1.09      0.17
    1   22    2      0.24     -1.88
    0   22    2     -0.01     -0.23
   19   23    2      0.24     -0.34
   18   23    2      0.55     -1.33
   17   23    2     -0.73     -1.19
   16   23    2     -0.07      0.06
   15   23    2     -1.64     -0.07
   14   23    2     -0.20     -1.07
   13   23    2     -0.58     -1.14
   12   23    2      0.60     -1.08
   11   23    2      0.12     -0.18
   10   23    2     -1.02      0.74
    9   23    2     -3.08      1.02
    8   23    2     -0.79     -0.51
    7   23    2     -3.24     -0.69
    6   23    2      0.45     -0.75
    5   23    2      0.33     -1.01
    4   23    2     -0.41      2.34
    3   23    2     -0.42     -1.00
    2   23    2      0.17      0.27
    1   23    2     -1.14      1.70
    0   23    2      0.07     -0.02
   17   24    2     -0.13      0.19
   16   24    2      0.39     -0.34
   15   24    2     -0.79      1.37
   14   24    2      0.06     -0.65
   13   24    2     -0.53      0.83
   12   24    2      0.64      1.72
   11   24    2      0.63      0.18
   10   24    2      1.75      0.79
    9   24    2     -0.53     -0.13
    8   24    2      0.75      0.03
    7   24    2      0.37      0.49
    6   24    2      0.86      1.53
    5   24    2      0.65      1.10
    4   24    2      1.38     -0.34
    3   24    2      0.66     -0.70
    2   24    2      1.39     -0.50
    1   24    2      0.10     -0.73
    0   24    2     -0.01      1.29
   16   25    2      0.11      0.23
   15   25    2     -0.60      0.35
   14   25    2      0.86     -0.24
   13   25    2      0.58     -1.18
   12   25    2      0.98      0.19
   11   25    2      0.50     -0.14
   10   25    2     -1.86      0.05
    9   25    2     -0.95     -0.53
    8   25    2     -0.21     -1.65
    7   25    2     -0.90     -1.43
    6   25    2      2.46     -1.29
    5   25    2      0.17      0.12
    4   25    2     -0.15      0.31
    3   25    2      0.32     -1.35
    2   25    2     -1.12      1.02
    1   25    2     -0.22     -0.50
    0   25    2     -0.85     -0.03
   14   26    2     -0.19     -0.15
   13   26    2      0.32      0.21
   12   26    2     -0.20      0.34
   11   26    2      0.38     -0.35
   10   26    2     -0.29     -0.60
    9   26    2     -0.75      0.03
    8   26    2      0.64      0.59
    7   26    2     -0.02      1.39
    6   26    2      0.23      2.26
    5   26    2     -0.06      0.16
    4   26    2     -1.07      0.72
    3   26    2     -0.19     -0.57
    2   26    2     -1.54      0.38
    1   26    2     -0.95      0.30
    0   26    2      0.02      1.00
   12   27    2      0.50      0.58
   11   27    2     -0.63      0.31
   10   27    2     -1.49      0.09
    9   27    2      0.32      0.02
    8   27    2     -0.40     -0.32
    7   27    2      0.95     -0.70
    6   27    2      1.40      0.20
    5   27    2     -0.35     -1.06
    4   27    2      0.66     -0.60
    3   27    2     -0.14     -1.27
    2   27    2      0.60      0.49
    1   27    2     -0.04      0.40
    0   27    2      0.80     -0.03
   10   28    2     -0.36     -0.30
    9   28    2      0.50      0.19
    8   28    2      1.13      0.32
    7   28    2      0.11      0.35
    6   28    2      0.40      0.37
    5   28    2     -1.54     -0.49
    4   28    2     -0.66      0.69
    3   28    2     -1.18      0.00
    2   28    2     -1.19      0.06
    1   28    2      0.73      0.59
    0   28    2      0.02     -1.62
    6   29    2     -0.35      0.07
    5   29    2     -0.36     -0.24
    4   29    2     -0.09     -0.45
    3   29    2      0.77      0.17
    2   29    2      0.35      0.31
    1   29    2      0.53      0.94
    0   29    2      0.47     -0.01
    7   29    2      0.32      0.23
    0    1    3     19.06    -19.04
    1    1    3      0.04     26.86
    1    2    3     -3.24    -11.10
    0    2    3     -0.59     -0.63
    2    2    3     -0.02    -23.72
    2    3    3     -3.36     -3.95
    1    3    3     20.70     15.04
    0    3    3      9.62     -9.66
    3    3    3     -0.03    -19.49
    3    4    3      8.20      3.64
    2    4    3     -5.94     -7.30
    1    4    3      2.25     14.61
    0    4    3      6.49      6.52
    4    4    3     -0.01     -2.29
    4    5    3      6.38     -1.27
    3    5    3      4.34    -14.69
    2    5    3      3.46     18.93
    1    5    3      8.17      0.12
    0    5    3     -8.86      8.84
    5    5    3      0.00     -6.98
    5    6    3    -12.50     -9.97
    4    6    3     -6.01     16.96
    3    6    3     -1.70     -4.20
    2    6    3    -19.79      9.14
    1    6    3     11.58      1.15
    0    6    3    -10.32    -10.26
    6    6    3      0.05     15.05
    6    7    3      6.24      0.15
    5    7    3      4.72     -1.12
    4    7    3     -1.40     -2.08
    3    7    3      9.12     -1.43
    2    7    3     -2.19     10.88
    1    7    3      4.49     -2.17
    0    7    3     -5.23      5.26
    7    7    3      0.02     -1.72
    7    8    3     -2.22      6.84
    6    8    3     -4.91     -1.81
    5    8    3     -6.60     -3.74
    4    8    3     -1.80      8.20
    3    8    3     -2.44    -10.22
    2    8    3     -3.39      4.91
    1    8    3     15.68    -17.57
    0    8    3     -7.89     -7.88
    8    8    3     -0.06     -5.63
    8    9    3     -2.10      3.62
    7    9    3      1.71     -1.99
    6    9    3      5.36      3.96
    5    9    3      0.26     -6.34
    4    9    3     -0.81      4.41
    3    9    3      8.83     -6.24
    2    9    3     -8.16     11.08
    1    9    3      9.16     -4.17
    0    9    3    -11.03     11.04
    9    9    3     -0.01      2.77
    9   10    3      3.55     -3.60
    8   10    3     -2.06      0.16
    7   10    3     -0.50     -2.57
    6   10    3     -3.04     -3.76
    5   10    3     -0.45     -5.15
    4   10    3     -0.06      2.93
    3   10    3      1.56     -7.11
    2   10    3      3.27      0.17
    1   10    3      2.98     -7.15
    0   10    3     -2.25     -2.27
   10   10    3      0.02      4.43
   10   11    3     -1.05     -0.30
    9   11    3      1.43      0.21
    8   11    3      0.36      0.60
    7   11    3      3.14      0.11
    6   11    3      4.80      1.72
    5   11    3     -6.98      1.76
    4   11    3      6.38      4.34
    3   11    3     -4.26      3.80
    2   11    3     -0.03      9.33
    1   11    3      2.82      1.61
    0   11    3    -10.28     10.27
   11   11    3      0.00     -2.43
   11   12    3     -2.05      0.46
   10   12    3      1.95      0.39
    9   12    3     -2.92     -1.97
    8   12    3     -0.97     -0.29
    7   12    3     -5.10      0.77
    6   12    3      2.87     -1.65
    5   12    3     -3.46      1.36
    4   12    3      4.55      1.20
    3   12    3      2.94     -5.37
    2   12    3     -1.79     -3.24
    1   12    3      2.90     -5.33
    0   12    3     -5.82     -5.79
   12   12    3      0.03     -0.25
   12   13    3      0.83     -0.13
   11   13    3     -4.72      0.44
   10   13    3      2.07      0.50
    9   13    3      1.13      2.68
    8   13    3      3.57      1.36
    7   13    3      4.51      1.84
    6   13    3     -2.24     -0.61
    5   13    3     -2.19      0.51
    4   13    3     -1.39     -3.23
    3   13    3     -4.23      2.66
    2   13    3     -1.55      0.15
    1   13    3     -2.38      1.60
    0   13    3     -5.69      5.71
   13   13    3      0.01      1.95
   13   14    3     -2.61      1.28
   12   14    3     -0.24     -1.06
   11   14    3      0.42      0.69
   10   14    3     -0.96     -1.86
    9   14    3     -0.34     -1.74
    8   14    3     -5.59     -2.28
    7   14    3      0.70      0.21
    6   14    3     -1.08     -3.40
    5   14    3      0.04      3.19
    4   14    3      6.51     -0.10
    3   14    3      0.45     -2.32
    2   14    3      3.11      3.55
    1   14    3      2.73     -3.80
    0   14    3      2.56      2.57
   14   14    3     -0.05     -1.22
   14   15    3      1.63     -0.41
   13   15    3      0.85      1.50
   12   15    3     -3.13     -2.42
   11   15    3      1.78      0.06
   10   15    3      1.41     -0.75
    9   15    3      4.85      2.08
    8   15    3      3.17      1.86
    7   15    3      0.67      0.00
    6   15    3     -2.44      1.27
    5   15    3     -1.39     -3.90
    4   15    3     -1.64      0.56
    3   15    3     -2.64     -1.59
    2   15    3     -0.31      1.74
    1   15    3     -5.12     -1.02
    0   15    3     -1.87      1.87
   15   15    3     -0.03      0.68
   15   16    3     -2.16      0.17
   14   16    3     -2.34     -1.37
   13   16    3     -0.12      1.72
   12   16    3     -1.12     -1.33
   11   16    3      0.67      0.30
   10   16    3     -1.47      1.34
    9   16    3     -3.54     -2.78
    8   16    3     -3.81      2.93
    7   16    3      1.07     -3.21
    6   16    3     -3.45      0.79
    5   16    3      3.37      1.49
    4   16    3      2.35      0.23
    3   16    3     -2.25      0.46
    2   16    3      3.87      3.03
    1   16    3     -0.12     -2.07
    0   16    3      2.63      2.63
   16   16    3      0.01     -0.93
   16   17    3      1.57     -0.17
   15   17    3      0.17     -0.30
   14   17    3      1.31      0.60
   13   17    3     -0.28     -0.08
   12   17    3     -0.88     -0.29
   11   17    3      2.70     -1.68
   10   17    3      1.77      1.86
    9   17    3      4.27     -0.33
    8   17    3     -0.78      0.61
    7   17    3      0.98     -0.92
    6   17    3     -0.66     -1.17
    5   17    3      1.16     -1.08
    4   17    3      2.37      1.81
    3   17    3     -0.30      1.10
    2   17    3      2.86      2.70
    1   17    3     -3.18     -0.60
    0   17    3      1.71     -1.74
   17   17    3      0.03     -0.38
   17   18    3     -0.13     -1.76
   16   18    3      1.15      0.76
   15   18    3     -1.96     -1.01
   14   18    3     -0.32      1.46
   13   18    3      1.08      0.51
   12   18    3     -0.94     -0.57
   11   18    3      1.74      1.68
   10   18    3     -2.09      0.77
    9   18    3     -2.49      0.43
    8   18    3      0.21      1.75
    7   18    3     -0.66     -1.14
    6   18    3     -0.73      1.41
    5   18    3      1.53      1.44
    4   18    3     -1.89     -1.05
    3   18    3     -3.88     -0.28
    2   18    3      0.09     -2.63
    1   18    3     -2.74     -2.60
    0   18    3     -2.24     -2.25
   18   18    3      0.03     -1.17
   18   19    3      1.08      0.26
   17   19    3      0.27      0.68
   16   19    3      0.94      1.96
   15   19    3      0.02      0.31
   14   19    3     -0.28      1.31
   13   19    3     -0.35      0.09
   12   19    3     -0.22     -1.43
   11   19    3      0.71     -0.67
   10   19    3      1.61     -0.30
    9   19    3     -0.26     -2.18
    8   19    3     -1.11     -1.78
    7   19    3      1.17     -1.83
    6   19    3     -0.29     -1.73
    5   19    3      1.98      1.33
    4   19    3      0.17      0.23
    3   19    3      2.10      2.52
    2   19    3     -0.13     -0.61
    1   19    3      1.90      0.67
    0   19    3      1.72     -1.73
   19   19    3     -0.04      0.63
   19   20    3     -1.55     -0.48
   18   20    3      0.28     -0.76
   17   20    3      0.34     -1.09
   16   20    3     -0.23      1.12
   15   20    3     -1.54     -1.42
   14   20    3      0.86      0.70
   13   20    3     -0.19     -1.61
   12   20    3      0.35     -1.03
   11   20    3      1.41      1.72
   10   20    3     -2.59      0.88
    9   20    3      1.05      1.72
    8   20    3     -0.39      1.88
    7   20    3     -0.29      0.64
    6   20    3     -0.05      1.80
    5   20    3      0.52      2.00
    4   20    3     -3.09     -1.81
    3   20    3      0.06      0.63
    2   20    3     -0.30     -2.42
    1   20    3     -1.74     -0.46
    0   20    3      0.57      0.57
   20   20    3     -0.02     -0.48
   20   21    3      1.95      0.96
   19   21    3      0.50      0.15
   18   21    3      1.43      1.22
   17   21    3      0.52      0.24
   16   21    3      0.38      1.26
   15   21    3     -0.82     -0.46
   14   21    3     -0.63      0.62
   13   21    3      0.77      0.13
   12   21    3     -1.03     -0.78
   11   21    3      2.45      0.58
   10   21    3     -0.47     -0.50
    9   21    3     -0.81     -2.58
    8   21    3      0.17     -0.64
    7   21    3     -0.20     -1.66
    6   21    3      0.23     -0.27
    5   21    3     -0.32      0.39
    4   21    3     -0.14     -1.47
    3   21    3      0.77     -0.08
    2   21    3     -1.20     -2.28
    1   21    3      1.67     -0.58
    0   21    3     -0.55      0.58
   19   22    3     -0.64     -0.92
   18   22    3     -0.04     -0.62
   17   22    3     -0.22     -0.10
   16   22    3     -1.85      0.04
   15   22    3      0.19     -0.75
   14   22    3     -0.05     -0.81
   13   22    3      0.36     -1.69
   12   22    3      0.56      0.02
   11   22    3     -1.10      0.85
   10   22    3     -1.23      1.15
    9   22    3     -0.10     -0.37
    8   22    3     -0.40      1.32
    7   22    3     -0.05     -0.68
    6   22    3      0.79      1.67
    5   22    3      0.12      0.86
    4   22    3     -0.90     -1.16
    3   22    3      2.40      1.79
    2   22    3      0.16     -0.15
    1   22    3      0.45      1.47
    0   22    3      2.70      2.68
   18   23    3     -0.69      0.06
   17   23    3      0.13      0.02
   16   23    3     -0.98     -0.15
   15   23    3     -1.08     -0.08
   14   23    3      0.99      0.90
   13   23    3     -0.25      0.37
   12   23    3      1.11      1.35
   11   23    3      1.59      0.31
   10   23    3     -0.88      0.53
    9   23    3      0.26     -0.80
    8   23    3     -0.26      0.94
    7   23    3      0.15      0.69
    6   23    3     -0.33     -0.15
    5   23    3      0.15      0.03
    4   23    3      1.42     -1.36
    3   23    3     -0.95     -0.43
    2   23    3      0.53     -0.33
    1   23    3     -1.65     -0.50
    0   23    3     -1.74      1.78
   17   24    3     -0.28      0.85
   16   24    3      0.71      0.45
   15   24    3      0.86     -0.16
   14   24    3      1.35     -0.34
   13   24    3      1.22     -0.61
   12   24    3     -0.52      0.65
   11   24    3     -0.93      0.21
   10   24    3     -0.91     -1.59
    9   24    3     -0.12     -0.79
    8   24    3      0.55     -1.90
    7   24    3      0.80     -0.52
    6   24    3      1.29      0.57
    5   24    3     -1.01     -1.01
    4   24    3      0.70     -0.15
    3   24    3     -0.51     -0.06
    2   24    3     -0.21     -0.45
    1   24    3      0.33      0.35
    0   24    3      0.43      0.43
   15   25    3      0.05      0.17
   14   25    3      0.17     -0.62
   13   25    3     -0.78      0.54
   12   25    3     -0.03     -0.67
   11   25    3     -0.91      0.01
   10   25    3     -1.06     -0.19
    9   25    3     -0.54      0.68
    8   25    3     -0.01      1.66
    7   25    3     -0.34      0.90
    6   25    3      0.08     -0.02
    5   25    3      0.75      0.22
    4   25    3      0.67     -0.18
    3   25    3     -1.02      1.57
    2   25    3      0.00      0.59
    1   25    3     -1.91      1.38
    0   25    3     -0.57      0.58
   13   26    3     -0.35      0.51
   12   26    3     -0.96      1.06
   11   26    3      0.18     -0.56
   10   26    3      0.34     -0.33
    9   26    3      1.64      0.02
    8   26    3      1.92     -0.88
    7   26    3      1.17      1.53
    6   26    3      0.42     -0.51
    5   26    3     -1.40     -0.18
    4   26    3     -0.55     -0.20
    3   26    3     -1.56     -0.79
    2   26    3     -0.30      0.04
    1   26    3      0.55     -1.01
    0   26    3      0.41      0.43
   11   27    3      0.27      0.15
   10   27    3     -0.16     -0.04
    9   27    3     -0.16      0.77
    8   27    3     -0.39     -0.03
    7   27    3     -1.65     -0.67
    6   27    3     -0.47     -0.90
    5   27    3     -0.63     -0.83
    4   27    3     -0.15      0.65
    3   27    3      0.14     -0.25
    2   27    3      0.67      0.33
    1   27    3      0.40      0.16
    0   27    3      1.63     -1.62
    9   28    3      0.62     -0.42
    8   28    3      0.48      0.44
    7   28    3     -0.07      0.68
    6   28    3      0.13     -0.20
    5   28    3     -0.77      0.38
    4   28    3      0.66      0.43
    3   28    3     -0.47      0.52
    2   28    3      0.55      0.22
    1   28    3     -0.04      0.57
    0   28    3      0.22      0.23
    5   29    3     -0.23      0.00
    4   29    3      1.05      0.29
    3   29    3      0.41     -0.91
    2   29    3      0.84      0.14
    1   29    3      0.84     -0.96
    0   29    3      0.45     -0.44
    0    0    4     24.43     -0.02
    0    1    4      0.06     21.05
    1    1    4     -1.15      0.02
    1    2    4      6.13      5.05
    0    2    4     11.74      0.01
    2    2    4      3.32      0.01
    2    3    4     11.21     -1.02
    1    3    4     -7.61     12.48
    3    3    4     -2.65     -0.02
    3    4    4     -0.36      2.01
    2    4    4     -7.04      4.46
    1    4    4      2.08      9.52
    0    4    4     -9.27     -0.01
    4    4    4      2.78      0.00
    4    5    4     -5.34      8.40
    3    5    4      7.18      7.97
    2    5    4      2.49     -1.10
    1    5    4      1.32     10.49
    0    5    4     -0.12    -20.13
    5    5    4      6.40     -0.04
    5    6    4     -4.71      0.33
    4    6    4      3.23     -0.29
    3    6    4    -10.38      3.05
    2    6    4     -3.42     -3.27
    1    6    4     -2.13     -3.93
    0    6    4     -7.16     -0.02
    6    6    4      0.07     -0.01
    6    7    4      6.64     -6.44
    5    7    4     -4.13     -4.19
    4    7    4      2.94      1.44
    3    7    4      5.82     -9.42
    2    7    4      4.09     -0.20
    1    7    4      7.78     -6.51
    0    7    4     -0.02    -10.65
    7    7    4     -8.62      0.05
    7    8    4      1.92      3.82
    6    8    4     -2.23      0.97
    5    8    4     -1.34     -0.84
    4    8    4     -0.86      4.46
    3    8    4     -4.16      3.50
    2    8    4     -0.67     -0.96
    1    8    4      0.36      7.82
    0    8    4     -7.08     -0.01
    8    8    4      4.39      0.02
    8    9    4     -2.80     -3.05
    7    9    4     -0.95      0.34
    6    9    4      2.86     -6.61
    5    9    4     -2.23      1.86
    4    9    4      4.41     -2.80
    3    9    4      3.03     -2.07
    2    9    4      3.77      1.38
    1    9    4      0.85     -3.88
    0    9    4      0.04      2.80
    9    9    4      1.90     -0.02
    9   10    4      0.37      1.21
    8   10    4      2.60     -1.49
    7   10    4     -1.19      3.94
    6   10    4     -2.69     -2.03
    5   10    4     -0.78     -0.32
    4   10    4      0.85      6.40
    3   10    4     -1.16     -4.41
    2   10    4      1.23      7.00
    1   10    4     -1.90     -1.87
    0   10    4     -8.32      0.02
   10   10    4      0.30     -0.01
   10   11    4     -0.94      0.94
    9   11    4     -0.55     -0.21
    8   11    4     -3.66      2.32
    7   11    4      2.24     -0.58
    6   11    4      1.38      1.87
    5   11    4      1.64     -0.30
    4   11    4      2.70      3.72
    3   11    4      1.70     -2.45
    2   11    4     -2.25      2.28
    1   11    4     -2.36     -1.56
    0   11    4      0.02      1.51
   11   11    4     -1.37     -0.02
   11   12    4      0.13     -0.16
   10   12    4      1.59      3.12
    9   12    4      3.80     -2.12
    8   12    4      2.12      1.11
    7   12    4     -0.47     -1.57
    6   12    4     -2.45     -4.60
    5   12    4     -1.01     -0.41
    4   12    4     -0.54     -1.20
    3   12    4     -4.79     -2.52
    2   12    4      1.41      2.96
    1   12    4     -7.09     -4.48
    0   12    4     -0.63      0.03
   12   12    4     -1.53      0.01
   12   13    4      1.14      0.45
   11   13    4     -1.31     -1.62
   10   13    4      0.85     -0.01
    9   13    4     -3.36      0.17
    8   13    4     -2.24     -0.01
    7   13    4     -1.13      2.28
    6   13    4      1.01     -0.14
    5   13    4     -2.29      3.78
    4   13    4      4.01      2.64
    3   13    4     -0.80     -1.15
    2   13    4     -0.40      2.30
    1   13    4      5.02     -1.50
    0   13    4     -0.01     -0.08
   13   13    4     -0.95      0.04
   13   14    4     -2.90     -2.83
   12   14    4      1.55     -1.04
   11   14    4     -1.90      0.62
   10   14    4      3.84     -0.92
    9   14    4     -0.02      0.45
    8   14    4      0.78     -1.98
    7   14    4     -1.52     -2.38
    6   14    4      0.19     -4.64
    5   14    4      3.15     -0.35
    4   14    4     -1.04     -3.44
    3   14    4      2.63      1.76
    2   14    4     -1.87     -1.78
    1   14    4     -1.86     -0.95
    0   14    4      2.29      0.01
   14   14    4      0.81      0.01
   14   15    4      0.94      0.92
   13   15    4     -1.80     -0.61
   12   15    4      3.47     -0.74
   11   15    4     -1.57      1.03
   10   15    4      0.24     -0.56
    9   15    4     -0.62      2.10
    8   15    4     -1.86     -0.04
    7   15    4      3.33      3.43
    6   15    4     -1.95      0.51
    5   15    4      0.44      7.72
    4   15    4     -0.23     -0.16
    3   15    4     -3.55      2.85
    2   15    4      0.28      1.61
    1   15    4     -0.04     -1.02
    0   15    4      0.00      1.94
   15   15    4     -2.50     -0.01
   15   16    4     -0.25      0.01
   14   16    4     -0.52     -0.81
   13   16    4     -0.79     -0.71
   12   16    4      1.22     -0.01
   11   16    4      1.40      2.13
   10   16    4      0.29     -0.91
    9   16    4      0.18      2.01
    8   16    4     -1.92     -2.68
    7   16    4     -0.49     -1.61
    6   16    4      2.18     -2.09
    5   16    4      1.26     -1.38
    4   16    4      1.63     -0.70
    3   16    4      1.67     -1.21
    2   16    4     -0.07     -2.93
    1   16    4      1.26     -3.72
    0   16    4      3.84     -0.01
   16   16    4      0.21     -0.04
   16   17    4     -1.52     -0.83
   15   17    4      0.83      0.71
   14   17    4      0.07     -0.16
   13   17    4      1.55      0.01
   12   17    4      1.97     -0.27
   11   17    4     -1.53      1.29
   10   17    4      0.55     -0.65
    9   17    4     -0.81     -0.78
    8   17    4      0.90      1.43
    7   17    4      1.80     -2.13
    6   17    4     -1.73      4.32
    5   17    4     -0.05      1.05
    4   17    4     -2.13     -0.76
    3   17    4     -3.36      0.65
    2   17    4      1.04      0.94
    1   17    4     -3.00     -1.02
    0   17    4      0.01      4.96
   17   17    4      0.78     -0.01
   17   18    4      0.02      1.95
   16   18    4      1.08      0.16
   15   18    4      0.00      0.85
   14   18    4      0.11      0.19
   13   18    4     -0.12      0.01
   12   18    4      1.09      1.63
   11   18    4     -0.84     -0.64
   10   18    4     -1.10      1.77
    9   18    4     -0.97     -1.76
    8   18    4     -1.85      0.79
    7   18    4      0.92     -1.28
    6   18    4      0.53      1.28
    5   18    4     -1.07      0.29
    4   18    4      1.80      1.01
    3   18    4     -2.60     -1.57
    2   18    4      1.88     -2.13
    1   18    4      0.09     -1.42
    0   18    4      1.92      0.00
   18   18    4     -0.17      0.03
   18   19    4      1.82     -0.18
   17   19    4     -0.51      1.37
   16   19    4      0.14      0.32
   15   19    4     -0.20     -0.45
   14   19    4     -0.78      0.38
   13   19    4      1.17     -2.14
   12   19    4     -1.00      1.32
   11   19    4     -1.73     -0.72
   10   19    4      0.61     -1.41
    9   19    4     -0.47     -0.24
    8   19    4      1.88     -1.53
    7   19    4      0.46     -1.16
    6   19    4      0.30      2.01
    5   19    4     -0.17     -3.11
    4   19    4      1.07     -1.44
    3   19    4      0.01     -0.68
    2   19    4      3.21     -0.21
    1   19    4      0.45      0.46
    0   19    4      0.00      3.83
   19   19    4      1.09      0.02
   19   20    4      0.32      0.06
   18   20    4     -1.09     -0.34
   17   20    4     -1.23     -0.57
   16   20    4     -0.46     -0.47
   15   20    4     -1.15     -1.54
   14   20    4     -0.23      0.17
   13   20    4      0.45     -0.26
   12   20    4      1.35     -1.00
   11   20    4     -1.02      0.68
   10   20    4      1.48     -1.20
    9   20    4     -0.30      0.61
    8   20    4      0.27      1.84
    7   20    4      0.57      0.86
    6   20    4     -2.06      3.40
    5   20    4     -0.77      0.35
    4   20    4     -1.23      1.81
    3   20    4     -2.19     -1.36
    2   20    4     -0.57      0.58
    1   20    4     -1.11      2.32
    0   20    4     -2.59      0.01
   20   20    4      0.08     -0.01
   19   21    4      0.26      0.05
   18   21    4      0.78      0.92
   17   21    4     -1.19      1.08
   16   21    4      1.44      0.49
   15   21    4     -0.52      0.45
   14   21    4      1.18     -0.46
   13   21    4      0.54      1.15
   12   21    4     -1.18      1.27
   11   21    4     -1.23      0.86
   10   21    4     -0.16      0.27
    9   21    4     -0.51     -0.05
    8   21    4     -0.52     -0.99
    7   21    4      0.84     -0.72
    6   21    4     -0.86     -0.16
    5   21    4      1.87     -3.63
    4   21    4      1.07     -0.62
    3   21    4      2.31      0.18
    2   21    4      2.09     -1.55
    1   21    4      1.60      1.85
    0   21    4      0.00     -1.32
   18   22    4     -0.54     -0.76
   17   22    4     -1.35     -0.34
   16   22    4     -0.42     -1.39
   15   22    4     -0.58     -0.45
   14   22    4      0.13      0.08
   13   22    4      1.12     -0.79
   12   22    4      0.04     -0.88
   11   22    4      0.36     -0.43
   10   22    4      0.79     -1.30
    9   22    4      0.74      0.76
    8   22    4      0.10      1.00
    7   22    4      0.31      0.31
    6   22    4     -0.83      1.09
    5   22    4      1.31     -0.26
    4   22    4     -1.16     -0.15
    3   22    4      0.32     -0.18
    2   22    4     -1.70      1.58
    1   22    4     -1.04      1.71
    0   22    4     -2.22      0.00
   17   23    4      0.64      0.65
   16   23    4      1.21      0.15
   15   23    4      1.10     -0.04
   14   23    4      1.31      0.28
   13   23    4      0.20      1.29
   12   23    4     -1.21      0.35
   11   23    4     -0.50      0.18
   10   23    4     -0.03      0.15
    9   23    4     -0.71     -1.14
    8   23    4      0.27      0.58
    7   23    4      0.33     -0.46
    6   23    4     -1.10      0.00
    5   23    4      1.61     -1.30
    4   23    4     -1.88      0.97
    3   23    4      1.12      0.43
    2   23    4     -1.27     -0.39
    1   23    4     -0.61      1.07
    0   23    4      0.00     -1.83
   16   24    4     -0.22     -0.65
   15   24    4     -0.30      0.22
   14   24    4     -0.04      0.07
   13   24    4     -0.89     -0.97
   12   24    4     -0.58      0.62
   11   24    4     -0.82     -0.64
   10   24    4      0.13      1.29
    9   24    4      0.29      0.55
    8   24    4     -0.59      0.80
    7   24    4      1.11     -0.70
    6   24    4      0.03     -0.11
    5   24    4      1.58     -0.20
    4   24    4     -1.05     -0.59
    3   24    4     -0.01      0.92
    2   24    4     -0.05      0.51
    1   24    4     -0.70     -0.79
    0   24    4      2.62      0.00
   14   25    4      0.43      1.36
   13   25    4     -0.87     -0.22
   12   25    4     -0.45      0.27
   11   25    4      0.99     -0.58
   10   25    4      0.40     -1.02
    9   25    4      1.07     -0.50
    8   25    4      0.68     -0.16
    7   25    4     -0.47     -0.45
    6   25    4     -0.82     -0.43
    5   25    4     -0.72     -0.48
    4   25    4     -1.43      0.62
    3   25    4     -0.04      0.13
    2   25    4     -0.32      0.45
    1   25    4     -0.48      0.47
    0   25    4     -0.01     -0.03
   12   26    4      0.01     -0.12
   11   26    4     -0.07      0.06
   10   26    4      0.59      0.36
    9   26    4     -0.53      0.21
    8   26    4     -0.43     -0.16
    7   26    4      0.61     -0.15
    6   26    4     -0.22      1.01
    5   26    4      0.73      0.91
    4   26    4     -0.89      0.62
    3   26    4      0.70      0.99
    2   26    4      0.80     -0.99
    1   26    4      0.79     -1.54
    0   26    4      2.92     -0.01
   10   27    4     -0.11      0.26
    9   27    4      0.76      0.91
    8   27    4     -1.07      0.08
    7   27    4     -0.47      0.46
    6   27    4     -1.03     -0.80
    5   27    4     -0.53     -0.34
    4   27    4      0.31     -0.33
    3   27    4      0.01     -0.89
    2   27    4      1.01      0.28
    1   27    4     -1.17     -0.18
    0   27    4      0.01      0.26
    7   28    4      0.53      0.03
    6   28    4      0.95      0.05
    5   28    4      0.22     -0.11
    4   28    4      0.76      0.08
    3   28    4      0.68     -0.28
    2   28    4      0.44     -0.71
    1   28    4      0.69      0.44
    0   28    4     -0.25      0.01
    0    1    5      3.82      3.85
    1    1    5     -0.01      3.64
    1    2    5     -6.21     -3.56
    0    2    5     -2.78      2.73
    2    2    5     -0.01      9.38
    2    3    5     -5.33      6.36
    1    3    5      0.06      4.68
    0    3    5      0.24      0.25
    3    3    5     -0.02      4.45
    3    4    5      8.53      4.09
    2    4    5      1.37     -4.76
    1    4    5     -4.76    -10.97
    0    4    5      8.77     -8.81
    4    4    5     -0.02     -2.94
    4    5    5     -3.27      4.38
    3    5    5     -2.05     -2.48
    2    5    5     -0.61      4.89
    1    5    5     -3.49      0.37
    0    5    5     -1.49     -1.50
    5    5    5      0.01     -0.15
    5    6    5     -2.47     -4.69
    4    6    5     -2.96     -0.08
    3    6    5      4.12     -1.07
    2    6    5     -5.63     -7.04
    1    6    5      3.26     -4.00
    0    6    5      2.76     -2.74
    6    6    5      0.03      2.60
    6    7    5     -1.64     -3.98
    5    7    5      0.84      3.48
    4    7    5     -0.01     -0.96
    3    7    5      4.67      0.18
    2    7    5      4.56      3.71
    1    7    5     -1.54     -0.50
    0    7    5      3.22      3.25
    7    7    5      0.03      0.24
    7    8    5      3.21      1.36
    6    8    5      2.61     -0.28
    5    8    5     -2.11     -1.78
    4    8    5      5.90      4.45
    3    8    5     -0.83     -0.61
    2    8    5     -1.60      2.72
    1    8    5      0.60     -1.36
    0    8    5     -5.56      5.60
    8    8    5     -0.02     -3.47
    8    9    5     -1.75      2.06
    7    9    5     -2.91     -2.80
    6    9    5      0.45      0.49
    5    9    5     -2.22      0.60
    4    9    5      0.16     -0.13
    3    9    5      0.76     -0.39
    2    9    5     -6.19      1.54
    1    9    5     -2.00     -3.62
    0    9    5     -2.86     -2.81
    9    9    5     -0.04     -0.69
    9   10    5     -0.78      0.92
    8   10    5     -0.20      0.40
    7   10    5      2.69      2.74
    6   10    5     -0.02     -0.21
    5   10    5      0.66      3.26
    4   10    5      2.88      2.13
    3   10    5     -1.68      2.33
    2   10    5      0.18     -1.78
    1   10    5      0.54      1.87
    0   10    5      0.01     -0.04
   10   10    5     -0.02      3.87
   10   11    5      1.69     -0.62
    9   11    5      0.63     -0.08
    8   11    5     -1.79     -3.07
    7   11    5     -1.09     -2.99
    6   11    5      0.81     -3.47
    5   11    5     -2.92     -0.11
    4   11    5      1.89     -3.53
    3   11    5     -4.71     -0.58
    2   11    5     -3.09     -1.10
    1   11    5      0.65     -7.04
    0   11    5      1.52      1.56
   11   11    5      0.05      2.47
   11   12    5     -1.29      0.27
   10   12    5     -0.92     -0.12
    9   12    5     -2.74     -1.59
    8   12    5      0.79      0.04
    7   12    5     -0.01      1.24
    6   12    5      0.72      2.28
    5   12    5      0.28      2.69
    4   12    5      1.18      4.75
    3   12    5      0.17     -2.37
    2   12    5      0.84      1.68
    1   12    5      3.76      0.57
    0   12    5     -0.29      0.24
   12   12    5      0.02     -3.81
   12   13    5     -0.81      0.27
   11   13    5     -0.06      0.43
   10   13    5      1.76      1.59
    9   13    5     -1.04     -1.70
    8   13    5     -0.13      1.30
    7   13    5      1.09     -2.73
    6   13    5     -0.06      1.49
    5   13    5      0.79     -1.41
    4   13    5     -0.17     -1.20
    3   13    5     -3.19     -0.14
    2   13    5      1.20     -3.88
    1   13    5      0.35     -1.40
    0   13    5      3.01      3.02
   13   13    5     -0.01      0.37
   13   14    5      1.84     -2.43
   12   14    5      0.79      0.72
   11   14    5     -0.54     -0.61
   10   14    5      0.39      2.19
    9   14    5     -1.11     -2.93
    8   14    5      1.71      0.54
    7   14    5      0.48      1.07
    6   14    5      0.48      0.22
    5   14    5     -0.90      2.92
    4   14    5      1.65      0.06
    3   14    5     -1.22     -2.26
    2   14    5      2.73      2.73
    1   14    5      1.68     -0.39
    0   14    5     -2.33      2.31
   14   14    5     -0.01     -1.16
   14   15    5      0.65      0.25
   13   15    5     -0.03      1.02
   12   15    5      1.30      1.99
   11   15    5     -0.84      0.18
   10   15    5      1.48      0.43
    9   15    5     -2.12      0.12
    8   15    5      1.97     -0.66
    7   15    5      0.40      0.88
    6   15    5      0.71      1.06
    5   15    5      1.04     -0.80
    4   15    5     -2.42      1.09
    3   15    5      0.16     -2.03
    2   15    5     -0.80     -2.55
    1   15    5     -0.14      2.12
    0   15    5     -0.49     -0.53
   15   15    5     -0.03     -0.30
   15   16    5      0.08      0.89
   14   16    5      2.22     -1.89
   13   16    5     -0.20     -0.08
   12   16    5      1.27      0.40
   11   16    5     -1.87     -0.02
   10   16    5      0.71     -0.56
    9   16    5     -0.68     -1.44
    8   16    5      0.02      0.09
    7   16    5      0.48      1.35
    6   16    5     -4.34     -0.63
    5   16    5      0.73      0.81
    4   16    5     -2.55     -3.46
    3   16    5      0.53     -0.26
    2   16    5      1.56      0.11
    1   16    5     -0.22      0.56
    0   16    5     -1.24      1.26
   16   16    5     -0.01     -0.31
   16   17    5      0.63      0.00
   15   17    5      0.43     -0.40
   14   17    5      1.16      0.16
   13   17    5     -0.68      1.49
   12   17    5      0.18      0.26
   11   17    5     -0.98      0.49
   10   17    5     -1.30     -0.83
    9   17    5      0.76      1.12
    8   17    5      0.13     -1.36
    7   17    5      1.75      2.31
    6   17    5      0.04     -0.68
    5   17    5      1.52      0.62
    4   17    5     -0.81      0.41
    3   17    5      2.25     -2.37
    2   17    5      0.00      1.92
    1   17    5      0.01      1.50
    0   17    5      0.92      0.89
   17   17    5      0.04      0.36
   17   18    5      0.16     -0.36
   16   18    5     -0.23      0.14
   15   18    5      0.58      0.56
   14   18    5      0.00     -1.65
   13   18    5     -0.38      2.38
   12   18    5     -1.15     -1.16
   11   18    5     -0.04      0.56
   10   18    5      0.16     -1.43
    9   18    5      0.00     -0.80
    8   18    5      0.94      1.02
    7   18    5     -1.62     -0.65
    6   18    5     -2.42     -0.33
    5   18    5      0.89     -2.27
    4   18    5     -1.99     -1.27
    3   18    5      1.21     -0.01
    2   18    5      0.39      0.96
    1   18    5     -2.42     -0.24
    0   18    5     -0.55      0.56
   18   18    5      0.01      0.41
   18   19    5     -1.17     -0.93
   17   19    5     -0.38      1.80
   16   19    5     -0.93     -1.03
   15   19    5      0.12      1.00
   14   19    5     -1.15     -0.04
   13   19    5     -0.61     -0.14
   12   19    5     -0.73     -0.41
   11   19    5     -1.40     -2.05
   10   19    5      0.31      0.81
    9   19    5     -0.27     -1.07
    8   19    5      0.29      1.20
    7   19    5     -0.10      0.67
    6   19    5      0.12      0.00
    5   19    5      1.01      1.42
    4   19    5      0.77     -0.88
    3   19    5      1.53      0.40
    2   19    5      0.23      3.18
    1   19    5      0.57      0.21
    0   19    5      2.04      2.05
   19   19    5     -0.01      0.28
   19   20    5      0.01      1.27
   18   20    5     -0.62      0.04
   17   20    5      0.04      0.10
   16   20    5      0.27      0.01
   15   20    5      0.88     -2.38
   14   20    5      0.45      1.05
   13   20    5      0.35     -0.90
   12   20    5      0.67      0.36
   11   20    5      1.40     -0.15
   10   20    5      1.71     -0.09
    9   20    5      1.19      0.99
    8   20    5      2.29      0.78
    7   20    5     -1.29      0.52
    6   20    5      1.37     -0.98
    5   20    5      0.47     -0.15
    4   20    5      0.00      0.41
    3   20    5     -0.07      0.28
    2   20    5     -0.54      1.00
    1   20    5     -3.62     -1.92
    0   20    5      0.24     -0.23
   19   21    5     -0.12     -1.92
   18   21    5     -0.23     -0.43
   17   21    5     -0.52     -0.92
   16   21    5      0.42      0.16
   15   21    5     -0.16     -0.16
   14   21    5     -0.50      0.94
   13   21    5      0.29      0.24
   12   21    5     -0.57     -0.30
   11   21    5     -0.98      1.12
   10   21    5      0.57      0.45
    9   21    5     -2.89      1.05
    8   21    5     -0.68      0.10
    7   21    5     -2.52     -0.80
    6   21    5     -0.02     -0.49
    5   21    5     -0.63     -1.41
    4   21    5      0.51     -1.19
    3   21    5     -0.98      0.43
    2   21    5     -0.14      1.03
    1   21    5      0.94     -1.10
    0   21    5      0.86      0.87
   17   22    5     -0.30      0.70
   16   22    5      0.97     -0.29
   15   22    5      0.47      0.00
   14   22    5      0.14      0.61
   13   22    5     -0.11     -0.24
   12   22    5      0.43     -0.94
   11   22    5     -0.35      0.01
   10   22    5      1.07     -1.16
    9   22    5      0.63     -0.12
    8   22    5      1.21      0.08
    7   22    5      0.35     -1.03
    6   22    5      1.62      0.20
    5   22    5      0.44      0.81
    4   22    5     -0.21      0.83
    3   22    5     -0.08      1.21
    2   22    5     -1.48      0.33
    1   22    5     -0.59      0.08
    0   22    5      0.14     -0.12
   16   23    5      0.93     -0.27
   15   23    5     -0.08      0.39
   14   23    5     -0.07     -0.08
   13   23    5      0.29      0.69
   12   23    5     -0.94      0.11
   11   23    5      0.53      1.37
   10   23    5     -0.42      0.72
    9   23    5     -0.96      0.02
    8   23    5     -0.23     -0.44
    7   23    5     -0.29     -0.75
    6   23    5      0.41      0.03
    5   23    5     -0.13     -0.69
    4   23    5     -0.55      0.46
    3   23    5     -0.36      0.87
    2   23    5      0.12     -0.68
    1   23    5      2.12     -1.32
    0   23    5     -0.42     -0.42
   15   24    5     -0.22      0.95
   14   24    5     -1.36     -0.49
   13   24    5      0.10     -0.49
   12   24    5     -0.90     -1.02
   11   24    5      0.28     -0.57
   10   24    5      0.58     -0.72
    9   24    5      0.08     -0.33
    8   24    5      0.39      0.62
    7   24    5     -0.77     -1.00
    6   24    5     -0.22      1.64
    5   24    5     -0.68     -0.08
    4   24    5     -1.61      0.59
    3   24    5      0.49      0.34
    2   24    5     -1.65     -0.23
    1   24    5      1.00      0.37
    0   24    5      0.10     -0.10
   13   25    5      0.16      0.53
   12   25    5     -0.06      0.54
   11   25    5      0.54      0.38
   10   25    5     -0.39      1.01
    9   25    5     -0.41     -1.42
    8   25    5      0.51      0.92
    7   25    5      0.13     -0.33
    6   25    5      0.40      0.84
    5   25    5      0.60      0.09
    4   25    5     -0.16     -0.04
    3   25    5      1.92      0.15
    2   25    5      1.54     -2.19
    1   25    5      1.64     -0.28
    0   25    5     -0.51     -0.51
   11   26    5      1.01     -0.75
   10   26    5      0.47      0.31
    9   26    5      0.02     -0.05
    8   26    5      0.43      0.01
    7   26    5     -0.97     -0.28
    6   26    5      0.60      0.16
    5   26    5     -0.08     -0.51
    4   26    5     -0.55     -0.32
    3   26    5      0.81      0.25
    2   26    5     -1.96     -0.02
    1   26    5      0.22     -0.29
    0   26    5     -1.10      1.11
    8   27    5      0.36      0.88
    7   27    5     -0.48     -0.11
    6   27    5     -0.47      0.57
    5   27    5     -0.09     -0.52
    4   27    5     -0.98     -0.11
    3   27    5      1.11     -0.47
    2   27    5      0.12     -0.44
    1   27    5     -0.55      1.00
    0   27    5      0.20      0.21
    2   28    5      0.07     -0.41
    3   28    5     -0.18      0.74
    4   28    5      1.10      0.04
    0    1    6     -0.39     -0.03
    1    1    6      0.68      0.03
    1    2    6     -0.90      2.81
    0    2    6      0.00     -4.08
    2    2    6      3.06      0.02
    2    3    6     -0.43     -8.93
    1    3    6     -1.12     -4.84
    0    3    6     -4.93     -0.05
    3    3    6     -6.16      0.02
    3    4    6      3.60      0.94
    2    4    6     -2.53     -0.37
    1    4    6      3.91     -2.01
    0    4    6      0.02     -0.60
    4    4    6     -0.87     -0.04
    4    5    6     -2.68      1.56
    3    5    6      0.79      0.95
    2    5    6      1.32     -4.31
    1    5    6      0.80      3.91
    0    5    6     -0.76     -0.02
    5    5    6      4.45     -0.01
    5    6    6     -1.58      2.69
    4    6    6      2.08     -0.21
    3    6    6     -0.32      0.36
    2    6    6     -3.17     -1.03
    1    6    6      0.15     -2.43
    0    6    6      0.00      1.71
    6    6    6      0.47      0.02
    6    7    6      1.11     -1.99
    5    7    6      2.47      1.19
    4    7    6     -2.38      3.99
    3    7    6      3.68     -2.91
    2    7    6      0.63      1.41
    1    7    6      0.74      2.97
    0    7    6     -0.68      0.02
    7    7    6     -1.46      0.01
    7    8    6      2.34     -0.08
    6    8    6     -2.83      0.18
    5    8    6      1.35      0.94
    4    8    6     -1.91      0.17
    3    8    6     -3.75      0.50
    2    8    6     -3.98     -1.44
    1    8    6     -0.69     -0.08
    0    8    6     -0.02      1.51
    8    8    6     -2.26      0.04
    8    9    6     -1.05      0.93
    7    9    6      0.77      1.77
    6    9    6      1.58      0.19
    5    9    6      0.81      5.24
    4    9    6      0.18      1.53
    3    9    6      1.63     -3.82
    2    9    6      2.19      1.89
    1    9    6     -0.67     -3.39
    0    9    6      2.56      0.00
    9    9    6      1.26      0.00
    9   10    6     -0.60     -2.08
    8   10    6      0.39     -1.70
    7   10    6      1.01     -1.63
    6   10    6     -1.38     -0.56
    5   10    6     -1.30     -2.91
    4   10    6     -2.16     -0.55
    3   10    6     -5.11     -5.00
    2   10    6      0.97     -0.32
    1   10    6      1.93     -1.54
    0   10    6      0.02      2.62
   10   10    6      1.36     -0.06
   10   11    6     -1.19      0.70
    9   11    6     -1.36     -1.48
    8   11    6     -2.13      1.43
    7   11    6     -0.25      0.16
    6   11    6      0.06      2.58
    5   11    6     -1.52      3.63
    4   11    6      0.86     -1.95
    3   11    6      2.28     -0.27
    2   11    6      1.42      0.62
    1   11    6      1.08      0.81
    0   11    6      1.40     -0.03
   11   11    6     -3.33     -0.02
   11   12    6     -0.44     -0.02
   10   12    6      1.13     -0.81
    9   12    6      1.30     -0.28
    8   12    6      2.44     -1.12
    7   12    6      2.78      1.48
    6   12    6      1.38     -2.23
    5   12    6      1.44      1.05
    4   12    6      0.83     -3.75
    3   12    6     -0.18     -0.43
    2   12    6      5.29      1.16
    1   12    6      0.15      0.81
    0   12    6      0.00      5.54
   12   12    6     -1.20      0.03
   12   13    6     -0.87     -0.86
   11   13    6      0.54      1.97
   10   13    6      0.91     -2.24
    9   13    6      0.52      0.28
    8   13    6      0.01     -0.13
    7   13    6     -0.79      1.82
    6   13    6     -0.91      1.79
    5   13    6     -3.84      0.96
    4   13    6      0.59     -1.68
    3   13    6     -0.65     -0.45
    2   13    6     -3.00      2.55
    1   13    6     -0.14     -1.94
    0   13    6     -6.26      0.01
   13   13    6      2.29      0.03
   13   14    6      0.91      1.34
   12   14    6     -0.71     -1.33
   11   14    6      0.20      0.59
   10   14    6      1.00      0.25
    9   14    6     -0.61     -0.01
    8   14    6      1.62      1.86
    7   14    6     -0.43     -0.53
    6   14    6      0.05     -0.28
    5   14    6      1.04     -1.20
    4   14    6     -1.62     -2.68
    3   14    6      3.66      1.22
    2   14    6     -0.34      0.61
    1   14    6      0.94      2.04
    0   14    6      0.02      2.38
   14   14    6     -0.38      0.02
   14   15    6      1.72      0.08
   13   15    6      0.15      1.66
   12   15    6     -1.07      1.53
   11   15    6     -0.27     -0.06
   10   15    6      0.30     -0.04
    9   15    6     -0.25     -1.18
    8   15    6     -1.01      1.28
    7   15    6     -0.52      0.97
    6   15    6     -2.38     -0.67
    5   15    6     -0.67      0.48
    4   15    6      1.49     -2.24
    3   15    6     -0.50      1.99
    2   15    6     -0.57      1.20
    1   15    6     -1.29     -1.92
    0   15    6     -2.55      0.03
   15   15    6      1.53     -0.04
   15   16    6      0.92      0.51
   14   16    6     -1.81     -0.10
   13   16    6     -0.40     -0.41
   12   16    6     -1.57     -1.10
   11   16    6      0.01     -1.27
   10   16    6      0.55      0.06
    9   16    6     -0.43      0.11
    8   16    6      1.27     -0.08
    7   16    6     -1.30      0.07
    6   16    6      1.58     -1.26
    5   16    6     -1.09     -1.33
    4   16    6      0.75     -0.74
    3   16    6      1.07      0.78
    2   16    6     -2.07      0.09
    1   16    6      1.64      1.14
    0   16    6      0.02     -0.96
   16   16    6      0.12     -0.01
   16   17    6     -0.90      0.12
   15   17    6      1.43      0.54
   14   17    6      0.10      0.12
   13   17    6     -1.21      1.29
   12   17    6      0.95     -0.02
   11   17    6     -1.06     -0.25
   10   17    6      1.65     -0.64
    9   17    6     -1.42      0.24
    8   17    6     -0.31      0.40
    7   17    6     -0.84     -0.72
    6   17    6     -1.08     -1.23
    5   17    6      1.90     -0.16
    4   17    6      0.95     -0.21
    3   17    6      0.79      3.06
    2   17    6     -0.50      0.13
    1   17    6     -0.81      0.31
    0   17    6      0.22      0.03
   17   17    6      1.34      0.00
   17   18    6     -0.58     -0.76
   16   18    6      1.04     -0.19
   15   18    6     -1.25      0.32
   14   18    6     -0.46     -1.53
   13   18    6     -1.76      0.43
   12   18    6     -0.13     -1.96
   11   18    6      0.51      0.49
   10   18    6     -0.17      0.27
    9   18    6      1.17      1.29
    8   18    6     -0.64      0.31
    7   18    6      1.15      1.66
    6   18    6      0.42     -0.01
    5   18    6     -0.02      0.85
    4   18    6      1.14      1.07
    3   18    6     -1.50      0.96
    2   18    6     -0.18     -0.28
    1   18    6      0.84      0.28
    0   18    6     -0.02     -2.13
   18   18    6     -0.72      0.02
   18   19    6      0.74      0.33
   17   19    6      0.18     -0.16
   16   19    6     -0.33     -0.48
   15   19    6      0.71      1.40
   14   19    6     -1.23     -1.11
   13   19    6      0.70      1.94
   12   19    6     -0.19     -1.22
   11   19    6      1.44      0.94
   10   19    6      0.03     -0.67
    9   19    6      0.15      0.59
    8   19    6     -0.06     -1.18
    7   19    6     -0.21     -2.20
    6   19    6      0.97     -1.15
    5   19    6      0.97     -1.26
    4   19    6      0.26      0.00
    3   19    6     -0.85      0.23
    2   19    6     -1.53     -1.22
    1   19    6     -0.53     -0.89
    0   19    6      0.21      0.00
   19   19    6      0.31      0.02
   18   20    6     -2.45     -0.70
   17   20    6      0.33      0.40
   16   20    6     -0.97     -0.48
   15   20    6     -0.27      0.59
   14   20    6      0.06     -1.06
   13   20    6      0.72      0.55
   12   20    6      1.18     -1.12
   11   20    6      1.51      0.51
   10   20    6     -0.17      0.56
    9   20    6      0.14     -0.28
    8   20    6     -0.39      0.83
    7   20    6      0.03      0.69
    6   20    6     -0.71      0.82
    5   20    6     -0.25      1.39
    4   20    6     -1.19      1.81
    3   20    6     -1.31      0.60
    2   20    6      0.92      0.71
    1   20    6      0.50     -0.18
    0   20    6     -0.02     -0.23
   17   21    6      0.76      0.09
   16   21    6      1.65      0.50
   15   21    6      0.61     -0.18
   14   21    6      0.41      0.24
   13   21    6      0.49     -0.24
   12   21    6     -1.12      0.33
   11   21    6      0.12      0.42
   10   21    6     -1.54      0.43
    9   21    6     -0.71      0.80
    8   21    6     -0.39     -1.07
    7   21    6     -0.35     -0.31
    6   21    6      0.59     -0.37
    5   21    6     -0.17     -0.55
    4   21    6     -0.04     -0.58
    3   21    6     -1.35     -0.81
    2   21    6      0.40     -1.24
    1   21    6      0.23     -0.64
    0   21    6      1.91      0.00
   16   22    6     -0.31      0.40
   15   22    6     -0.35     -0.98
   14   22    6     -0.45      0.89
   13   22    6      0.07     -0.12
   12   22    6      0.12     -0.33
   11   22    6     -0.26      1.08
   10   22    6     -0.41     -1.60
    9   22    6     -0.51     -0.27
    8   22    6      0.87     -0.99
    7   22    6     -0.40     -0.13
    6   22    6      0.79      0.01
    5   22    6     -0.31      0.78
    4   22    6      0.09      0.70
    3   22    6      0.22     -0.14
    2   22    6      2.28      0.05
    1   22    6     -0.64     -0.41
    0   22    6      0.00     -0.30
   15   23    6     -0.95     -0.52
   14   23    6     -0.02      0.09
   13   23    6     -1.14      0.09
   12   23    6     -0.20     -0.36
   11   23    6     -0.59      0.87
   10   23    6      0.45     -0.54
    9   23    6      0.00      0.76
    8   23    6      0.76     -0.40
    7   23    6      0.20      0.51
    6   23    6      0.03      0.71
    5   23    6     -0.34     -0.32
    4   23    6     -0.26      0.14
    3   23    6     -1.07      0.34
    2   23    6      0.92     -0.35
    1   23    6      0.27      0.83
    0   23    6      0.74      0.00
   13   24    6      0.12     -0.01
   12   24    6      0.85     -0.40
   11   24    6      0.02      0.46
   10   24    6      0.39     -1.73
    9   24    6      0.92      0.45
    8   24    6     -0.12      0.08
    7   24    6      0.18      0.36
    6   24    6      0.18      1.05
    5   24    6     -0.67      0.07
    4   24    6      0.95     -0.06
    3   24    6      0.42     -1.01
    2   24    6      1.38     -0.84
    1   24    6     -1.54     -0.60
    0   24    6      0.00     -0.86
   11   25    6      0.55      0.57
   10   25    6     -0.27     -0.27
    9   25    6     -0.17      0.40
    8   25    6     -0.26      0.21
    7   25    6     -0.90     -0.73
    6   25    6      0.30      0.45
    5   25    6     -0.80     -2.21
    4   25    6      0.17      0.31
    3   25    6     -0.73     -0.35
    2   25    6      0.53     -0.72
    1   25    6     -0.17      1.54
    0   25    6     -0.51     -0.01
    9   26    6     -0.13     -0.04
    8   26    6      0.01      0.76
    7   26    6     -0.24     -0.52
    6   26    6      0.25      0.89
    5   26    6     -0.24     -0.34
    4   26    6      0.63      0.22
    3   26    6      0.73      1.07
    2   26    6     -0.46      0.42
    1   26    6     -0.40      1.01
    0   26    6     -0.01      0.56
    5   27    6     -0.08     -0.72
    4   27    6     -0.26      0.70
    2   27    6     -0.03     -0.31
    1   27    6     -0.17     -0.39
    0   27    6     -0.19     -0.01
    3   27    6      0.11     -1.02
    0    1    7      0.18     -0.14
    1    1    7      0.02     -3.37
    1    2    7     -2.15      0.26
    0    2    7     -0.56     -0.59
    2    2    7      0.00      1.18
    2    3    7     -1.21     -4.02
    1    3    7     -0.73     -0.45
    0    3    7      1.54     -1.48
    3    3    7     -0.05     -0.20
    3    4    7      1.10     -0.09
    2    4    7      2.97      0.44
    1    4    7     -2.13      0.43
    0    4    7      2.40      2.40
    4    4    7      0.00     -2.40
    4    5    7      2.25      2.04
    3    5    7     -2.62     -0.32
    2    5    7     -1.29     -0.16
    1    5    7      2.03      3.51
    0    5    7     -1.35      1.35
    5    5    7      0.04     -0.13
    5    6    7     -2.37      2.38
    4    6    7      0.50     -1.96
    3    6    7      3.42      2.30
    2    6    7     -2.46     -2.58
    1    6    7      1.15      1.09
    0    6    7     -1.05     -1.00
    6    6    7      0.01      4.36
    6    7    7     -0.96     -1.22
    5    7    7     -1.85      1.36
    4    7    7     -1.33     -2.53
    3    7    7     -3.59     -0.67
    2    7    7      0.09     -0.25
    1    7    7      0.78      1.54
    0    7    7     -0.47      0.43
    7    7    7      0.00      2.57
    7    8    7     -0.55      1.42
    6    8    7      1.33      1.89
    5    8    7     -2.23     -0.86
    4    8    7      4.18     -1.89
    3    8    7      1.67     -1.07
    2    8    7     -1.79     -0.83
    1    8    7      3.15     -0.79
    0    8    7     -0.74     -0.73
    8    8    7     -0.03     -0.72
    8    9    7      2.43      0.31
    7    9    7     -0.90     -0.69
    6    9    7     -0.88     -1.98
    5    9    7     -0.30     -1.51
    4    9    7     -3.00     -2.10
    3    9    7      1.04     -1.64
    2    9    7     -0.02      1.94
    1    9    7      1.94      0.18
    0    9    7     -1.41      1.40
    9    9    7     -0.02     -2.43
    9   10    7     -0.52     -0.88
    8   10    7     -0.45      0.99
    7   10    7      0.99      2.82
    6   10    7     -2.51      1.69
    5   10    7      0.82     -0.62
    4   10    7      2.86      0.69
    3   10    7     -0.52      0.36
    2   10    7      0.85      1.76
    1   10    7      0.71      1.03
    0   10    7      0.13      0.11
   10   10    7      0.00      0.70
   10   11    7      0.85      0.61
    9   11    7      2.39     -0.42
    8   11    7      1.23      1.51
    7   11    7     -0.10     -1.03
    6   11    7      1.25     -2.42
    5   11    7     -0.39     -2.19
    4   11    7      1.95     -1.86
    3   11    7     -0.10     -0.48
    2   11    7      2.34      2.18
    1   11    7     -1.31     -0.89
    0   11    7     -1.33      1.36
   11   11    7      0.02     -0.11
   11   12    7      0.11     -0.34
   10   12    7      0.61     -1.21
    9   12    7     -0.04     -1.78
    8   12    7     -0.15      0.51
    7   12    7     -1.47      1.09
    6   12    7     -1.82     -0.31
    5   12    7      0.71     -0.88
    4   12    7      1.38      1.56
    3   12    7     -2.37      0.97
    2   12    7      0.42      1.78
    1   12    7     -2.18      1.30
    0   12    7     -1.15     -1.16
   12   12    7      0.03     -0.02
   12   13    7      0.32     -0.30
   11   13    7      0.63      0.63
   10   13    7      0.51      1.09
    9   13    7      1.80      1.46
    8   13    7     -0.79      2.08
    7   13    7      0.34     -0.86
    6   13    7      0.33     -0.66
    5   13    7     -0.33      0.95
    4   13    7      0.98     -0.06
    3   13    7     -2.94      4.07
    2   13    7      1.68     -0.11
    1   13    7     -4.09      0.47
    0   13    7      1.26     -1.25
   13   13    7     -0.01     -0.88
   13   14    7     -0.23     -0.30
   12   14    7     -0.29      0.60
   11   14    7      0.59     -0.10
   10   14    7     -0.02     -1.77
    9   14    7     -0.58     -0.14
    8   14    7     -1.45      0.33
    7   14    7     -2.67      0.47
    6   14    7      0.16     -2.75
    5   14    7      0.18      0.27
    4   14    7      1.76     -1.26
    3   14    7     -1.51     -1.08
    2   14    7      1.56     -0.45
    1   14    7      0.57     -3.78
    0   14    7      0.10      0.13
   14   14    7     -0.04      2.75
   14   15    7      0.07     -0.32
   13   15    7     -0.80     -0.20
   12   15    7      0.32     -1.05
   11   15    7     -0.85      2.03
   10   15    7      0.21      0.05
    9   15    7     -0.57      1.25
    8   15    7     -0.42      0.09
    7   15    7      0.39     -2.09
    6   15    7      0.64      0.25
    5   15    7      1.09      0.02
    4   15    7     -1.75      2.04
    3   15    7      0.34      1.22
    2   15    7     -1.48      0.73
    1   15    7     -0.28      0.25
    0   15    7      0.05     -0.05
   15   15    7     -0.01     -2.14
   15   16    7     -1.61      1.32
   14   16    7     -0.91      0.68
   13   16    7     -1.68     -0.27
   12   16    7     -0.54     -0.32
   11   16    7      0.04     -1.46
   10   16    7     -0.13     -0.26
    9   16    7     -0.14     -1.31
    8   16    7     -1.42      1.46
    7   16    7      0.79     -1.72
    6   16    7      0.32     -0.63
    5   16    7      2.16      1.70
    4   16    7     -0.43     -0.58
    3   16    7     -0.03      1.00
    2   16    7      0.66     -0.52
    1   16    7      0.83     -1.80
    0   16    7      1.35      1.37
   16   16    7      0.03      0.52
   16   17    7     -0.77      0.64
   15   17    7     -0.65     -2.49
   14   17    7     -0.88      1.29
   13   17    7      0.89     -1.25
   12   17    7      1.35      1.39
   11   17    7      0.63      0.79
   10   17    7      1.30      0.98
    9   17    7      0.16      0.56
    8   17    7      0.44     -0.66
    7   17    7      0.70      0.09
    6   17    7      1.07     -0.11
    5   17    7     -0.34      1.37
    4   17    7     -0.50      0.28
    3   17    7      0.77     -1.16
    2   17    7     -0.22      0.30
    1   17    7      0.47     -1.59
    0   17    7     -0.34      0.31
   17   17    7      0.02     -0.59
   17   18    7      0.30     -1.40
   16   18    7     -1.06      1.21
   15   18    7      0.40     -0.17
   14   18    7      0.08      0.06
   13   18    7     -0.27     -0.29
   12   18    7      1.61     -0.79
   11   18    7     -0.77     -0.34
   10   18    7      1.26     -1.06
    9   18    7     -1.08     -0.08
    8   18    7      0.47     -0.28
    7   18    7      1.06     -1.19
    6   18    7      0.37      0.78
    5   18    7     -0.07      0.89
    4   18    7     -2.13     -0.07
    3   18    7     -1.69      0.72
    2   18    7     -0.87     -0.65
    1   18    7     -0.38      0.35
    0   18    7      0.43      0.40
   18   18    7      0.00      0.86
   18   19    7      0.21     -0.38
   17   19    7      0.38      1.29
   16   19    7     -0.05     -0.05
   15   19    7      0.64      0.60
   14   19    7      1.02      0.56
   13   19    7      1.03     -0.07
   12   19    7      1.53      0.76
   11   19    7     -1.16      0.33
   10   19    7     -0.29      0.22
    9   19    7     -1.34      0.30
    8   19    7     -2.10     -0.11
    7   19    7     -0.51      0.86
    6   19    7     -1.34      0.26
    5   19    7     -1.27      1.53
    4   19    7      0.66     -1.70
    3   19    7      1.30      0.05
    2   19    7      1.35     -0.77
    1   19    7      0.60     -0.67
    0   19    7      0.02     -0.03
   17   20    7      0.42     -0.39
   16   20    7     -0.56     -0.42
   15   20    7      0.62     -1.00
   14   20    7     -1.22     -1.33
   13   20    7     -0.73     -0.55
   12   20    7     -0.75     -0.46
   11   20    7     -0.78      0.14
   10   20    7     -0.11     -0.64
    9   20    7      0.66      0.91
    8   20    7      1.66     -1.02
    7   20    7      2.27      0.40
    6   20    7      1.05      0.03
    5   20    7      0.05     -0.13
    4   20    7     -0.80     -0.62
    3   20    7     -0.68     -0.22
    2   20    7      0.46      0.02
    1   20    7      0.32      0.10
    0   20    7      0.59      0.55
   16   21    7     -0.40     -0.90
   15   21    7      0.73      1.85
   14   21    7      0.20      0.07
   13   21    7      0.99      1.25
   12   21    7     -0.22      0.99
   11   21    7     -0.30      0.12
   10   21    7     -0.45      0.26
    9   21    7     -0.54      0.08
    8   21    7     -1.55      0.00
    7   21    7     -0.30      0.16
    6   21    7     -1.62      0.66
    5   21    7     -0.52     -0.51
    4   21    7      0.64     -0.58
    3   21    7      1.09     -0.18
    2   21    7     -0.08      0.10
    1   21    7     -0.47     -0.79
    0   21    7     -0.89      0.91
   14   22    7     -1.44     -0.27
   13   22    7     -0.14     -0.58
   12   22    7     -1.25      0.71
   11   22    7      1.02     -1.34
   10   22    7     -0.39      0.38
    9   22    7      1.47     -0.49
    8   22    7      1.03     -0.55
    7   22    7      0.76      0.10
    6   22    7     -0.19     -0.37
    5   22    7      0.19     -0.39
    4   22    7     -0.63      0.24
    3   22    7      0.73      0.12
    2   22    7      0.97      0.86
    1   22    7      0.31     -0.07
    0   22    7      0.64      0.62
   13   23    7      1.42     -0.35
   12   23    7     -0.85      0.39
   11   23    7      0.92     -1.18
   10   23    7      0.13     -0.02
    9   23    7     -0.63      0.03
    8   23    7      0.11     -0.37
    7   23    7      0.04      1.08
    6   23    7     -0.39      0.12
    5   23    7      1.00     -0.41
    4   23    7      0.72      0.24
    3   23    7      0.46     -0.47
    2   23    7     -0.85      0.21
    1   23    7     -0.96     -0.91
    0   23    7     -0.74      0.76
   11   24    7      0.21     -0.12
   10   24    7      0.28      0.40
    9   24    7      0.37      0.77
    8   24    7      0.07      0.07
    7   24    7     -0.14      0.45
    6   24    7     -1.07     -0.35
    5   24    7      0.21     -0.52
    4   24    7     -1.42      0.55
    3   24    7      0.21     -0.52
    2   24    7     -0.16      0.69
    1   24    7     -1.05     -0.12
    0   24    7      0.52      0.51
    9   25    7     -0.26      0.03
    8   25    7     -0.79     -0.32
    7   25    7      0.15      0.25
    6   25    7     -0.81     -0.40
    5   25    7      0.71     -0.38
    4   25    7      0.63      0.85
    3   25    7     -0.33      0.05
    2   25    7      0.76      0.38
    1   25    7      0.00      0.32
    0   25    7      0.69     -0.69
    5   26    7      0.01     -0.63
    4   26    7      0.20      0.46
    3   26    7      0.31     -0.64
    0    0    8     -3.81     -0.01
    0    1    8     -0.01     -0.07
    1    1    8      0.32      0.03
    1    2    8     -1.22      2.13
    0    2    8     -0.46      0.01
    2    2    8      0.22      0.02
    2    3    8     -1.56      0.35
    1    3    8      1.02      0.41
    0    3    8     -0.02      1.25
    3    3    8     -0.03      0.00
    3    4    8      1.62     -3.19
    2    4    8      0.73      2.07
    1    4    8      0.76      1.35
    0    4    8      3.01      0.01
    4    4    8     -2.70     -0.04
    4    5    8      1.59      1.87
    3    5    8     -1.11     -1.70
    2    5    8      0.81     -0.24
    1    5    8     -2.24      1.60
    0    5    8     -0.02     -1.14
    5    5    8      2.91     -0.02
    5    6    8     -2.08     -1.68
    4    6    8     -1.32     -0.44
    3    6    8     -0.51     -1.93
    2    6    8     -0.18      2.79
    1    6    8      0.09      0.66
    0    6    8     -0.06     -0.01
    6    6    8     -1.41      0.02
    6    7    8     -0.92     -0.04
    5    7    8      2.70     -2.26
    4    7    8      0.20      0.58
    3    7    8      0.33     -1.52
    2    7    8      0.28     -0.33
    1    7    8      0.66      1.92
    0    7    8      0.01     -5.30
    7    7    8      0.59      0.03
    7    8    8     -0.42     -2.40
    6    8    8     -1.11     -2.87
    5    8    8     -1.01     -1.05
    4    8    8      0.96     -3.61
    3    8    8      0.12      2.23
    2    8    8     -0.33     -0.58
    1    8    8      0.09      1.38
    0    8    8     -1.72      0.00
    8    8    8     -2.94      0.01
    8    9    8      0.60     -0.90
    7    9    8      0.23      1.72
    6    9    8      1.88     -2.16
    5    9    8      1.25      2.79
    4    9    8      0.52      0.89
    3    9    8      0.35      0.96
    2    9    8     -0.38      3.22
    1    9    8      1.82     -0.50
    0    9    8      0.04     -1.42
    9    9    8      0.64     -0.02
    9   10    8      0.90      2.53
    8   10    8     -0.44     -1.00
    7   10    8      0.86     -1.47
    6   10    8     -0.02     -1.13
    5   10    8      0.50     -1.39
    4   10    8      0.63      0.90
    3   10    8      0.49      0.87
    2   10    8     -1.88      1.80
    1   10    8      0.36     -0.53
    0   10    8     -3.26      0.02
   10   10    8      3.03     -0.01
   10   11    8      0.64     -0.22
    9   11    8     -1.17     -0.89
    8   11    8     -2.26      0.96
    7   11    8     -0.53      0.28
    6   11    8     -0.92     -0.23
    5   11    8     -0.11      2.80
    4   11    8     -2.04     -0.23
    3   11    8     -0.66      0.70
    2   11    8     -2.00      0.28
    1   11    8      0.89     -2.42
    0   11    8      0.01     -1.49
   11   11    8     -0.11     -0.01
   11   12    8      0.50     -0.53
   10   12    8      0.92      2.52
    9   12    8      0.06      1.13
    8   12    8     -1.00     -2.31
    7   12    8      2.46      0.23
    6   12    8     -0.41     -1.69
    5   12    8      1.51      1.39
    4   12    8      1.10      1.21
    3   12    8     -0.31      1.08
    2   12    8      1.14      1.28
    1   12    8      0.04     -1.33
    0   12    8      0.61      0.01
   12   12    8      0.29      0.02
   12   13    8     -0.84      0.53
   11   13    8      0.79     -1.44
   10   13    8     -1.10     -0.64
    9   13    8     -1.62     -0.24
    8   13    8     -2.13      0.27
    7   13    8      0.36     -0.13
    6   13    8      0.01      0.89
    5   13    8     -0.97      0.23
    4   13    8     -0.23     -0.36
    3   13    8     -2.10     -0.86
    2   13    8     -0.32     -2.13
    1   13    8     -0.14     -2.09
    0   13    8     -0.02     -1.70
   13   13    8      1.35      0.01
   13   14    8     -0.63     -1.22
   12   14    8     -0.44      1.12
   11   14    8     -0.36     -0.30
   10   14    8      0.89      2.77
    9   14    8     -0.73     -1.33
    8   14    8      1.18     -0.97
    7   14    8      1.59     -0.46
    6   14    8     -0.64      0.25
    5   14    8      0.57      1.16
    4   14    8     -0.17     -1.16
    3   14    8     -0.56      1.65
    2   14    8      2.17     -2.80
    1   14    8     -0.11      1.67
    0   14    8      2.37      0.00
   14   14    8     -3.49      0.00
   14   15    8      0.56      1.12
   13   15    8      0.53     -0.90
   12   15    8      1.31      0.88
   11   15    8      0.59     -0.54
   10   15    8     -0.21      0.08
    9   15    8     -1.03      0.53
    8   15    8     -0.42     -0.36
    7   15    8      1.64      0.30
    6   15    8     -0.32     -0.13
    5   15    8     -0.18      1.02
    4   15    8      1.13     -0.81
    3   15    8     -1.68      1.33
    2   15    8      2.54     -0.95
    1   15    8     -0.35      0.41
    0   15    8     -0.01      0.88
   15   15    8     -0.98     -0.01
   15   16    8     -0.63      1.09
   14   16    8     -1.20      0.81
   13   16    8      1.18      0.84
   12   16    8     -0.12     -0.49
   11   16    8      0.16      0.43
   10   16    8      0.19     -0.66
    9   16    8     -0.77     -2.37
    8   16    8      1.54     -0.39
    7   16    8     -0.25      0.14
    6   16    8     -0.01      1.47
    5   16    8      0.25     -0.45
    4   16    8      0.16     -0.60
    3   16    8      0.55     -0.62
    2   16    8     -0.06     -1.82
    1   16    8     -0.06      0.85
    0   16    8     -1.60     -0.01
   16   16    8      0.78     -0.03
   16   17    8     -0.67     -1.18
   15   17    8     -0.27      0.07
   14   17    8      1.07     -1.44
   13   17    8      0.77     -0.99
   12   17    8      1.26     -0.35
   11   17    8     -0.25     -0.68
   10   17    8      0.42      1.21
    9   17    8     -0.94     -0.28
    8   17    8      1.64      1.23
    7   17    8      0.87     -0.10
    6   17    8     -2.17      0.39
    5   17    8      0.41      0.37
    4   17    8     -2.61     -0.41
    3   17    8     -0.64      1.04
    2   17    8      0.38     -0.11
    1   17    8     -0.59      0.89
    0   17    8      0.02      0.62
   17   17    8     -0.63      0.02
   17   18    8     -0.76      0.04
   16   18    8      2.23      0.37
   15   18    8     -0.98      0.10
   14   18    8      1.23      0.62
   13   18    8      0.53      0.04
   12   18    8     -1.13     -0.25
   11   18    8     -0.64      0.41
   10   18    8     -1.21     -0.57
    9   18    8     -1.02     -0.68
    8   18    8     -0.34      1.04
    7   18    8     -0.52      1.73
    6   18    8     -0.45      0.31
    5   18    8      1.44     -0.18
    4   18    8      1.37     -0.50
    3   18    8      0.58     -0.62
    2   18    8      0.95     -0.32
    1   18    8     -0.84      0.11
    0   18    8     -0.28      0.00
   16   19    8      0.17      0.29
   15   19    8     -0.19     -0.16
   14   19    8     -0.28     -0.82
   13   19    8      0.20      1.35
   12   19    8     -0.44     -0.33
   11   19    8     -0.11      1.59
   10   19    8      0.63      0.76
    9   19    8      0.20      0.31
    8   19    8      2.61      0.44
    7   19    8     -1.07     -0.88
    6   19    8     -0.93     -1.30
    5   19    8     -0.72     -0.81
    4   19    8     -1.78     -1.30
    3   19    8      0.04      0.46
    2   19    8      0.62     -0.27
    1   19    8      0.27      0.47
    0   19    8      0.00     -0.21
   15   20    8     -0.91      0.41
   14   20    8      0.63     -0.51
   13   20    8     -1.26      0.34
   12   20    8     -0.36     -1.12
   11   20    8     -1.10     -0.13
   10   20    8      0.08     -1.46
    9   20    8     -1.02     -0.83
    8   20    8      0.25     -0.07
    7   20    8     -0.12      0.60
    6   20    8      0.52     -1.46
    5   20    8      2.16      1.10
    4   20    8      0.58     -0.39
    3   20    8      0.42      1.24
    2   20    8     -0.38     -0.17
    1   20    8     -0.89      0.39
    0   20    8     -0.47      0.01
   14   21    8      0.68     -0.20
   13   21    8     -0.33      1.46
   12   21    8      1.04     -0.59
   11   21    8      0.51      1.82
   10   21    8      0.73     -0.53
    9   21    8      1.54      1.34
    8   21    8      0.19     -0.18
    7   21    8     -1.10      0.47
    6   21    8     -0.69     -0.60
    5   21    8     -0.61      0.92
    4   21    8     -0.64     -0.32
    3   21    8      0.87      0.97
    2   21    8      0.49      0.04
    1   21    8      0.57     -0.07
    0   21    8     -0.01      0.33
   12   22    8      0.29     -1.73
   11   22    8      0.22      0.10
   10   22    8     -0.77     -1.34
    9   22    8      0.13     -0.27
    8   22    8     -0.20      0.34
    7   22    8      0.17     -0.50
    6   22    8      1.15     -0.72
    5   22    8      0.91      0.36
    4   22    8     -0.38     -0.23
    3   22    8      0.22     -0.29
    2   22    8     -1.41     -0.46
    1   22    8     -0.09     -0.75
    0   22    8     -0.84      0.01
   10   23    8     -0.32      0.69
    9   23    8      0.62      0.35
    8   23    8     -1.02      0.21
    7   23    8     -0.84     -0.32
    6   23    8     -0.16     -0.02
    5   23    8     -0.44      0.46
    4   23    8     -0.79     -0.02
    3   23    8      0.85      0.60
    2   23    8     -1.00      0.50
    1   23    8      0.35     -0.03
    0   23    8     -0.01      1.94
    8   24    8      0.14      0.35
    7   24    8      0.18     -0.08
    6   24    8      0.75      0.16
    5   24    8      0.16      0.91
    4   24    8     -0.17      0.19
    3   24    8      0.71     -0.53
    2   24    8     -0.08      0.32
    1   24    8      0.64     -1.44
    0   24    8      0.39     -0.01
    4   25    8     -0.27     -0.26
    3   25    8      0.10     -0.31
    2   25    8     -0.73      0.04
    1   25    8     -0.27      0.09
    0    1    9      0.83      0.88
    1    1    9      0.01     -2.39
    1    2    9      1.12      1.55
    0    2    9     -0.59      0.56
    2    2    9     -0.04      1.78
    2    3    9     -1.96     -0.29
    1    3    9      1.50     -1.12
    0    3    9     -0.04     -0.06
    3    3    9     -0.02      1.30
    3    4    9      0.14     -1.57
    2    4    9     -0.97      1.99
    1    4    9     -0.08     -0.80
    0    4    9     -0.63      0.59
    4    4    9     -0.01     -0.88
    4    5    9      1.42      0.53
    3    5    9      0.14      0.24
    2    5    9     -1.73      1.33
    1    5    9      1.90     -0.68
    0    5    9     -0.02     -0.04
    5    5    9      0.02     -2.33
    5    6    9     -0.45     -0.28
    4    6    9     -0.93     -0.24
    3    6    9      1.01     -0.49
    2    6    9     -1.19      1.37
    1    6    9     -0.27     -2.94
    0    6    9      1.22     -1.23
    6    6    9      0.04     -1.38
    6    7    9     -0.43     -1.30
    5    7    9      0.50     -1.81
    4    7    9      0.89      2.23
    3    7    9     -2.72     -0.60
    2    7    9      0.57      2.17
    1    7    9     -0.99      0.15
    0    7    9      1.24      1.27
    7    7    9     -0.01     -1.77
    7    8    9      0.43     -1.53
    6    8    9      1.40      1.46
    5    8    9     -1.64      0.79
    4    8    9      1.80      1.80
    3    8    9     -0.16      0.92
    2    8    9      0.56     -0.62
    1    8    9      1.67     -1.49
    0    8    9      1.83     -1.80
    8    8    9     -0.01      1.24
    8    9    9      1.00     -1.50
    7    9    9      0.38     -1.06
    6    9    9      0.81     -1.01
    5    9    9      0.94      1.58
    4    9    9     -0.28      0.71
    3    9    9     -1.34      1.33
    2    9    9      0.83     -0.38
    1    9    9     -0.53      1.00
    0    9    9     -0.14     -0.11
    9    9    9     -0.03     -2.05
    9   10    9     -0.67      0.55
    8   10    9     -1.22      1.60
    7   10    9      0.45      1.41
    6   10    9     -0.96      1.55
    5   10    9     -2.39      1.80
    4   10    9      1.49     -0.55
    3   10    9     -2.47     -0.28
    2   10    9      0.80     -1.20
    1   10    9      0.35     -1.41
    0   10    9     -1.23      1.23
   10   10    9      0.01     -1.19
   10   11    9     -0.33      0.98
    9   11    9      0.07     -1.38
    8   11    9      0.56     -0.26
    7   11    9     -0.30     -1.02
    6   11    9      1.77     -0.21
    5   11    9     -0.79      1.87
    4   11    9      0.25      0.27
    3   11    9     -0.52     -0.79
    2   11    9      0.43      0.34
    1   11    9      1.45     -2.45
    0   11    9     -0.63     -0.65
   11   11    9      0.01      2.71
   11   12    9     -1.36     -0.19
   10   12    9     -1.01     -0.99
    9   12    9     -1.17     -0.21
    8   12    9     -0.71      1.87
    7   12    9      1.00      0.23
    6   12    9     -2.05     -0.06
    5   12    9      0.51     -0.28
    4   12    9      0.05     -1.68
    3   12    9      0.42     -1.94
    2   12    9      0.59      0.44
    1   12    9      0.95     -0.60
    0   12    9     -2.74      2.68
   12   12    9      0.00     -1.53
   12   13    9      0.23      1.12
   11   13    9      0.33      0.93
   10   13    9     -1.17      0.60
    9   13    9      1.98     -2.84
    8   13    9     -1.00      0.17
    7   13    9      1.58     -0.52
    6   13    9     -0.10      0.01
    5   13    9     -0.20      1.83
    4   13    9     -0.15     -0.69
    3   13    9     -0.63     -0.81
    2   13    9      0.53      1.02
    1   13    9      0.03     -2.41
    0   13    9      0.56      0.54
   13   13    9      0.01      2.05
   13   14    9      1.15     -1.32
   12   14    9     -0.42     -0.05
   11   14    9      0.71     -2.20
   10   14    9      0.26      0.11
    9   14    9      0.49      0.17
    8   14    9      1.81      0.83
    7   14    9      0.18      0.45
    6   14    9     -0.28     -0.29
    5   14    9      0.55      0.13
    4   14    9      0.44     -0.10
    3   14    9      1.22     -1.14
    2   14    9      0.61      2.04
    1   14    9      0.76     -0.08
    0   14    9     -2.02      1.98
   14   14    9      0.00      0.81
   14   15    9      1.43      0.19
   13   15    9      1.40      0.12
   12   15    9      1.81      0.31
   11   15    9     -1.67      0.00
   10   15    9      0.55     -0.60
    9   15    9     -1.30     -0.43
    8   15    9     -1.24      1.77
    7   15    9     -0.16     -0.21
    6   15    9     -1.29      1.35
    5   15    9      0.74     -1.28
    4   15    9     -1.18     -1.41
    3   15    9      0.68     -0.58
    2   15    9     -1.13     -0.67
    1   15    9     -1.05      0.05
    0   15    9     -0.17     -0.19
   15   15    9     -0.03     -2.45
   15   16    9      0.04      0.60
   14   16    9      1.57      1.02
   13   16    9     -1.33     -0.16
   12   16    9     -0.28      0.59
   11   16    9     -1.25     -0.61
   10   16    9      0.18      0.88
    9   16    9      1.12     -0.45
    8   16    9      1.14      0.50
    7   16    9      0.26     -1.94
    6   16    9     -0.31      0.13
    5   16    9      0.18      0.48
    4   16    9      0.02     -0.32
    3   16    9      0.02      2.30
    2   16    9      0.14      1.07
    1   16    9      0.01      1.33
    0   16    9     -0.80      0.83
   16   16    9      0.01      0.87
   16   17    9     -0.72      0.22
   15   17    9     -0.26     -2.09
   14   17    9      0.43      0.93
   13   17    9     -0.12     -1.27
   12   17    9      0.21     -0.11
   11   17    9     -1.68     -0.37
   10   17    9      1.07     -0.40
    9   17    9     -1.80      1.39
    8   17    9      0.12      1.96
    7   17    9     -0.61      0.22
    6   17    9      0.59      1.14
    5   17    9      0.36     -1.41
    4   17    9     -0.60     -0.47
    3   17    9      0.74     -0.46
    2   17    9     -2.41     -0.71
    1   17    9      0.89     -0.96
    0   17    9     -0.89     -0.90
   15   18    9      0.72     -0.22
   14   18    9      0.99      0.84
   13   18    9     -1.81     -0.05
   12   18    9      1.02      0.39
   11   18    9     -1.46      0.68
   10   18    9      1.84     -0.02
    9   18    9      0.80     -0.47
    8   18    9      0.18     -0.51
    7   18    9     -0.08     -3.37
    6   18    9     -1.48      0.96
    5   18    9      0.78     -1.63
    4   18    9     -1.21      0.28
    3   18    9      1.59      1.43
    2   18    9      0.15     -0.17
    1   18    9      1.28      0.96
    0   18    9      0.49     -0.45
   13   19    9     -0.80     -0.94
   12   19    9     -0.33      0.56
   11   19    9      0.09     -0.16
   10   19    9     -0.16      0.33
    9   19    9     -0.40      0.70
    8   19    9     -0.75      1.19
    7   19    9      0.95     -0.70
    6   19    9      0.05      1.05
    5   19    9      0.57     -0.05
    4   19    9     -0.22      0.07
    3   19    9     -0.55      1.06
    2   19    9     -0.77     -1.22
    1   19    9     -0.06      0.46
    0   19    9     -0.51     -0.51
   14   19    9     -0.12      1.36
   13   20    9      0.78     -0.46
   12   20    9      0.24      0.19
   11   20    9      0.37     -0.16
   10   20    9      1.45     -0.98
    9   20    9     -0.06     -0.43
    8   20    9     -0.11     -1.71
    7   20    9     -0.16     -0.95
    6   20    9     -0.12      0.53
    5   20    9      0.60     -0.26
    4   20    9      0.42      0.30
    3   20    9      0.71      1.46
    2   20    9      0.72     -0.85
    1   20    9      0.32      0.57
    0   20    9      0.18     -0.19
   11   21    9     -0.54      0.16
   10   21    9      0.08     -0.25
    9   21    9     -0.66      1.34
    8   21    9     -0.08      0.13
    7   21    9      1.10      0.74
    6   21    9     -0.63      0.86
    5   21    9     -0.10      0.52
    4   21    9     -0.57     -0.52
    3   21    9     -1.03      0.22
    2   21    9      0.09     -2.12
    1   21    9     -0.35      0.50
    0   21    9     -0.92     -0.93
    9   22    9     -0.19      0.43
    8   22    9     -0.85     -1.34
    7   22    9      0.37      0.62
    6   22    9     -0.49     -0.40
    5   22    9     -0.13     -0.04
    4   22    9      0.26     -0.15
    3   22    9     -0.54      1.13
    2   22    9      0.14     -0.70
    1   22    9      0.17      1.80
    0   22    9     -0.63      0.65
    6   23    9     -0.42      0.21
    5   23    9      0.13     -0.13
    4   23    9      0.42     -0.25
    3   23    9      0.57     -0.52
    2   23    9      0.44     -0.89
    1   23    9      0.74     -0.21
    0   23    9     -0.93     -0.93
    0    1   10      0.67     -0.03
    1    1   10     -0.58      0.03
    1    2   10      0.63     -0.05
    0    2   10     -0.01     -0.20
    2    2   10      1.99      0.03
    2    3   10     -1.34     -0.18
    1    3   10     -0.27     -1.03
    0    3   10     -1.23     -0.02
    3    3   10     -0.25     -0.01
    3    4   10     -1.12      0.25
    2    4   10      1.05      0.86
    1    4   10      0.27      0.20
    0    4   10      0.03      0.45
    4    4   10     -1.65     -0.02
    4    5   10      1.91     -0.02
    3    5   10     -0.63     -0.07
    2    5   10      0.83     -1.48
    1    5   10      0.37     -1.95
    0    5   10     -0.67      0.00
    5    5   10     -1.51     -0.01
    5    6   10     -0.74      1.75
    4    6   10     -1.56      1.55
    3    6   10     -0.77      0.85
    2    6   10      0.05      2.79
    1    6   10      0.94     -0.07
    0    6   10      0.01      2.60
    6    6   10      1.14      0.01
    6    7   10     -0.94      0.57
    5    7   10      1.01      0.64
    4    7   10      1.49      1.09
    3    7   10      0.98     -2.45
    2    7   10      1.57     -1.54
    1    7   10      0.97     -1.78
    0    7   10     -0.04      0.01
    7    7   10      2.24      0.02
    7    8   10      0.46      0.36
    6    8   10     -0.12      0.43
    5    8   10     -1.51      1.40
    4    8   10     -1.04      0.28
    3    8   10     -0.96      0.32
    2    8   10      0.55      0.93
    1    8   10     -1.88     -0.27
    0    8   10     -0.04      0.77
    8    8   10     -0.62      0.03
    8    9   10      0.58      0.39
    7    9   10      0.09      2.44
    6    9   10     -1.39     -0.07
    5    9   10      0.78      0.54
    4    9   10      0.97     -0.26
    3    9   10      0.19     -2.49
    2    9   10      1.79      0.00
    1    9   10     -0.23      1.36
    0    9   10      0.34      0.00
    9    9   10     -1.85     -0.02
    9   10   10     -0.09      0.45
    8   10   10      0.48     -0.47
    7   10   10      0.90      0.24
    6   10   10     -0.69      0.86
    5   10   10     -0.55     -0.11
    4   10   10     -0.21     -0.38
    3   10   10     -0.15      0.56
    2   10   10      0.34     -1.83
    1   10   10     -1.81      0.15
    0   10   10     -0.01     -2.76
   10   10   10      1.59     -0.04
   10   11   10      0.44     -0.70
    9   11   10     -2.06      0.22
    8   11   10      0.92      0.95
    7   11   10     -0.80     -0.02
    6   11   10     -0.89     -1.84
    5   11   10      1.31      0.57
    4   11   10      1.02     -3.05
    3   11   10     -0.61      0.73
    2   11   10      1.22     -0.39
    1   11   10     -1.56      1.93
    0   11   10      0.19      0.00
   11   11   10     -1.88      0.01
   11   12   10     -1.13      1.08
   10   12   10      1.27     -1.04
    9   12   10     -0.47      0.40
    8   12   10      0.55      0.11
    7   12   10      0.97      1.30
    6   12   10     -0.92      0.17
    5   12   10     -0.58      0.83
    4   12   10      0.72     -1.15
    3   12   10     -0.77      0.26
    2   12   10      0.99     -0.70
    1   12   10      0.35     -0.50
    0   12   10      0.01      0.60
   12   12   10      1.73      0.01
   12   13   10     -0.45     -1.71
   11   13   10      0.60      0.49
   10   13   10     -0.11     -0.53
    9   13   10      0.56     -1.04
    8   13   10      0.16      0.96
    7   13   10     -0.31     -2.86
    6   13   10      0.37     -0.88
    5   13   10      1.42      0.19
    4   13   10      1.02     -1.31
    3   13   10     -0.61      1.66
    2   13   10     -0.21      0.96
    1   13   10     -1.35      0.40
    0   13   10     -0.83      0.00
   13   13   10      0.07      0.01
   13   14   10      1.06     -0.35
   12   14   10     -0.68     -0.45
   11   14   10     -0.32     -1.89
   10   14   10     -0.46      1.46
    9   14   10      0.08     -0.60
    8   14   10      0.56      2.57
    7   14   10      0.61      1.55
    6   14   10     -0.81     -0.62
    5   14   10     -0.24      1.58
    4   14   10     -0.26     -1.91
    3   14   10     -1.37      0.58
    2   14   10      0.61     -0.11
    1   14   10     -0.31     -0.01
    0   14   10      0.00      2.35
   14   14   10     -0.84      0.01
   14   15   10      0.50      0.00
   13   15   10      0.52     -1.30
   12   15   10     -0.26      1.45
   11   15   10      1.23      0.42
   10   15   10     -0.05      0.85
    9   15   10      0.40      0.46
    8   15   10     -0.67     -1.21
    7   15   10     -1.45     -0.61
    6   15   10     -0.20     -1.20
    5   15   10     -0.37      0.70
    4   15   10      0.12      0.13
    3   15   10     -1.02      0.29
    2   15   10      0.76      1.79
    1   15   10     -0.65     -1.63
    0   15   10      1.35      0.02
   15   15   10      1.77     -0.01
   15   16   10      0.75      0.83
   14   16   10     -1.31      0.72
   13   16   10      0.36      0.60
   12   16   10     -1.99     -0.35
   11   16   10     -0.87     -0.19
   10   16   10     -0.42      0.80
    9   16   10     -0.99      0.01
    8   16   10      1.85      0.64
    7   16   10     -0.25     -0.57
    6   16   10      1.42     -0.84
    5   16   10      0.70     -0.42
    4   16   10      0.43      0.13
    3   16   10     -0.09      0.01
    2   16   10      0.76      0.47
    1   16   10     -0.49      0.69
    0   16   10      0.00      0.46
   13   17   10     -0.52     -0.55
   12   17   10      0.40      0.87
   11   17   10      0.19     -0.93
   10   17   10      1.96      0.46
    9   17   10     -1.01     -0.78
    8   17   10      0.81     -1.45
    7   17   10     -1.95      0.62
    6   17   10     -0.23     -0.07
    5   17   10     -0.95      1.56
    4   17   10     -0.95      0.28
    3   17   10     -0.58      0.28
    2   17   10      0.15      0.08
    1   17   10     -0.18     -2.33
    0   17   10      0.41      0.03
   14   17   10     -1.26     -1.47
   11   18   10     -0.58      0.64
   10   18   10      1.06     -0.10
    9   18   10     -1.36      0.91
    8   18   10      2.13     -0.90
    7   18   10     -0.87      0.33
    6   18   10      1.65     -0.49
    5   18   10      0.32     -0.40
    4   18   10      0.36      0.81
    3   18   10      1.13     -1.92
    2   18   10      0.56      1.60
    1   18   10      1.06     -0.77
    0   18   10     -0.03      0.86
   12   18   10      0.52      0.12
   13   18   10      0.30      0.51
   11   19   10     -0.39     -0.66
   10   19   10      1.29     -0.42
    9   19   10     -1.96     -1.08
    8   19   10      1.00     -0.08
    7   19   10     -1.77      0.08
    6   19   10      0.19      1.33
    5   19   10      0.06     -0.36
    4   19   10     -1.29      1.22
    3   19   10      1.02     -0.62
    2   19   10     -1.34      0.26
    1   19   10      0.18     -0.61
    0   19   10     -1.64      0.00
    9   20   10     -0.74     -0.11
    8   20   10      1.44      0.54
    7   20   10     -0.07      0.15
    6   20   10      0.29      0.15
    5   20   10      0.86     -0.04
    4   20   10     -0.90     -0.65
    3   20   10      1.42     -0.90
    2   20   10     -0.52      0.75
    1   20   10     -0.26     -0.80
    0   20   10     -0.01      0.79
    7   21   10     -0.84      0.46
    6   21   10     -0.30      0.00
    5   21   10     -0.24      0.03
    4   21   10     -1.18      0.41
    3   21   10     -0.02     -0.38
    2   21   10     -0.15      0.88
    1   21   10     -0.59     -0.17
    0   21   10      0.95     -0.01
    3   22   10      1.10      0.24
    2   22   10      0.15     -0.07
    1   22   10     -0.21     -0.38
    0   22   10     -0.01      0.17
    0    1   11     -0.38      0.40
    1    1   11      0.01     -1.52
    1    2   11     -0.25      0.10
    0    2   11      0.06      0.08
    2    2   11     -0.01     -0.53
    2    3   11      1.53      0.24
    1    3   11      0.75     -0.04
    0    3   11     -0.21      0.24
    3    3   11     -0.04      1.48
    3    4   11      0.44     -0.93
    2    4   11      0.73     -0.79
    1    4   11     -0.70     -0.03
    0    4   11     -0.75     -0.70
    4    4   11      0.01      0.22
    4    5   11     -1.07      0.07
    3    5   11      0.22      1.47
    2    5   11      1.27     -0.22
    1    5   11      0.08      0.39
    0    5   11     -0.11      0.12
    5    5   11      0.02      0.40
    5    6   11      1.35      1.37
    4    6   11      1.03     -0.92
    3    6   11      0.93     -0.73
    2    6   11      0.81      0.00
    1    6   11     -1.06      0.02
    0    6   11      0.18      0.22
    6    6   11      0.01     -0.28
    6    7   11     -0.82      0.68
    5    7   11     -1.44     -0.05
    4    7   11     -0.09      0.07
    3    7   11     -0.46      0.04
    2    7   11      0.25     -0.31
    1    7   11     -1.27     -1.05
    0    7   11     -0.73      0.69
    7    7   11      0.01     -0.05
    7    8   11     -0.62      0.59
    6    8   11      0.28      0.30
    5    8   11     -0.07      0.66
    4    8   11      0.87     -1.80
    3    8   11      0.70      0.11
    2    8   11     -0.67      1.40
    1    8   11     -0.32      0.16
    0    8   11      0.95      0.94
    8    8   11     -0.03      3.95
    8    9   11      0.18     -0.61
    7    9   11      0.62     -0.61
    6    9   11     -0.47     -1.66
    5    9   11      0.61     -0.16
    4    9   11      0.46     -0.97
    3    9   11      0.82     -0.80
    2    9   11     -0.09     -1.47
    1    9   11     -0.84     -1.46
    0    9   11      0.38     -0.41
    9    9   11     -0.02     -0.68
    9   10   11      0.27      0.86
    8   10   11     -1.33      1.27
    7   10   11     -0.14     -0.56
    6   10   11     -0.30     -0.05
    5   10   11     -0.22     -0.22
    4   10   11      0.32     -0.09
    3   10   11     -1.21      1.56
    2   10   11     -1.33      2.08
    1   10   11     -1.26      1.20
    0   10   11      0.86      0.83
   10   10   11      0.00     -0.67
   10   11   11     -0.20      0.10
    9   11   11      0.04      0.16
    8   11   11      1.80     -0.55
    7   11   11      0.33     -0.51
    6   11   11      0.50     -0.13
    5   11   11      0.88     -0.59
    4   11   11      0.28     -0.38
    3   11   11      0.74     -0.84
    2   11   11      0.20     -2.18
    1   11   11      0.54      0.20
    0   11   11      1.47     -1.46
   11   11   11      0.03     -0.06
   11   12   11      1.04      0.57
   10   12   11      1.99     -1.68
    9   12   11     -1.29      1.69
    8   12   11     -0.37     -0.68
    7   12   11      0.48     -0.86
    6   12   11     -1.61      1.11
    5   12   11      0.86     -0.24
    4   12   11     -1.29      0.38
    3   12   11     -1.27      2.27
    2   12   11     -0.37     -0.09
    1   12   11     -0.53      1.12
    0   12   11      0.73      0.72
   12   12   11      0.02     -0.85
   12   13   11     -1.37     -1.22
   11   13   11     -1.31      1.25
   10   13   11     -0.48     -0.06
    9   13   11      0.33      0.71
    8   13   11     -0.13      0.17
    7   13   11      0.58     -1.39
    6   13   11     -0.86      0.19
    5   13   11      0.45     -1.05
    4   13   11      0.86     -0.66
    3   13   11     -0.61      0.49
    2   13   11      1.02      0.00
    1   13   11     -0.27      1.37
    0   13   11     -0.46      0.47
   13   13   11     -0.02      0.85
   13   14   11     -0.25     -0.42
   12   14   11     -0.07      0.29
   11   14   11      1.28     -0.14
   10   14   11      0.42     -0.15
    9   14   11     -0.67     -0.19
    8   14   11      0.21      0.18
    7   14   11      0.35     -0.44
    6   14   11     -0.55      2.27
    5   14   11     -0.05      0.62
    4   14   11     -0.81      0.83
    3   14   11     -0.57      1.65
    2   14   11     -0.22     -1.49
    1   14   11      1.93     -0.86
    0   14   11     -0.76     -0.73
   14   14   11     -0.01     -0.92
   13   15   11     -0.63      0.03
   12   15   11     -0.32      0.42
   11   15   11     -0.04      0.63
   10   15   11     -0.06      1.20
    9   15   11      1.11     -0.71
    8   15   11     -1.07      0.45
    7   15   11      0.65     -1.89
    6   15   11     -1.35     -0.36
    5   15   11      0.94     -0.73
    4   15   11     -0.01     -1.48
    3   15   11      0.48      0.88
    2   15   11      0.31     -0.46
    1   15   11     -0.49      0.54
    0   15   11     -0.04      0.03
   11   16   11      1.51     -1.28
   10   16   11     -2.25      0.43
    9   16   11      0.75     -1.71
    8   16   11     -1.25      0.56
    7   16   11      0.17      0.34
    6   16   11      0.00      0.93
    5   16   11     -0.35      1.24
    4   16   11      1.20     -0.02
    3   16   11     -0.73      1.29
    2   16   11      1.46     -1.60
    1   16   11      0.10      0.35
    0   16   11     -0.54     -0.53
   12   16   11     -0.40      0.92
   10   17   11      0.00      0.59
    9   17   11      1.11     -1.07
    8   17   11      0.68      0.27
    7   17   11      0.05     -0.19
    6   17   11      1.45     -0.25
    5   17   11     -0.61      0.51
    4   17   11      0.80     -1.33
    3   17   11     -0.71      0.81
    2   17   11     -0.59     -1.43
    1   17   11     -0.57     -0.05
    0   17   11      0.44     -0.45
    9   18   11     -0.08     -0.30
    8   18   11     -0.61      0.87
    7   18   11     -1.04      0.96
    6   18   11      0.18     -0.48
    5   18   11     -0.98      0.79
    4   18   11      0.89     -0.94
    3   18   11     -0.87      0.36
    2   18   11      1.45     -0.73
    1   18   11     -0.92      0.82
    0   18   11      0.51      0.48
    6   19   11      1.43     -0.63
    5   19   11     -1.63      0.05
    4   19   11      1.71     -0.54
    3   19   11     -1.74      0.47
    2   19   11      0.00     -0.24
    1   19   11     -0.05      0.59
    0   19   11     -0.56      0.55
    3   20   11      0.33      0.23
    2   20   11      0.04      0.13
    1   20   11      0.88     -0.01
    0   20   11     -0.06     -0.09
    0    0   12      0.23     -0.02
    0    1   12      0.00      0.05
    1    1   12     -0.63      0.03
    1    2   12      0.23     -1.96
    0    2   12      0.24      0.01
    2    2   12      0.69      0.01
    2    3   12     -0.22      1.54
    1    3   12     -0.39     -0.82
    0    3   12      0.00      2.12
    3    3   12      1.32     -0.01
    3    4   12      0.23      0.59
    2    4   12      0.27      1.00
    1    4   12     -0.26     -1.03
    0    4   12     -0.27      0.00
    4    4   12     -0.34     -0.03
    4    5   12      0.57     -0.20
    3    5   12      0.23      0.10
    2    5   12     -0.71     -0.30
    1    5   12      0.00     -0.58
    0    5   12      0.01      0.19
    5    5   12     -0.09     -0.03
    5    6   12      0.81     -1.08
    4    6   12     -0.10     -0.05
    3    6   12      0.55     -0.05
    2    6   12     -0.07     -0.66
    1    6   12     -0.51     -0.02
    0    6   12     -0.69     -0.02
    6    6   12     -0.23      0.02
    6    7   12     -0.50      0.90
    5    7   12     -0.06     -0.79
    4    7   12     -0.07      0.78
    3    7   12     -1.43      0.84
    2    7   12     -0.47      0.16
    1    7   12      0.04      0.43
    0    7   12      0.02      0.37
    7    7   12      0.98      0.03
    7    8   12     -0.46     -1.90
    6    8   12      0.21     -0.44
    5    8   12      0.18     -0.92
    4    8   12      0.54     -0.66
    3    8   12     -0.09     -1.30
    2    8   12      0.21     -1.20
    1    8   12     -0.61     -0.60
    0    8   12     -0.22      0.00
    8    8   12      0.63     -0.01
    8    9   12     -0.34      0.80
    7    9   12      0.34     -0.84
    6    9   12     -0.61     -0.58
    5    9   12      0.69      0.09
    4    9   12     -0.49      1.36
    3    9   12     -0.46      0.69
    2    9   12     -0.09      1.27
    1    9   12      1.15      0.24
    0    9   12      0.03      1.06
    9    9   12     -1.73      0.00
    9   10   12      1.54     -0.81
    8   10   12      0.49      0.01
    7   10   12      0.66     -0.70
    6   10   12     -0.12      0.40
    4   10   12     -0.86     -0.13
    3   10   12      0.51     -1.04
    2   10   12     -0.86      0.50
    1   10   12     -0.12      0.59
    0   10   12     -0.42      0.03
    5   10   12      0.60      0.25
   10   10   12     -0.09     -0.01
   10   11   12     -0.68     -0.27
    9   11   12     -0.93     -0.63
    8   11   12      0.08     -0.22
    7   11   12     -0.39     -0.69
    5   11   12      0.50      1.14
    4   11   12     -1.57      0.60
    3   11   12      0.56      0.17
    2   11   12     -0.29     -0.43
    1   11   12      0.96     -0.24
    0   11   12      0.01     -1.51
    6   11   12     -0.37     -0.64
   11   11   12      1.38     -0.03
   11   12   12      0.29      0.71
   10   12   12      0.29     -0.35
    9   12   12      1.14      0.88
    8   12   12      0.17     -0.21
    7   12   12     -0.79      0.99
    6   12   12     -0.48      0.61
    5   12   12      0.58      0.30
    4   12   12     -1.46     -0.05
    3   12   12      1.50     -0.22
    2   12   12     -0.39      1.48
    1   12   12      0.34      1.40
    0   12   12      1.17      0.01
   12   12   12     -0.91      0.03
   11   13   12      0.99      1.34
   10   13   12     -1.66     -0.81
    9   13   12     -0.75      0.69
    8   13   12      0.23     -0.31
    7   13   12     -0.80     -0.90
    6   13   12     -0.29      0.61
    5   13   12      0.87     -0.28
    4   13   12     -0.76      0.40
    3   13   12      1.10     -0.60
    2   13   12      1.18     -1.25
    1   13   12     -1.23     -0.29
    0   13   12     -0.01     -2.59
    9   14   12     -0.02     -0.25
    8   14   12      0.21     -0.52
    7   14   12     -0.16     -0.08
    6   14   12      0.82      0.75
    5   14   12      0.69     -0.08
    4   14   12      0.00     -0.18
    3   14   12     -0.29      0.80
    2   14   12     -0.15      0.19
    1   14   12     -0.82      0.00
    0   14   12      0.89     -0.01
   10   14   12      0.98     -1.04
    9   15   12     -0.30      1.17
    8   15   12     -0.09     -0.05
    7   15   12     -0.51      0.13
    6   15   12     -0.31      1.01
    5   15   12      0.12     -0.74
    4   15   12     -0.32      0.27
    3   15   12      0.72     -1.55
    2   15   12      0.60      0.14
    1   15   12     -0.84     -0.91
    0   15   12     -0.02      0.16
    7   16   12      1.43     -0.73
    6   16   12      0.20      1.17
    5   16   12      0.72     -1.64
    4   16   12     -0.29      0.65
    3   16   12     -0.53      0.01
    2   16   12     -0.28     -0.26
    1   16   12     -0.45      0.53
    0   16   12      0.81     -0.01
    5   17   12     -0.14     -0.22
    4   17   12     -0.10     -0.20
    3   17   12      0.00      0.30
    2   17   12     -0.21      0.14
    1   17   12     -0.50      0.08
    0   17   12      0.02      0.66
    0    1   13     -0.52     -0.47
    1    1   13     -0.01      1.55
    1    2   13     -0.07      0.49
    0    2   13      0.63     -0.65
    2    2   13      0.01     -1.56
    2    3   13      1.35      0.31
    1    3   13      0.65      0.35
    0    3   13     -0.18     -0.12
    3    3   13     -0.01      0.89
    3    4   13     -0.69     -0.46
    2    4   13     -0.97      0.00
    1    4   13     -0.77     -0.70
    0    4   13     -0.56      0.56
    4    4   13     -0.07      0.59
    4    5   13     -1.26      0.09
    3    5   13      0.02     -0.57
    2    5   13      0.10      0.56
    1    5   13     -0.08     -0.81
    0    5   13      0.56      0.56
    5    5   13      0.08     -0.29
    5    6   13      0.39     -0.30
    4    6   13     -0.54      0.43
    3    6   13      0.45     -0.70
    2    6   13      0.24      0.61
    1    6   13      0.53     -0.43
    0    6   13     -0.01      0.03
    6    6   13      0.01     -1.12
    6    7   13      0.07      0.48
    5    7   13     -0.15      0.18
    4    7   13     -0.55      0.47
    3    7   13      0.14     -0.09
    2    7   13     -0.62      0.51
    1    7   13     -0.62      0.24
    0    7   13      0.27      0.26
    7    7   13      0.00      0.15
    7    8   13     -0.13     -0.83
    6    8   13      0.21     -1.08
    5    8   13     -0.45     -0.08
    4    8   13      0.21     -0.58
    3    8   13     -0.09     -0.16
    2    8   13      0.56     -0.69
    1    8   13      0.01     -0.31
    0    8   13      0.23     -0.24
    8    8   13     -0.02     -0.68
    8    9   13      0.80     -0.60
    7    9   13     -0.25      0.74
    6    9   13     -0.03      0.75
    5    9   13     -0.88      0.93
    4    9   13      0.62      0.30
    3    9   13     -0.47      1.30
    2    9   13      0.32      1.23
    1    9   13      0.36      0.34
    0    9   13      1.19      1.23
    9    9   13      0.01      0.03
    9   10   13     -1.37     -0.41
    8   10   13      0.23     -0.08
    7   10   13     -0.10     -0.43
    6   10   13      0.12      0.40
    5   10   13     -0.62      0.20
    4   10   13      1.34      0.01
    3   10   13     -0.63     -1.03
    2   10   13      0.59     -0.46
    1   10   13     -0.76     -1.24
    0   10   13     -0.38      0.36
   10   10   13     -0.03     -0.31
    9   11   13     -0.62     -0.06
    8   11   13      0.08      0.28
    7   11   13     -0.72      0.69
    6   11   13      0.24      0.71
    5   11   13     -0.75     -0.53
    4   11   13      0.99      0.48
    3   11   13     -0.57      0.78
    2   11   13     -0.14      0.72
    1   11   13      1.25     -0.32
    0   11   13      0.01      0.03
    8   12   13      0.87     -0.30
    7   12   13     -0.16      0.22
    6   12   13      0.00      0.68
    5   12   13      0.33     -0.05
    4   12   13      0.15     -0.20
    3   12   13      0.61     -1.47
    2   12   13     -0.82     -0.64
    1   12   13      0.29     -0.93
    0   12   13     -0.74      0.72
    6   13   13      0.24     -0.32
    5   13   13      0.63     -1.56
    4   13   13     -0.12      0.76
    3   13   13      0.01     -0.07
    2   13   13     -0.27      0.45
    1   13   13      0.54      0.07
    0   13   13     -0.12     -0.14
    4   14   13     -0.53      0.14
    3   14   13      0.40     -0.42
    2   14   13     -1.15     -0.22
    1   14   13      0.30      0.22
    0   14   13     -0.63      0.61
    0    1   14      0.52     -0.04
    1    1   14      0.59      0.01
    1    2   14     -0.65     -0.41
    0    2   14     -0.01     -1.11
    2    2   14     -0.54     -0.01
    2    3   14      0.13     -0.57
    1    3   14      0.67      1.03
    0    3   14      0.47     -0.04
    3    3   14      0.00      0.09
    3    4   14      0.00      1.49
    2    4   14     -0.70     -0.33
    1    4   14     -0.06      0.44
    0    4   14      0.01     -0.30
    4    4   14     -0.14     -0.08
    4    5   14     -0.29     -0.90
    3    5   14      0.26     -0.14
    2    5   14      0.13     -0.84
    1    5   14      0.68     -0.27
    0    5   14     -0.37      0.02
    5    5   14     -0.46     -0.02
    5    6   14      0.00      0.25
    4    6   14      0.12      0.17
    3    6   14      0.28      0.39
    2    6   14     -0.54      0.52
    1    6   14      0.40      0.32
    0    6   14      0.01      0.83
    6    6   14     -0.04      0.03
    6    7   14     -0.13     -0.35
    5    7   14     -0.10     -0.11
    4    7   14     -0.22      0.44
    3    7   14      0.26     -0.54
    2    7   14     -0.01      0.61
    1    7   14     -0.06     -0.26
    0    7   14     -0.35      0.02
    7    7   14      0.12      0.02
    6    8   14     -0.41      0.69
    5    8   14      0.26      0.36
    4    8   14      0.15      0.86
    3    8   14      0.27      0.00
    2    8   14      0.29      0.16
    1    8   14      0.41     -0.10
    0    8   14      0.00     -0.86
    4    9   14     -0.28     -0.81
    3    9   14      0.14     -0.66
    2    9   14     -0.51     -0.24
    1    9   14     -0.48     -0.30
    0    9   14     -0.11     -0.02
    0   10   14      0.00      0.35
    1    1    0   -145.52      0.04
    1    3    0    -60.97      0.02
    0    4    0    -36.81      0.02
    0    8    0    -41.95     -0.01
   21   22    0     -0.86      0.03
   22   22    0      0.46     -0.01
   20   23    0      0.38      0.00
   21   23    0      1.01     -0.02
   22   23    0     -0.28      0.00
   23   23    0     -0.04      0.02
   19   24    0      0.41      0.01
   20   24    0     -0.03      0.00
   21   24    0     -0.95      0.00
   22   24    0      0.47      0.00
   23   24    0      0.35     -0.02
   24   24    0      0.10      0.00
   17   25    0     -0.18      0.00
   18   25    0     -0.37      0.01
   19   25    0      0.30      0.00
   20   25    0     -0.75     -0.01
   21   25    0      0.29      0.00
   22   25    0     -0.50     -0.01
   23   25    0     -0.40      0.01
   24   25    0      0.14      0.00
   25   25    0      0.07      0.00
   16   26    0      0.24      0.00
   17   26    0      0.09      0.00
   18   26    0      0.55     -0.01
   19   26    0      0.17     -0.01
   20   26    0      0.64      0.01
   21   26    0     -0.11      0.00
   22   26    0     -0.27      0.01
   23   26    0      0.54     -0.01
   24   26    0     -0.21      0.01
   14   27    0     -0.14      0.01
   15   27    0      0.14      0.00
   16   27    0     -0.37     -0.01
   17   27    0     -0.43      0.01
   18   27    0     -0.17      0.01
   19   27    0     -0.04      0.01
   20   27    0      0.18     -0.01
   21   27    0      0.09      0.01
   22   27    0      0.17     -0.01
   12   28    0      0.29     -0.01
   13   28    0     -0.10     -0.01
   14   28    0     -0.38      0.00
   15   28    0      0.22     -0.01
   16   28    0     -0.04      0.01
   17   28    0     -0.36     -0.01
   18   28    0      0.22      0.00
   19   28    0     -0.50     -0.01
   20   28    0      0.10      0.01
   21   28    0      0.12      0.00
    9   29    0     -0.45     -0.01
   10   29    0      0.21     -0.01
   11   29    0      0.09     -0.01
   12   29    0      0.39      0.01
   13   29    0     -0.20      0.01
   14   29    0     -0.11      0.00
   15   29    0      0.76      0.00
   16   29    0      0.00     -0.01
   17   29    0      0.15      0.00
   18   29    0      0.10      0.00
   19   29    0     -0.11      0.00
   20   29    0      0.21     -0.01
    0   30    0      0.05      0.00
    1   30    0     -1.25      0.00
    2   30    0     -0.23      0.00
    3   30    0     -0.81      0.02
    4   30    0      1.00      0.01
    5   30    0      0.26      0.01
    6   30    0      1.72      0.00
    7   30    0      0.07     -0.01
    8   30    0     -0.23      0.00
    9   30    0     -0.23      0.00
   10   30    0     -0.16      0.01
   11   30    0      0.05      0.00
   12   30    0      0.22      0.00
   13   30    0      0.37     -0.01
   14   30    0     -0.24      0.00
   15   30    0      0.11      0.00
   16   30    0     -0.19      0.02
   17   30    0     -0.17      0.00
   18   30    0     -0.25      0.00
   21   22    1      0.48      0.63
   22   22    1      0.03     -0.02
   20   23    1      0.50      0.59
   21   23    1     -0.46     -0.95
   22   23    1     -0.50     -0.19
   23   23    1      0.00     -0.06
   19   24    1     -0.16      0.38
   20   24    1     -0.11      0.52
   21   24    1      0.00     -0.06
   22   24    1      0.11      0.79
   23   24    1     -0.31     -0.58
   24   24    1      0.01      0.31
   17   25    1      0.23      0.08
   18   25    1     -0.38      0.42
   19   25    1      0.17     -0.34
   20   25    1      0.47      0.30
   21   25    1      0.24      0.01
   22   25    1     -0.18     -0.09
   23   25    1      0.15      0.26
   24   25    1      0.24     -0.06
   25   25    1      0.00      0.10
   16   26    1     -0.15      0.10
   17   26    1      0.39     -0.09
   18   26    1     -0.63     -0.57
   19   26    1      0.24     -0.43
   20   26    1     -0.43      0.19
   21   26    1      0.08     -0.52
   22   26    1     -0.15      0.43
   23   26    1      0.06     -0.35
   14   27    1     -0.41     -0.28
   15   27    1      0.04     -0.13
   16   27    1     -0.10      0.23
   17   27    1      0.01     -0.03
   18   27    1     -0.16      0.34
   19   27    1      0.12      0.21
   20   27    1      0.05     -0.21
   21   27    1      0.47      0.14
   22   27    1     -0.28     -0.10
   11   28    1      0.24     -0.60
   12   28    1      0.48     -0.36
   13   28    1      0.13      0.20
   14   28    1     -0.16     -0.35
   15   28    1      0.22      0.40
   16   28    1      0.11      0.18
   17   28    1      0.15      0.04
   18   28    1     -0.10     -0.04
   19   28    1     -0.37     -0.13
   20   28    1     -0.13      0.24
   21   28    1     -0.02     -0.01
    8   29    1      0.10     -0.17
    9   29    1     -0.18      0.39
   10   29    1     -0.37      0.43
   11   29    1     -0.15      0.06
   12   29    1     -0.04      0.12
   13   29    1      0.22     -0.14
   14   29    1      0.13     -0.31
   15   29    1      0.02     -0.33
   16   29    1      0.22      0.07
   17   29    1      0.03      0.04
   18   29    1      0.28     -0.12
   19   29    1     -0.16      0.28
   20   29    1      0.19     -0.35
    1   30    1      0.55      0.64
    2   30    1      0.79     -0.57
    3   30    1     -0.36      0.34
    4   30    1     -0.33     -0.17
    5   30    1     -0.17      0.25
    6   30    1      0.11      0.09
    7   30    1      0.07     -0.28
    8   30    1     -0.37     -0.19
    9   30    1     -0.06     -0.61
   10   30    1     -0.59      0.11
   11   30    1      0.14      0.05
   12   30    1      0.08      0.05
   13   30    1      0.04      0.28
   14   30    1     -0.57     -0.12
   15   30    1     -0.15     -0.15
   16   30    1      0.03      0.12
   17   30    1      0.03     -0.18
   18   30    1      0.32      0.06
    0    2    2      0.00     -9.18
   21   22    2      0.23      0.59
   22   22    2     -0.29     -0.01
   20   23    2     -0.57     -0.73
   21   23    2      0.56      0.76
   22   23    2     -0.50      0.12
   23   23    2      0.18     -0.01
   18   24    2      0.05      0.55
   19   24    2     -0.12      0.02
   20   24    2      0.57      0.00
   21   24    2     -0.05      0.18
   22   24    2      0.52     -0.28
   23   24    2     -0.24      0.06
   24   24    2      0.19      0.02
   17   25    2     -0.63      0.83
   18   25    2      0.00     -0.58
   19   25    2     -0.12     -0.32
   20   25    2     -0.38     -0.03
   21   25    2     -0.26      0.01
   22   25    2      0.31      0.11
   23   25    2     -0.36      0.05
   24   25    2      0.57     -0.22
   15   26    2      0.08     -0.33
   16   26    2     -0.05      0.11
   17   26    2      0.11     -0.32
   18   26    2      0.24      0.06
   19   26    2     -0.40     -0.09
   20   26    2      0.30     -0.21
   21   26    2     -0.27      0.04
   22   26    2      0.06     -0.07
   23   26    2     -0.46      0.09
   13   27    2      0.38     -0.44
   14   27    2      0.53     -0.29
   15   27    2      0.34     -0.05
   16   27    2     -0.07      0.20
   17   27    2      0.36      0.51
   18   27    2     -0.16      0.60
   19   27    2      0.40     -0.28
   20   27    2     -0.07      0.19
   21   27    2     -0.09      0.03
   22   27    2      0.43     -0.10
   11   28    2     -0.16     -0.10
   12   28    2     -0.80      0.01
   13   28    2     -0.34      0.14
   14   28    2     -0.34      0.05
   15   28    2     -0.14     -0.48
   16   28    2      0.07     -0.15
   17   28    2     -0.02     -0.21
   18   28    2      0.17     -0.03
   19   28    2      0.09      0.03
   20   28    2     -0.14      0.12
   21   28    2      0.40      0.00
    8   29    2     -0.08     -0.05
    9   29    2      0.18     -0.11
   10   29    2      0.29     -0.22
   11   29    2     -0.56      0.01
   12   29    2      0.60      0.12
   13   29    2      0.23      0.44
   14   29    2      0.06     -0.26
   15   29    2     -0.21      0.00
   16   29    2     -0.27     -0.16
   17   29    2     -0.17     -0.10
   18   29    2     -0.08      0.03
   19   29    2     -0.07     -0.13
    0   30    2      0.02     -1.36
    1   30    2      0.61     -0.19
    2   30    2      0.49     -0.13
    3   30    2     -0.06     -0.03
    4   30    2      0.11     -0.28
    5   30    2     -0.30      0.04
    6   30    2     -0.50     -0.61
    7   30    2     -0.11     -0.05
    8   30    2     -0.03      0.18
    9   30    2      0.43      0.15
   10   30    2     -0.08      0.11
   11   30    2      0.09      0.02
   12   30    2     -0.13     -0.05
   13   30    2     -0.23      0.38
   14   30    2      0.30      0.11
   15   30    2     -0.19      0.29
   16   30    2      0.34     -0.01
   17   30    2     -0.17      0.27
   18   30    2      0.13     -0.08
   21   21    3     -0.02     -0.13
   20   22    3      0.26     -0.29
   21   22    3     -0.45      0.05
   22   22    3      0.02      0.93
   19   23    3     -0.01     -0.17
   20   23    3     -0.05      0.20
   21   23    3      0.21     -0.38
   22   23    3      0.09      0.01
   23   23    3      0.02     -0.33
   18   24    3      0.29      0.45
   19   24    3      0.31      0.05
   20   24    3     -0.29     -0.21
   21   24    3     -0.08     -0.29
   22   24    3     -0.53      0.57
   23   24    3     -0.36     -0.33
   24   24    3      0.01      0.06
   16   25    3     -0.62     -0.73
   17   25    3     -0.13     -0.46
   18   25    3      0.01     -0.08
   19   25    3     -0.32     -0.25
   20   25    3      0.17      0.08
   21   25    3      0.17     -0.02
   22   25    3      0.28      0.07
   23   25    3      0.00      0.15
   24   25    3     -0.25     -0.10
   14   26    3      0.78     -0.47
   15   26    3     -0.03      0.60
   16   26    3      0.65     -0.55
   17   26    3      0.20      0.86
   18   26    3      0.06      0.18
   19   26    3      0.24      0.22
   20   26    3      0.30      0.07
   21   26    3     -0.31     -0.32
   22   26    3      0.10      0.39
   23   26    3     -0.16     -0.01
   12   27    3     -0.20     -0.27
   13   27    3      0.00     -0.14
   14   27    3     -0.36      0.02
   15   27    3      0.02     -0.18
   16   27    3     -0.20     -0.38
   17   27    3     -0.43     -0.08
   18   27    3      0.15     -0.39
   19   27    3     -0.17      0.15
   20   27    3      0.17     -0.28
   21   27    3     -0.07     -0.05
   22   27    3      0.43     -0.25
   10   28    3      0.08      0.24
   11   28    3      0.01     -0.79
   12   28    3     -0.45      0.24
   13   28    3     -0.46      0.52
   14   28    3      0.06      0.16
   15   28    3      0.19      0.32
   16   28    3     -0.25     -0.09
   17   28    3      0.12      0.14
   18   28    3     -0.23      0.18
   19   28    3     -0.22      0.07
   20   28    3      0.10      0.19
    6   29    3      0.63     -0.41
    7   29    3     -0.56     -0.35
    8   29    3     -0.24     -0.43
    9   29    3     -0.02      0.28
   10   29    3      0.19      0.06
   11   29    3      0.40      0.03
   12   29    3      0.41      0.03
   13   29    3      0.22     -0.54
   14   29    3     -0.02      0.23
   15   29    3      0.22     -0.22
   16   29    3      0.12     -0.18
   17   29    3      0.03      0.14
   18   29    3      0.00     -0.13
   19   29    3      0.04      0.00
    0   30    3     -0.78     -0.76
    1   30    3     -0.64      0.70
    2   30    3     -0.37     -0.11
    3   30    3     -0.72     -0.07
    4   30    3      0.07      0.52
    5   30    3     -0.50     -0.11
    6   30    3     -0.45     -0.02
    7   30    3     -0.17     -0.22
    8   30    3      0.03      0.35
    9   30    3      0.20     -0.11
   10   30    3      0.34      0.08
   11   30    3     -0.17      0.09
   12   30    3     -0.15     -0.24
   13   30    3     -0.38      0.31
   14   30    3     -0.16      0.10
   15   30    3      0.13      0.13
   16   30    3     -0.10     -0.14
   17   30    3      0.02     -0.04
    0    3    4     -0.03      1.24
   20   21    4      0.30     -0.71
   21   21    4      0.12     -0.01
   19   22    4     -1.03      0.14
   20   22    4      0.48     -0.18
   21   22    4     -0.67      0.48
   22   22    4      0.29     -0.02
   18   23    4      0.05      0.36
   19   23    4      0.19      0.82
   20   23    4      0.39     -0.38
   21   23    4      0.11      0.21
   22   23    4     -0.11      0.02
   23   23    4     -0.54      0.01
   17   24    4     -0.13     -0.36
   18   24    4     -0.28     -0.57
   19   24    4     -0.22     -0.23
   20   24    4      0.16     -0.50
   21   24    4     -0.18      0.04
   22   24    4      0.14     -0.01
   23   24    4     -0.01      0.38
   24   24    4      0.17      0.01
   15   25    4     -0.04     -0.28
   16   25    4      0.45      0.19
   17   25    4      0.28      0.18
   18   25    4     -0.05      0.26
   19   25    4     -0.01      0.45
   20   25    4      0.13      0.08
   21   25    4      0.40     -0.15
   22   25    4      0.29     -0.17
   23   25    4     -0.31      0.06
   13   26    4     -0.17     -0.39
   14   26    4     -0.28     -0.33
   15   26    4     -0.02      0.08
   16   26    4      0.15      0.30
   17   26    4     -0.11     -0.34
   18   26    4      0.16      0.12
   19   26    4     -0.26     -0.12
   20   26    4      0.04      0.04
   21   26    4     -0.25     -0.07
   22   26    4     -0.14      0.08
   11   27    4      0.52     -0.22
   12   27    4      0.34      0.32
   13   27    4     -0.87     -0.33
   14   27    4     -0.02     -0.03
   15   27    4     -0.39      0.26
   16   27    4     -0.13     -0.39
   17   27    4     -0.11      0.01
   18   27    4     -0.05      0.10
   19   27    4     -0.22      0.11
   20   27    4      0.07      0.06
   21   27    4     -0.02     -0.16
    8   28    4      0.32     -0.95
    9   28    4     -0.36     -0.35
   10   28    4     -0.17     -0.19
   11   28    4      0.60      0.05
   12   28    4     -0.09      0.30
   13   28    4      0.69      0.17
   14   28    4      0.23     -0.04
   15   28    4     -0.09      0.09
   16   28    4      0.54     -0.05
   17   28    4     -0.14     -0.05
   18   28    4      0.12     -0.26
   19   28    4     -0.03      0.16
   20   28    4      0.02      0.04
    0   29    4      0.01      0.13
    1   29    4     -1.16      0.03
    2   29    4     -0.62      0.60
    3   29    4     -0.19      0.33
    4   29    4     -0.10     -0.04
    5   29    4     -0.11      0.88
    6   29    4     -0.43     -0.60
    7   29    4     -0.39      0.27
    8   29    4     -0.59     -0.21
    9   29    4     -0.28     -0.16
   10   29    4      0.23      0.22
   11   29    4     -0.03     -0.50
   12   29    4      0.22      0.07
   13   29    4     -0.20     -0.09
   14   29    4     -0.27     -0.17
   15   29    4      0.00      0.25
   16   29    4      0.02      0.05
   17   29    4      0.00      0.07
   18   29    4      0.09     -0.10
    0   30    4      0.15      0.00
    1   30    4     -0.40      0.09
    2   30    4      0.38      0.62
    3   30    4     -0.46     -0.42
    4   30    4      0.31      0.08
    5   30    4     -0.45      0.15
    6   30    4      0.25     -0.12
    7   30    4      0.43      0.90
    8   30    4      0.53      0.01
    9   30    4     -0.15      0.24
   10   30    4     -0.22      0.10
   11   30    4     -0.25     -0.09
   12   30    4     -0.33      0.11
   13   30    4      0.07     -0.07
   14   30    4      0.17      0.10
   15   30    4     -0.21     -0.11
   16   30    4      0.15      0.01
   20   20    5     -0.02      0.66
   20   21    5      0.17      0.57
   21   21    5     -0.01     -0.86
   18   22    5      0.15      0.32
   19   22    5     -0.67      0.27
   20   22    5      0.01      0.60
   21   22    5     -0.03     -0.19
   22   22    5      0.02      0.41
   17   23    5      0.19     -0.03
   18   23    5      0.38     -0.08
   19   23    5     -0.17     -0.60
   20   23    5      0.49      0.06
   21   23    5      0.02      0.06
   22   23    5      0.15     -0.33
   23   23    5      0.01     -0.03
   16   24    5     -0.18     -0.56
   17   24    5      0.10      0.47
   18   24    5      0.00     -0.04
   19   24    5     -0.18     -0.05
   20   24    5     -0.12      0.04
   21   24    5     -0.08     -0.10
   22   24    5      0.27      0.37
   23   24    5     -0.02     -0.13
   14   25    5      0.02     -0.24
   15   25    5      0.09      0.24
   16   25    5     -0.22     -0.44
   17   25    5      0.46      0.31
   18   25    5     -0.24      0.05
   19   25    5      0.02      0.21
   20   25    5      0.04     -0.11
   21   25    5      0.20      0.26
   22   25    5     -0.03     -0.31
   12   26    5     -0.08      0.39
   13   26    5      0.12     -0.69
   14   26    5     -0.34     -0.14
   15   26    5     -0.38      0.24
   16   26    5     -0.23     -0.10
   17   26    5      0.14     -0.10
   18   26    5     -0.03     -0.08
   19   26    5     -0.10     -0.03
   20   26    5     -0.31     -0.02
   21   26    5     -0.14     -0.06
    9   27    5     -0.55     -0.46
   10   27    5     -0.23     -0.35
   11   27    5     -0.21      0.34
   12   27    5      0.45     -0.03
   13   27    5      0.15      0.05
   14   27    5      0.32      0.39
   15   27    5      0.20     -0.13
   16   27    5     -0.18      0.13
   17   27    5      0.06     -0.07
   18   27    5      0.02      0.14
   19   27    5     -0.06      0.01
   20   27    5      0.13      0.03
    0   28    5      0.06     -0.06
    1   28    5      0.13      0.32
    5   28    5      0.13     -0.09
    6   28    5      0.76     -0.08
    7   28    5      0.06     -0.26
    8   28    5     -0.66      0.15
    9   28    5     -0.10     -0.39
   10   28    5     -0.46      0.30
   11   28    5      0.05     -0.44
   12   28    5      0.35      0.01
   13   28    5     -0.31     -0.01
   14   28    5      0.29     -0.45
   15   28    5     -0.09      0.03
   16   28    5      0.21     -0.14
   17   28    5      0.05     -0.13
   18   28    5      0.28     -0.09
   19   28    5      0.00      0.02
    0   29    5     -0.37     -0.36
    1   29    5      0.01      0.42
    2   29    5     -0.85      0.43
    3   29    5      0.12      0.34
    4   29    5      0.03      0.22
    5   29    5     -0.73      0.01
    6   29    5      0.36     -0.13
    7   29    5     -0.34     -0.14
    8   29    5      0.51      0.55
    9   29    5      0.34      0.10
   10   29    5     -0.06      0.04
   11   29    5     -0.08      0.21
   12   29    5     -0.18      0.22
   13   29    5     -0.13     -0.02
   14   29    5     -0.07      0.23
   15   29    5     -0.14      0.35
   16   29    5      0.05     -0.09
   17   29    5     -0.20      0.20
    0   30    5      0.15     -0.15
    1   30    5      0.17     -0.39
    2   30    5      0.08     -0.68
    3   30    5     -0.16     -0.39
    4   30    5      0.00     -0.12
    5   30    5      0.21      0.23
    6   30    5      0.14      0.02
    7   30    5      0.25     -0.03
    8   30    5     -0.13      0.40
    9   30    5     -0.32     -0.48
   10   30    5     -0.11      0.27
   11   30    5     -0.13     -0.49
   12   30    5      0.26     -0.12
   13   30    5      0.11      0.09
   14   30    5     -0.05     -0.25
   15   30    5     -0.13      0.10
   19   20    6      0.62     -0.39
   20   20    6     -0.89      0.01
   18   21    6      0.21     -0.13
   19   21    6      0.42      0.34
   20   21    6     -0.60      0.04
   21   21    6     -0.07     -0.02
   17   22    6      0.58     -0.32
   18   22    6     -0.11      0.14
   19   22    6      0.31     -0.33
   20   22    6      0.85      0.27
   21   22    6     -0.38      0.22
   22   22    6      0.42     -0.02
   16   23    6      0.16      0.59
   17   23    6     -0.05     -0.08
   18   23    6     -0.34     -0.03
   19   23    6     -0.12     -0.39
   20   23    6     -0.14     -0.11
   21   23    6      0.21     -0.48
   22   23    6      0.00     -0.22
   23   23    6      0.47      0.00
   14   24    6      0.27      0.69
   15   24    6     -0.43      0.14
   16   24    6      0.25      0.19
   17   24    6      0.00      0.11
   18   24    6      0.37      0.46
   19   24    6     -0.58      0.12
   20   24    6      0.32      0.32
   21   24    6     -0.48      0.36
   22   24    6     -0.14      0.06
   23   24    6      0.16     -0.09
   12   25    6      0.18     -0.56
   13   25    6      0.19      0.20
   14   25    6      0.02     -0.65
   15   25    6     -0.24     -0.50
   16   25    6     -0.38     -0.30
   17   25    6     -0.02     -0.15
   18   25    6      0.09      0.07
   19   25    6     -0.14     -0.20
   20   25    6      0.14      0.08
   21   25    6     -0.10     -0.04
   10   26    6      0.32      0.03
   11   26    6     -0.24     -0.53
   12   26    6     -0.18      0.20
   13   26    6      0.48     -0.04
   14   26    6      0.04      0.08
   15   26    6      0.31      0.68
   16   26    6      0.02     -0.06
   17   26    6      0.32     -0.11
   18   26    6      0.07     -0.06
   19   26    6     -0.24     -0.15
   20   26    6      0.07     -0.17
    6   27    6      0.73     -0.07
    7   27    6     -0.23      0.14
    8   27    6     -0.01     -0.05
    9   27    6     -0.30      0.36
   10   27    6     -0.58      0.40
   11   27    6      0.04     -0.16
   12   27    6      0.00      0.32
   13   27    6      0.04     -0.21
   14   27    6      0.00      0.28
   15   27    6     -0.05     -0.44
   16   27    6     -0.24      0.20
   17   27    6      0.07     -0.17
   18   27    6      0.26      0.20
   19   27    6      0.10      0.01
    0   28    6      0.00     -0.56
    1   28    6     -0.03      0.57
    2   28    6     -0.40      0.22
    3   28    6      0.31      0.57
    4   28    6      0.15      0.73
    5   28    6      0.02     -0.68
    6   28    6     -0.08      0.37
    7   28    6     -0.19     -0.64
    8   28    6      0.29     -0.20
    9   28    6     -0.32      0.07
   10   28    6      0.37     -0.18
   11   28    6      0.08     -0.07
   12   28    6     -0.32     -0.16
   13   28    6      0.02     -0.10
   14   28    6      0.03     -0.11
   15   28    6     -0.10     -0.11
   16   28    6     -0.08      0.44
   17   28    6     -0.01     -0.32
    0   29    6     -0.14     -0.01
    1   29    6     -0.32     -0.10
    2   29    6      0.10     -0.25
    3   29    6     -0.15     -0.26
    4   29    6      0.05     -0.18
    5   29    6     -0.23      0.33
    6   29    6      0.17     -0.17
    7   29    6      0.37      0.08
    8   29    6     -0.07      0.24
    9   29    6      0.10      0.12
   10   29    6     -0.18      0.47
   11   29    6     -0.26      0.22
   12   29    6      0.32     -0.07
   13   29    6     -0.15      0.13
   14   29    6      0.28      0.13
   15   29    6     -0.11     -0.09
   16   29    6     -0.09      0.03
    0   30    6      0.00     -0.11
    1   30    6      0.07     -0.46
    2   30    6     -0.20      0.08
    3   30    6     -0.11     -0.31
    4   30    6      0.44      0.17
    5   30    6     -0.06      0.03
    6   30    6      0.31     -0.09
    7   30    6      0.06     -0.08
    8   30    6      0.24     -0.31
    9   30    6     -0.15     -0.11
   10   30    6     -0.06     -0.15
   11   30    6      0.07      0.14
   12   30    6     -0.09     -0.01
   13   30    6     -0.13      0.08
   14   30    6      0.10     -0.08
   19   19    7      0.00     -0.33
   18   20    7      0.46      0.07
   19   20    7      0.14      0.44
   20   20    7     -0.01      0.27
   17   21    7      0.31      0.39
   18   21    7     -0.43     -0.17
   19   21    7      0.36     -1.12
   20   21    7     -0.01      0.47
   21   21    7     -0.01     -0.21
   15   22    7     -0.40     -0.03
   16   22    7     -0.17     -0.56
   17   22    7     -0.15      0.95
   18   22    7      0.04     -0.07
   19   22    7      0.09      0.37
   20   22    7     -0.61     -0.34
   21   22    7     -0.28      0.00
   22   22    7      0.00     -0.57
   14   23    7     -0.27      0.46
   15   23    7      0.51      0.31
   16   23    7     -0.02      0.21
   17   23    7      0.19     -0.29
   18   23    7      0.00      0.33
   19   23    7      0.18     -0.29
   20   23    7      0.19      0.32
   21   23    7     -0.17      0.43
   22   23    7     -0.16     -0.17
   12   24    7      0.35     -0.13
   13   24    7      0.15     -0.19
   14   24    7     -0.43     -0.04
   15   24    7     -0.24     -0.31
   16   24    7     -0.33     -0.29
   17   24    7     -0.03     -0.14
   18   24    7     -0.13      0.16
   19   24    7      0.37     -0.08
   20   24    7     -0.13      0.08
   21   24    7      0.03     -0.09
   10   25    7     -0.70      0.06
   11   25    7      0.63      0.09
   12   25    7     -0.01     -0.45
   13   25    7      0.24      0.03
   14   25    7      0.53     -0.29
   15   25    7     -0.17      0.16
   16   25    7      0.19      0.17
   17   25    7     -0.05      0.06
   18   25    7      0.06      0.08
   19   25    7     -0.22     -0.18
   20   25    7     -0.03     -0.24
    0   26    7     -0.25     -0.24
    1   26    7     -0.61      0.12
    2   26    7     -0.64     -0.08
    6   26    7      0.75     -0.14
    7   26    7      0.10     -0.21
    8   26    7     -0.16     -0.13
    9   26    7      0.31      0.56
   10   26    7     -0.68      0.31
   11   26    7     -0.27      0.59
   12   26    7     -0.35     -0.10
   13   26    7      0.48      0.32
   14   26    7     -0.18     -0.04
   15   26    7      0.32      0.21
   16   26    7     -0.06     -0.40
   17   26    7     -0.02     -0.09
   18   26    7      0.19     -0.15
   19   26    7      0.18      0.15
    0   27    7      0.68     -0.69
    1   27    7      0.12     -0.07
    2   27    7      0.01     -0.13
    3   27    7     -0.06      0.10
    4   27    7     -0.34      0.99
    5   27    7      0.35      0.04
    6   27    7     -0.11      0.29
    7   27    7      0.02     -0.43
    8   27    7      0.16      0.01
    9   27    7      0.20     -0.55
   10   27    7     -0.42     -0.09
   11   27    7      0.07      0.12
   12   27    7     -0.09     -0.08
   13   27    7     -0.21      0.05
   14   27    7     -0.26     -0.20
   15   27    7      0.05      0.18
   16   27    7     -0.39     -0.04
   17   27    7      0.20      0.19
    0   28    7     -0.03     -0.03
    1   28    7     -0.24      0.17
    2   28    7     -0.36     -0.01
    3   28    7     -0.03     -0.40
    4   28    7      0.24      0.24
    5   28    7     -0.38     -0.10
    6   28    7      0.29      0.06
    7   28    7      0.13     -0.06
    8   28    7     -0.14     -0.19
    9   28    7      0.52     -0.03
   10   28    7     -0.08      0.29
   11   28    7      0.11     -0.08
   12   28    7     -0.33      0.36
   13   28    7      0.38     -0.24
   14   28    7     -0.07      0.21
   15   28    7     -0.02      0.14
   16   28    7     -0.10      0.10
    0   29    7      0.16     -0.14
    1   29    7      0.28      0.16
    2   29    7     -0.26     -0.61
    3   29    7     -0.08     -0.30
    4   29    7     -0.14      0.02
    5   29    7      0.04     -0.28
    6   29    7      0.19      0.16
    7   29    7     -0.24     -0.25
    8   29    7      0.29     -0.02
    9   29    7      0.14     -0.05
   10   29    7      0.01     -0.39
   11   29    7      0.13     -0.01
   12   29    7      0.05     -0.04
   13   29    7      0.37     -0.11
   14   29    7      0.04     -0.05
    0   30    7      0.33      0.34
    1   30    7     -0.01      0.08
    2   30    7     -0.02      0.16
    3   30    7     -0.16      0.54
    4   30    7      0.02      0.01
    5   30    7     -0.07      0.69
    6   30    7     -0.19      0.14
    7   30    7      0.02     -0.01
    8   30    7     -0.28     -0.02
    9   30    7     -0.18     -0.22
   10   30    7     -0.02      0.19
   11   30    7     -0.20      0.05
   12   30    7     -0.38      0.12
   18   18    8      0.70      0.02
   17   19    8     -0.39     -1.06
   18   19    8      0.87      0.18
   19   19    8     -0.43      0.00
   16   20    8      0.02      0.34
   17   20    8      0.07      0.07
   18   20    8     -0.81      0.39
   19   20    8      0.37     -0.06
   20   20    8      0.08      0.00
   15   21    8     -0.52     -0.24
   16   21    8      0.14      0.21
   17   21    8     -0.10     -0.54
   18   21    8      0.49      0.05
   19   21    8     -0.24      0.38
   20   21    8     -0.01      0.32
   21   21    8     -0.53      0.00
   13   22    8     -0.81      0.66
   14   22    8      0.43     -0.91
   15   22    8     -0.43      0.68
   16   22    8     -0.45      0.03
   17   22    8      0.34      0.08
   18   22    8     -0.28     -0.09
   19   22    8     -0.05     -0.36
   20   22    8      0.36     -0.17
   21   22    8     -0.34     -0.11
   22   22    8      0.13     -0.01
   11   23    8      0.34      0.19
   12   23    8      0.25      0.25
   13   23    8      0.44      0.18
   14   23    8      0.67     -0.12
   15   23    8      0.08      0.09
   16   23    8      0.01     -0.31
   17   23    8     -0.21      0.29
   18   23    8      0.18     -0.23
   19   23    8      0.20      0.42
   20   23    8      0.09      0.09
   21   23    8      0.29      0.04
    9   24    8      0.10      0.22
   10   24    8     -0.66     -0.28
   11   24    8      0.03     -0.18
   12   24    8     -0.11     -0.10
   13   24    8      0.11     -0.58
   14   24    8     -0.23      0.19
   15   24    8      0.15     -0.51
   16   24    8     -0.25      0.19
   17   24    8      0.19     -0.21
   18   24    8      0.14      0.15
   19   24    8     -0.07     -0.12
   20   24    8      0.09      0.03
    0   25    8      0.00      1.23
    5   25    8     -0.23     -0.41
    6   25    8      0.16     -0.26
    7   25    8     -0.07     -0.56
    8   25    8     -0.24     -0.27
    9   25    8     -0.41      0.05
   10   25    8      0.17      0.68
   11   25    8     -0.51      0.38
   12   25    8     -0.38      0.13
   13   25    8      0.04      0.27
   14   25    8      0.07      0.14
   15   25    8      0.16     -0.04
   16   25    8     -0.15      0.26
   17   25    8     -0.27     -0.24
   18   25    8     -0.23      0.01
   19   25    8      0.31     -0.36
    0   26    8      0.04     -0.01
    1   26    8      0.07     -0.65
    2   26    8      0.31      0.07
    3   26    8      0.04      0.00
    4   26    8      0.20     -0.26
    5   26    8      0.02      0.75
    6   26    8     -0.07      0.01
    7   26    8      0.48     -0.08
    8   26    8      0.17     -0.34
    9   26    8      0.40     -0.11
   10   26    8      0.28     -0.11
   11   26    8     -0.23     -0.06
   12   26    8      0.33      0.30
   13   26    8      0.08      0.11
   14   26    8      0.14      0.08
   15   26    8     -0.08      0.00
   16   26    8     -0.10     -0.15
   17   26    8     -0.15     -0.03
    0   27    8      0.00      0.44
    1   27    8      0.19      0.06
    2   27    8     -0.26      0.28
    3   27    8     -0.16     -0.39
    4   27    8      0.36      0.43
    5   27    8     -0.32      0.27
    6   27    8      0.16      0.17
    7   27    8      0.18      0.36
    8   27    8     -0.22     -0.59
    9   27    8     -0.09     -0.20
   10   27    8     -0.12     -0.34
   11   27    8      0.03      0.09
   12   27    8     -0.42     -0.50
   13   27    8     -0.10      0.09
   14   27    8      0.15      0.08
   15   27    8      0.25      0.16
   16   27    8      0.20      0.24
    0   28    8      0.12      0.00
    1   28    8     -0.11      0.11
    2   28    8     -0.13      0.09
    3   28    8     -0.06     -0.52
    4   28    8     -0.38     -0.20
    5   28    8     -0.04     -0.42
    6   28    8     -0.23      0.16
    7   28    8     -0.04     -0.01
    8   28    8      0.10      0.06
    9   28    8      0.20      0.11
   10   28    8      0.21      0.08
   11   28    8     -0.09     -0.04
   12   28    8     -0.07     -0.19
   13   28    8      0.14      0.00
   14   28    8     -0.06     -0.33
    0   29    8      0.00      0.01
    1   29    8      0.17      0.18
    2   29    8      0.17      0.10
    3   29    8     -0.15     -0.15
    4   29    8      0.31      0.26
    5   29    8     -0.01      0.24
    6   29    8     -0.12      0.40
    7   29    8      0.29      0.36
    8   29    8     -0.13     -0.07
    9   29    8      0.22     -0.17
   10   29    8     -0.13      0.05
   11   29    8      0.27      0.14
   12   29    8     -0.12      0.22
    0   30    8      0.17      0.00
    1   30    8      0.05     -0.10
    2   30    8     -0.05      0.16
    3   30    8      0.09     -0.04
    4   30    8     -0.02     -0.26
    5   30    8     -0.20     -0.11
    6   30    8      0.27      0.01
    7   30    8     -0.44     -0.09
    8   30    8     -0.06      0.05
    9   30    8     -0.11      0.00
   17   17    9      0.02      0.42
   16   18    9      0.00      0.15
   17   18    9      0.56     -0.09
   18   18    9      0.01     -0.31
   15   19    9     -1.08     -0.73
   16   19    9     -0.18     -0.65
   17   19    9     -0.57      0.83
   18   19    9     -0.13     -0.49
   19   19    9      0.00      0.67
   14   20    9     -0.60      1.05
   15   20    9      0.95     -0.37
   16   20    9     -0.19      0.47
   17   20    9     -0.45     -0.20
   18   20    9      0.36      0.10
   19   20    9      0.06     -0.07
   20   20    9     -0.01     -0.14
   12   21    9      0.73     -0.46
   13   21    9      0.18     -0.65
   14   21    9      0.07      0.22
   15   21    9      0.51      0.19
   16   21    9     -0.33     -0.36
   17   21    9      0.17      0.05
   18   21    9     -0.20      0.13
   19   21    9     -0.13     -0.05
   20   21    9     -0.18      0.34
   21   21    9     -0.01     -0.31
   10   22    9      0.01     -0.50
   11   22    9     -0.12      0.48
   12   22    9     -0.21     -0.36
   13   22    9     -0.17      0.07
   14   22    9     -0.11     -0.16
   15   22    9      0.25     -0.07
   16   22    9      0.28     -0.10
   17   22    9     -0.16     -0.19
   18   22    9      0.16     -0.21
   19   22    9      0.19      0.15
   20   22    9      0.19     -0.41
    7   23    9      0.70      0.75
    8   23    9      0.08     -0.43
    9   23    9      0.20      1.08
   10   23    9     -0.31     -0.05
   11   23    9     -0.34      0.85
   12   23    9      0.13     -0.14
   13   23    9      0.34      0.29
   14   23    9     -0.12     -0.21
   15   23    9      0.09      0.56
   16   23    9     -0.33     -0.15
   17   23    9     -0.12     -0.05
   18   23    9      0.12     -0.12
   19   23    9      0.05      0.17
    0   24    9     -0.40      0.41
    1   24    9     -0.36      1.00
    2   24    9     -0.26      0.13
    3   24    9     -0.35     -0.10
    4   24    9     -0.27      0.52
    5   24    9      0.13     -0.51
    6   24    9     -0.45     -0.15
    7   24    9      0.65     -0.21
    8   24    9     -0.33     -0.63
    9   24    9      0.35     -0.55
   10   24    9     -0.37     -0.38
   11   24    9      0.09      0.16
   12   24    9     -0.37     -0.31
   13   24    9     -0.27     -0.02
   14   24    9     -0.06     -0.01
   15   24    9      0.31      0.08
   16   24    9      0.20      0.13
   17   24    9     -0.20      0.23
   18   24    9     -0.33     -0.34
    0   25    9     -0.13     -0.13
    1   25    9     -0.14     -0.31
    2   25    9      0.35      0.17
    3   25    9     -0.05     -0.20
    4   25    9      0.46      0.02
    5   25    9     -0.10      0.00
    6   25    9     -0.35      0.36
    7   25    9     -0.14      0.27
    8   25    9      0.08      0.27
    9   25    9      0.51     -0.11
   10   25    9     -0.06      0.18
   11   25    9      0.36      0.01
   12   25    9     -0.45      0.26
   13   25    9      0.56     -0.14
   14   25    9     -0.18      0.22
   15   25    9      0.09     -0.02
   16   25    9     -0.10      0.27
   17   25    9     -0.03     -0.18
    0   26    9      0.28     -0.26
    1   26    9     -0.47      0.22
    2   26    9      0.11      0.07
    3   26    9     -0.11     -0.39
    4   26    9      0.22      0.00
    5   26    9      0.18      0.00
    6   26    9      0.14      0.04
    7   26    9     -0.06      0.00
    8   26    9      0.30      0.15
    9   26    9     -0.37     -0.39
   10   26    9      0.08     -0.14
   11   26    9     -0.11      0.03
   12   26    9     -0.14     -0.07
   13   26    9      0.10     -0.54
   14   26    9     -0.31      0.07
   15   26    9      0.31     -0.39
    0   27    9      0.40      0.41
    1   27    9     -0.22     -0.10
    2   27    9      0.15      0.00
    3   27    9     -0.43      0.48
    4   27    9      0.11     -0.47
    5   27    9     -0.14      0.14
    6   27    9     -0.18     -0.12
    7   27    9     -0.12     -0.04
    8   27    9      0.08      0.31
    9   27    9      0.20     -0.15
   10   27    9      0.34      0.16
   11   27    9     -0.15      0.11
   12   27    9     -0.22      0.12
   13   27    9     -0.15      0.05
    0   28    9      0.12     -0.12
    1   28    9     -0.05      0.16
    2   28    9      0.02      0.33
    3   28    9     -0.15     -0.14
    4   28    9      0.11     -0.35
    5   28    9     -0.16      0.25
    6   28    9     -0.05     -0.21
    7   28    9     -0.31      0.37
    8   28    9      0.05     -0.06
    9   28    9     -0.07     -0.13
   10   28    9      0.09     -0.28
   11   28    9      0.25      0.06
    0   29    9     -0.10     -0.09
    1   29    9      0.24      0.06
    2   29    9     -0.08     -0.19
    3   29    9      0.13      0.27
    4   29    9      0.21      0.23
    5   29    9      0.33     -0.18
    6   29    9     -0.01      0.23
    7   29    9      0.17      0.08
    8   29    9     -0.13      0.12
    0   30    9      0.32     -0.32
    1   30    9     -0.04     -0.01
    2   30    9      0.01      0.14
    3   30    9     -0.06     -0.05
    4   30    9     -0.20     -0.35
   16   16   10      0.07     -0.01
   15   17   10      0.17      0.20
   16   17   10     -0.19     -0.09
   17   17   10      0.36     -0.01
   14   18   10      0.09      0.74
   15   18   10     -0.37      0.80
   16   18   10      0.25      0.07
   17   18   10     -0.60     -0.53
   18   18   10     -0.45      0.00
   12   19   10      1.05     -0.72
   13   19   10     -0.08      0.46
   14   19   10      0.11     -1.31
   15   19   10     -0.23      0.04
   16   19   10      0.28     -0.05
   17   19   10      0.29      0.12
   18   19   10     -0.24      0.04
   19   19   10     -0.11      0.03
   10   20   10      0.22      1.01
   11   20   10     -1.01     -0.32
   12   20   10      0.00      0.56
   13   20   10      0.10     -0.55
   14   20   10      0.80      0.03
   15   20   10     -0.32      0.34
   16   20   10      0.78     -0.06
   17   20   10      0.02      0.12
   18   20   10     -0.09     -0.48
   19   20   10      0.27      0.27
   20   20   10     -0.35      0.01
    8   21   10      0.58      0.35
    9   21   10     -0.57     -0.34
   10   21   10      0.38      0.09
   11   21   10     -0.07     -0.18
   12   21   10     -0.13      0.16
   13   21   10     -0.01      0.11
   14   21   10     -0.46      0.53
   15   21   10     -0.22     -0.50
   16   21   10     -0.04      0.19
   17   21   10     -0.02     -0.24
   18   21   10      0.17     -0.13
   19   21   10     -0.28     -0.13
   20   21   10      0.18     -0.24
    4   22   10      0.49     -0.85
    5   22   10      0.34     -0.25
    6   22   10      0.09     -0.24
    7   22   10     -0.63     -0.21
    8   22   10      0.70      0.34
    9   22   10     -0.24     -0.51
   10   22   10      0.54      0.46
   11   22   10     -0.51     -0.20
   12   22   10     -0.14     -0.04
   13   22   10      0.32     -0.11
   14   22   10      0.33     -0.28
   15   22   10      0.14      0.24
   16   22   10     -0.08      0.45
   17   22   10      0.10      0.21
   18   22   10     -0.28      0.04
    0   23   10      0.26      0.00
    1   23   10     -0.23     -0.31
    2   23   10     -0.54      0.28
    3   23   10      0.20      0.30
    4   23   10     -0.32     -0.67
    5   23   10      0.13      0.62
    6   23   10      0.04     -0.78
    7   23   10     -0.33      0.22
    8   23   10      0.03      0.25
    9   23   10     -0.31     -0.13
   10   23   10      0.25      0.33
   11   23   10     -0.44     -0.07
   12   23   10     -0.07      0.13
   13   23   10     -0.36     -0.12
   14   23   10     -0.27     -0.04
   15   23   10     -0.08     -0.10
   16   23   10      0.23     -0.11
   17   23   10     -0.09      0.03
    0   24   10     -0.01      0.62
    1   24   10      0.36     -0.19
    2   24   10     -0.53      0.23
    3   24   10      0.09      0.51
    4   24   10      0.44      0.33
    5   24   10      0.36      0.15
    6   24   10      0.16     -0.20
    7   24   10      0.04      0.14
    8   24   10     -0.08     -0.20
    9   24   10      0.35     -0.14
   10   24   10      0.42     -0.28
   11   24   10      0.04      0.18
   12   24   10     -0.09     -0.19
   13   24   10      0.00      0.22
   14   24   10      0.34     -0.16
   15   24   10     -0.09     -0.04
   16   24   10      0.00      0.10
    0   25   10     -0.06      0.00
    1   25   10      0.09     -0.52
    2   25   10     -0.64     -0.14
    3   25   10     -0.07     -0.14
    4   25   10     -0.30     -0.32
    5   25   10     -0.05     -0.16
    6   25   10      0.05      0.22
    7   25   10      0.05     -0.32
    8   25   10     -0.15      0.39
    9   25   10      0.17     -0.08
   10   25   10      0.08     -0.04
   11   25   10      0.17      0.12
   12   25   10     -0.15     -0.13
   13   25   10      0.01      0.12
   14   25   10     -0.16     -0.23
    0   26   10     -0.01      0.56
    1   26   10      0.42      0.09
    2   26   10      0.17     -0.02
    3   26   10     -0.32      0.12
    4   26   10      0.07      0.38
    5   26   10      0.26     -0.08
    6   26   10     -0.20      0.04
    7   26   10     -0.04     -0.22
    8   26   10     -0.40      0.32
    9   26   10      0.02     -0.04
   10   26   10      0.20      0.17
   11   26   10      0.28      0.11
   12   26   10     -0.20      0.11
    0   27   10      0.25      0.00
    1   27   10      0.11     -0.05
    2   27   10     -0.07     -0.08
    3   27   10     -0.23      0.24
    4   27   10     -0.11     -0.12
    5   27   10     -0.23     -0.11
    6   27   10      0.09      0.33
    7   27   10     -0.15     -0.31
    8   27   10     -0.15      0.16
    9   27   10     -0.20     -0.24
   10   27   10     -0.12     -0.24
    0   28   10     -0.01     -0.07
    1   28   10     -0.02      0.21
    2   28   10      0.49     -0.32
    3   28   10      0.09     -0.03
    4   28   10      0.08     -0.20
    5   28   10      0.53      0.28
    6   28   10      0.31     -0.22
    7   28   10      0.06     -0.02
    0   29   10     -0.31     -0.01
    1   29   10      0.14      0.07
   14   15   11      0.45      0.34
   15   15   11      0.00      0.35
   13   16   11     -0.43      0.06
   14   16   11     -0.42     -0.17
   15   16   11     -0.27     -0.12
   16   16   11     -0.01     -0.33
   11   17   11      1.18     -0.63
   12   17   11     -0.37      0.33
   13   17   11      0.71     -0.69
   14   17   11     -0.68      0.31
   15   17   11      0.64      0.09
   16   17   11     -0.64      0.74
   17   17   11      0.01      0.20
   10   18   11     -1.06      0.28
   11   18   11     -0.04     -0.70
   12   18   11      0.62      0.07
   13   18   11      0.35      0.29
   14   18   11     -0.10     -0.07
   15   18   11      0.71     -0.51
   16   18   11     -0.41     -0.43
   17   18   11      0.35     -0.31
   18   18   11      0.02      0.08
    7   19   11     -0.54      0.35
    8   19   11      0.54     -0.15
    9   19   11      0.52      0.08
   10   19   11     -0.16      0.05
   11   19   11      0.07      0.27
   12   19   11     -0.57     -0.18
   13   19   11     -0.14      0.10
   14   19   11     -0.44     -0.33
   15   19   11      0.14     -0.03
   16   19   11      0.15      0.51
   17   19   11      0.02      0.31
   18   19   11      0.20     -0.20
   19   19   11      0.00      0.05
    4   20   11      0.60     -0.08
    5   20   11     -0.76      0.05
    6   20   11      1.09     -0.24
    7   20   11     -1.09     -0.19
    8   20   11      0.38      0.35
    9   20   11     -0.29      0.41
   10   20   11      0.24     -0.12
   11   20   11     -0.33      0.04
   12   20   11      0.39     -0.54
   13   20   11      0.41      0.65
   14   20   11      0.04     -0.10
   15   20   11      0.28      0.40
   16   20   11      0.11     -0.31
   17   20   11     -0.02     -0.22
   18   20   11      0.28      0.05
    0   21   11     -0.14      0.16
    1   21   11     -0.56      0.02
    2   21   11     -0.07     -0.31
    3   21   11     -0.72      0.12
    4   21   11      0.04      0.22
    5   21   11      0.21      0.03
    6   21   11     -0.31      0.07
    7   21   11     -0.36     -0.04
    8   21   11     -0.26      0.13
    9   21   11     -0.09     -0.03
   10   21   11      0.22     -0.01
   11   21   11     -0.30      0.14
   12   21   11     -0.33     -0.19
   13   21   11     -0.53     -0.01
   14   21   11     -0.19     -0.22
   15   21   11     -0.31     -0.11
   16   21   11      0.19     -0.06
   17   21   11     -0.19      0.78
    0   22   11      0.24      0.25
    1   22   11      0.07      0.00
    2   22   11      0.72     -0.04
    3   22   11     -0.26      0.00
    4   22   11      0.59     -0.44
    5   22   11      0.14     -0.31
    6   22   11      0.52     -0.26
    7   22   11      0.40     -0.60
    8   22   11     -0.07     -0.14
    9   22   11      0.08      0.42
   10   22   11      0.30      0.28
   11   22   11      0.20      0.25
   12   22   11      0.00     -0.22
   13   22   11      0.19      0.01
   14   22   11     -0.30     -0.02
   15   22   11     -0.05     -0.11
   16   22   11     -0.20      0.07
    0   23   11      0.30     -0.29
    1   23   11     -0.44      0.22
    2   23   11      0.19      0.07
    3   23   11     -0.52      0.16
    4   23   11     -0.40      0.44
    5   23   11      0.31      0.50
    6   23   11      0.09      0.08
    7   23   11     -0.28     -0.09
    8   23   11      0.00     -0.07
    9   23   11     -0.44     -0.28
   10   23   11      0.51     -0.10
   11   23   11     -0.01      0.18
   12   23   11      0.20      0.00
   13   23   11      0.07      0.12
   14   23   11      0.10      0.08
   15   23   11      0.24     -0.03
    0   24   11     -0.02     -0.02
    1   24   11     -0.38      0.07
    2   24   11      0.31     -0.17
    3   24   11     -0.35      0.25
    4   24   11     -0.21     -0.30
    5   24   11      0.20      0.20
    6   24   11     -0.10      0.05
    7   24   11      0.38     -0.02
    8   24   11      0.08     -0.34
    9   24   11     -0.53     -0.16
   10   24   11      0.19      0.16
   11   24   11     -0.21     -0.02
   12   24   11      0.17     -0.13
   13   24   11     -0.10     -0.08
    0   25   11      0.38     -0.38
    1   25   11      0.06     -0.06
    2   25   11      0.31      0.06
    3   25   11     -0.07     -0.26
    4   25   11     -0.49     -0.28
    5   25   11     -0.15      0.51
    6   25   11      0.13     -0.14
    7   25   11      0.03      0.30
    8   25   11      0.12     -0.06
    9   25   11     -0.21      0.03
   10   25   11      0.30     -0.07
   11   25   11      0.03      0.24
    0   26   11      0.17      0.16
    1   26   11     -0.09      0.01
    2   26   11      0.34      0.04
    3   26   11      0.16      0.00
    4   26   11     -0.09      0.07
    5   26   11      0.03     -0.29
    6   26   11     -0.26      0.28
    7   26   11     -0.03      0.30
    8   26   11      0.08     -0.05
    0   27   11     -0.01      0.01
    1   27   11     -0.15     -0.21
    2   27   11      0.10      0.21
    3   27   11      0.06     -0.07
    4   27   11      0.02     -0.18
    5   27   11     -0.13     -0.22
   12   13   12     -0.70      0.39
   13   13   12      0.90      0.02
   11   14   12      0.57      0.06
   12   14   12     -0.55     -0.01
   13   14   12      0.08     -0.05
   14   14   12     -0.85     -0.01
   10   15   12     -0.36     -0.74
   11   15   12     -0.41      0.21
   12   15   12      0.55      0.29
   13   15   12     -0.31      0.21
   14   15   12      0.46     -0.22
   15   15   12     -0.58      0.00
    8   16   12     -0.41      0.22
    9   16   12      0.12     -0.17
   10   16   12      0.39     -0.48
   11   16   12      0.08     -0.08
   12   16   12      0.49     -0.12
   13   16   12     -0.55      0.28
   14   16   12      0.28     -0.54
   15   16   12     -0.44      0.32
   16   16   12      0.24     -0.01
    6   17   12     -0.60      0.56
    7   17   12      0.59     -0.49
    8   17   12     -1.06      0.34
    9   17   12      0.52      0.00
   10   17   12     -0.26      0.30
   11   17   12     -0.25     -0.82
   12   17   12      0.62     -0.11
   13   17   12     -0.06      0.03
   14   17   12      0.75     -0.13
   15   17   12      0.09      0.20
   16   17   12     -0.02     -0.22
   17   17   12      0.00     -0.01
    0   18   12      1.13      0.01
    1   18   12      0.27      0.28
    2   18   12      0.26      0.30
    3   18   12     -0.23     -0.48
    4   18   12     -0.28      0.37
    5   18   12     -0.29     -0.44
    6   18   12     -0.55      0.13
    7   18   12      0.72      0.51
    8   18   12     -0.45      0.59
    9   18   12      0.04      0.23
   10   18   12     -0.08      0.52
   11   18   12     -0.25      0.12
   12   18   12      0.20      0.23
   13   18   12     -0.37      0.28
   14   18   12     -0.30     -0.11
   15   18   12      0.20     -0.42
   16   18   12     -0.05      0.02
   17   18   12      0.14      0.11
   18   18   12      0.22      0.01
    0   19   12      0.01     -0.61
    1   19   12     -0.20      0.28
    2   19   12      0.27     -0.36
    3   19   12      0.00      0.42
    4   19   12      0.63     -0.17
    5   19   12      0.09     -0.41
    6   19   12     -0.20     -0.33
    7   19   12      0.56     -0.80
    8   19   12     -0.40     -0.45
    9   19   12     -0.02     -0.31
   10   19   12      0.17      0.47
   11   19   12     -0.48     -0.25
   12   19   12      0.28     -0.39
   13   19   12     -0.51     -0.11
   14   19   12     -0.07      0.18
   15   19   12      0.24      0.12
   16   19   12     -0.33      0.32
   17   19   12      0.27     -0.11
    0   20   12     -0.27      0.00
    1   20   12      0.18      0.17
    2   20   12     -0.17      0.21
    3   20   12     -0.28      0.38
    4   20   12      0.41     -0.31
    5   20   12     -0.19      0.84
    6   20   12      0.15     -0.28
    7   20   12      0.14      0.45
    8   20   12     -0.09      0.37
    9   20   12     -0.12     -0.16
   10   20   12      0.06      0.09
   11   20   12     -0.06      0.26
   12   20   12      0.45     -0.03
   13   20   12     -0.01      0.18
   14   20   12     -0.18      0.12
   15   20   12     -0.32     -0.51
   16   20   12      0.10      0.06
    0   21   12     -0.01     -0.53
    1   21   12      0.34      0.00
    2   21   12     -0.38     -0.25
    3   21   12     -0.06      0.20
    4   21   12      0.01     -0.07
    5   21   12     -0.17      0.14
    6   21   12      0.09     -0.27
    7   21   12      0.01     -0.09
    8   21   12      0.43     -0.44
    9   21   12     -0.07     -0.28
   10   21   12      0.03      0.28
   11   21   12      0.00      0.31
   12   21   12      0.23     -0.28
   13   21   12     -0.07      0.01
   14   21   12     -0.11     -0.27
    0   22   12      0.07      0.01
    1   22   12      0.41     -0.01
    2   22   12     -0.21     -0.53
    3   22   12      0.10      0.48
    4   22   12     -0.26     -0.60
    5   22   12      0.10      0.22
    6   22   12      0.03      0.14
    7   22   12      0.09     -0.22
    8   22   12      0.05      0.29
    9   22   12     -0.12     -0.15
   10   22   12     -0.12     -0.19
   11   22   12      0.09      0.11
   12   22   12      0.11      0.25
   13   22   12      0.35     -0.02
    0   23   12     -0.01      0.24
    1   23   12      0.02      0.06
    2   23   12     -0.02     -0.05
    3   23   12     -0.05      0.37
    4   23   12     -0.16     -0.17
    5   23   12      0.09      0.23
    6   23   12     -0.27      0.21
    7   23   12     -0.05      0.02
    8   23   12      0.04      0.02
    9   23   12      0.13     -0.37
   10   23   12     -0.47     -0.20
   11   23   12     -0.17      0.24
    0   24   12     -0.09      0.00
    1   24   12      0.38      0.17
    2   24   12      0.10     -0.30
    3   24   12      0.02      0.31
    4   24   12     -0.08     -0.08
    5   24   12     -0.16     -0.27
    6   24   12      0.01      0.37
    7   24   12      0.12     -0.28
    8   24   12      0.22      0.31
    9   24   12      0.24      0.03
    0   25   12      0.00     -0.23
    1   25   12      0.02      0.03
    2   25   12      0.03     -0.46
    3   25   12      0.15      0.17
    4   25   12     -0.22     -0.34
    5   25   12      0.15     -0.04
    6   25   12     -0.12      0.07
   10   11   13      0.86      0.33
   11   11   13      0.03     -0.64
    9   12   13     -0.11      0.30
   10   12   13      0.12     -0.34
   11   12   13     -0.45      0.38
   12   12   13      0.02      0.72
    7   13   13     -0.21      0.26
    8   13   13     -0.46     -0.06
    9   13   13     -0.54      0.19
   10   13   13     -0.56     -0.11
   11   13   13      0.69     -0.09
   12   13   13      0.66     -0.13
   13   13   13      0.00      0.00
    5   14   13      0.51     -0.25
    6   14   13      0.65      0.69
    7   14   13     -0.67      0.01
    8   14   13      0.76     -0.31
    9   14   13      0.26     -0.17
   10   14   13     -0.67     -0.44
   11   14   13      0.26     -0.40
   12   14   13     -0.66      0.51
   13   14   13     -0.24     -0.16
   14   14   13     -0.01      0.55
    0   15   13      0.39      0.36
    1   15   13      0.34      0.07
    2   15   13     -0.01      0.00
    3   15   13      0.35     -0.16
    4   15   13     -1.53      0.38
    5   15   13      0.34     -0.25
    6   15   13      0.25     -0.61
    7   15   13     -0.12      0.53
    8   15   13      1.13      0.50
    9   15   13     -0.14      0.11
   10   15   13     -0.19      0.31
   11   15   13      0.46     -0.30
   12   15   13      0.19      0.17
   13   15   13      0.44     -0.37
   14   15   13     -0.11      0.19
   15   15   13     -0.02     -0.19
    0   16   13     -0.15      0.15
    1   16   13      0.00      0.51
    2   16   13      0.08      0.39
    3   16   13     -0.02     -0.14
    4   16   13     -0.40      0.04
    5   16   13      0.14     -0.23
    6   16   13      0.12     -0.32
    7   16   13     -0.77      0.29
    8   16   13      0.01     -0.39
    9   16   13     -0.26     -0.02
   10   16   13     -0.08      0.13
   11   16   13     -0.18     -0.65
   12   16   13     -0.02      0.33
   13   16   13     -0.08     -0.56
   14   16   13     -0.02      0.06
   15   16   13      0.14      0.03
   16   16   13      0.00      0.00
    0   17   13     -0.32     -0.32
    1   17   13      0.38      0.39
    2   17   13      0.00     -0.04
    3   17   13      0.71      0.01
    4   17   13     -0.53      0.46
    5   17   13     -0.25      0.14
    6   17   13      0.17     -0.38
    7   17   13     -0.25      0.15
    8   17   13      0.49      0.41
    9   17   13      0.10      0.35
   10   17   13     -0.06      0.28
   11   17   13     -0.30      0.02
   12   17   13      0.24      0.35
   13   17   13     -0.01     -0.04
   14   17   13      0.16      0.01
   15   17   13     -0.28     -0.15
   16   17   13      0.09     -0.09
    0   18   13      0.48     -0.47
    1   18   13     -0.27      0.07
    2   18   13      0.29     -0.14
    3   18   13      0.09     -0.07
    4   18   13     -0.33     -0.11
    5   18   13      0.14      0.02
    6   18   13     -0.04     -0.15
    7   18   13     -0.01     -0.16
    8   18   13     -0.12     -0.23
    9   18   13      0.08     -0.30
   10   18   13      0.14      0.10
   11   18   13      0.02      0.01
   12   18   13     -0.17      0.24
   13   18   13      0.06      0.10
   14   18   13     -0.15     -0.16
   15   18   13     -0.18      0.35
    0   19   13     -0.40     -0.38
    1   19   13     -0.22      0.25
    2   19   13      0.30      0.24
    3   19   13     -0.05     -0.08
    4   19   13      0.66      0.23
    5   19   13     -0.18      0.07
    6   19   13      0.06     -0.30
    7   19   13      0.08     -0.24
    8   19   13     -0.24      0.22
    9   19   13     -0.22      0.15
   10   19   13      0.10     -0.10
   11   19   13     -0.39     -0.16
   12   19   13     -0.13     -0.11
   13   19   13      0.47      0.16
   14   19   13     -0.24      0.17
    0   20   13      0.31     -0.32
    1   20   13     -0.10     -0.04
    2   20   13     -0.07     -0.01
    3   20   13     -0.08     -0.20
    4   20   13     -0.03      0.18
    5   20   13     -0.13     -0.01
    6   20   13      0.26      0.35
    7   20   13      0.28     -0.13
    8   20   13      0.19     -0.12
    9   20   13      0.08     -0.17
   10   20   13      0.40     -0.19
   11   20   13     -0.14      0.10
   12   20   13      0.12      0.02
    0   21   13     -0.17     -0.19
    1   21   13     -0.25     -0.03
    2   21   13      0.23      0.11
    3   21   13     -0.34     -0.01
    4   21   13     -0.02      0.15
    5   21   13     -0.14      0.14
    6   21   13     -0.39      0.06
    7   21   13      0.17     -0.27
    8   21   13      0.14      0.20
    9   21   13     -0.11      0.21
   10   21   13      0.28     -0.03
    0   22   13      0.15     -0.16
    1   22   13      0.21     -0.01
    2   22   13     -0.14     -0.09
    3   22   13      0.04     -0.15
    4   22   13      0.00     -0.23
    5   22   13     -0.17     -0.04
    6   22   13     -0.09      0.04
    7   22   13     -0.15      0.19
    8   22   13     -0.20     -0.10
    0   23   13      0.05      0.05
    1   23   13      0.02      0.19
    2   23   13      0.29      0.00
    3   23   13      0.50      0.11
    4   23   13     -0.16      0.04
    5   23   13      0.26      0.11
    7    8   14     -0.33      0.48
    8    8   14     -0.77      0.01
    5    9   14      0.75      0.51
    6    9   14      0.18     -0.05
    7    9   14      0.78      0.19
    8    9   14     -0.03      0.58
    9    9   14      0.68     -0.01
    1   10   14     -0.05     -0.42
    2   10   14      0.67      0.55
    3   10   14      0.03     -0.07
    4   10   14     -0.43     -0.19
    5   10   14      0.30      0.32
    6   10   14     -0.64     -0.52
    7   10   14     -0.08      0.44
    8   10   14     -0.66      0.64
    9   10   14      0.01      0.32
   10   10   14     -0.40     -0.02
    0   11   14     -0.02     -0.01
    1   11   14     -0.26     -0.36
    2   11   14     -0.30      0.32
    3   11   14     -0.27     -0.27
    4   11   14      0.26     -0.91
    5   11   14      0.28      0.48
    6   11   14      0.24      0.00
    7   11   14      0.30     -0.15
    8   11   14     -0.20      0.07
    9   11   14     -0.03     -0.22
   10   11   14      0.30     -0.31
   11   11   14      0.02     -0.01
    0   12   14      0.02      0.34
    1   12   14      0.09     -0.59
    2   12   14      0.08      0.17
    3   12   14      0.00     -0.25
    4   12   14     -0.28     -0.46
    5   12   14     -0.23      0.18
    6   12   14      0.38     -0.86
    7   12   14      0.30      0.06
    8   12   14      0.19      0.09
    9   12   14     -0.10      0.22
   10   12   14     -0.08      0.04
   11   12   14     -0.35     -0.53
   12   12   14      0.13      0.01
    0   13   14     -0.06      0.00
    1   13   14      0.28      0.64
    2   13   14     -0.09      0.68
    3   13   14     -0.21      0.40
    4   13   14      0.25     -0.38
    5   13   14     -0.34     -0.25
    6   13   14      0.14      0.22
    7   13   14      0.02      0.40
    8   13   14     -0.26     -0.34
    9   13   14     -0.30      0.76
   10   13   14      0.37     -0.24
   11   13   14      0.02     -0.34
   12   13   14      0.13      0.14
   13   13   14     -0.10      0.01
    0   14   14      0.02     -0.18
    1   14   14      0.10     -0.06
    2   14   14     -0.24     -0.28
    3   14   14      0.04      0.31
    4   14   14      0.20     -0.06
    5   14   14     -0.78      0.00
    6   14   14      0.36     -0.23
    7   14   14      0.28     -0.42
    8   14   14      0.24     -0.51
    9   14   14      0.38      0.47
   10   14   14     -0.01     -0.33
   11   14   14     -0.43      0.25
   12   14   14      0.16     -0.23
   13   14   14     -0.23      0.18
   14   14   14      0.31      0.02
    0   15   14     -0.05      0.02
    1   15   14      0.47     -0.09
    2   15   14     -0.04      0.55
    3   15   14      0.02      0.47
    4   15   14      0.06      0.31
    5   15   14     -0.59     -0.46
    6   15   14      0.24      0.45
    7   15   14     -0.08      0.29
    8   15   14     -0.01     -0.15
    9   15   14     -0.04      0.32
   10   15   14     -0.12      0.01
   11   15   14      0.35     -0.08
   12   15   14      0.07     -0.42
   13   15   14     -0.06      0.38
   14   15   14      0.12     -0.08
    0   16   14      0.00     -0.18
    1   16   14     -0.03     -0.08
    2   16   14     -0.29     -0.27
    3   16   14      0.50     -0.07
    4   16   14      0.24      0.16
    5   16   14     -0.31     -0.28
    6   16   14     -0.25      0.25
    7   16   14     -0.46     -0.29
    8   16   14      0.01      0.07
    9   16   14     -0.01      0.15
   10   16   14      0.02      0.40
   11   16   14     -0.15     -0.09
   12   16   14     -0.18      0.04
   13   16   14     -0.06     -0.15
    0   17   14     -0.14      0.02
    1   17   14      0.17     -0.58
    2   17   14     -0.05      0.06
    3   17   14      0.19      0.34
    4   17   14      0.01      0.14
    5   17   14      0.22     -0.16
    6   17   14      0.14     -0.21
    7   17   14      0.27      0.16
    8   17   14      0.26     -0.21
    9   17   14     -0.10     -0.34
   10   17   14      0.07      0.25
   11   17   14      0.16     -0.11
   12   17   14      0.27      0.10
    0   18   14     -0.01      0.25
    1   18   14      0.13     -0.36
    2   18   14     -0.45      0.17
    3   18   14      0.14     -0.40
    4   18   14      0.03      0.24
    5   18   14      0.04      0.07
    6   18   14     -0.19     -0.18
    7   18   14     -0.29      0.10
    8   18   14     -0.11     -0.11
    9   18   14     -0.06      0.00
   10   18   14     -0.13      0.32
   11   18   14     -0.09     -0.04
    0   19   14     -0.20      0.00
    1   19   14      0.07     -0.02
    2   19   14     -0.14     -0.09
    3   19   14      0.12      0.15
    4   19   14     -0.14      0.18
    5   19   14      0.23     -0.18
    6   19   14      0.06     -0.29
    7   19   14      0.09      0.16
    8   19   14      0.37     -0.07
    9   19   14     -0.04     -0.20
    0   20   14      0.00      0.09
    1   20   14      0.27     -0.27
    2   20   14      0.05     -0.03
    3   20   14     -0.19     -0.06
    4   20   14      0.07      0.16
    5   20   14     -0.07      0.53
    6   20   14     -0.12      0.07
    0   21   14     -0.32      0.00
    1   21   14      0.04      0.23
    2   21   14     -0.04     -0.12
    0    0    0      0.00      0.00
loop_
  _platon_squeeze_void_nr
  _platon_squeeze_void_average_x
  _platon_squeeze_void_average_y
  _platon_squeeze_void_average_z
  _platon_squeeze_void_volume
  _platon_squeeze_void_count_electrons
  _platon_squeeze_void_content
   1  0.000  0.500  0.144       760       123 ' '
   2  0.134  0.868  0.753        62        17 ' '
   3  0.500  1.000  1.029       761       123 ' '
   4  0.367  0.367  0.500        61        17 ' '
   5  0.633  0.633  0.000        60        16 ' '
   6  0.867  0.133  0.250        61        16 ' '
_platon_squeeze_details
(replace by semicolon in column 1 when used as .sqf)
TITL P in P4(3)2(1)2
CELL   26.8901   26.8901   13.2591     90.00     90.00     90.00
SPGR P41212
C101 0.166 0.934 0.783 !       1.60 eA-3
C102 0.331 0.398 0.428 !       1.59 eA-3
C103 0.585 0.046 0.437 !       1.43 eA-3
C104 0.943 0.448 0.001 !       1.33 eA-3
C105 0.036 0.461 0.313 !       1.21 eA-3
C106 0.435 0.101 0.786 !       1.17 eA-3
C107 0.969 0.431 0.124 !       1.12 eA-3
Q108 0.534 0.843 0.237 !       1.07 eA-3
C109 0.998 0.577 0.680 !       0.92 eA-3
Q110 0.419 0.378 0.467 !       0.82 eA-3
Q111 0.875 0.092 0.314 !       0.75 eA-3
Q112 0.028 0.792 0.609 !       0.68 eA-3
C113 0.877 0.125 0.246 !       0.68 eA-3
C114 0.952 0.337 0.917 !       0.64 eA-3
C115 0.147 0.460 0.373 !       0.63 eA-3
C116 0.581 0.587-0.003 !       0.63 eA-3
C117 0.438 0.194 0.799 !       0.61 eA-3
Q118 0.303 0.208 0.901 !       0.60 eA-3
Q119 0.393 0.529 0.269 !       0.57 eA-3
Q120 0.976 0.835 0.691 !       0.56 eA-3
C121 0.113 0.650 0.418 !       0.54 eA-3
Q122 0.275 0.549 0.283 !       0.52 eA-3
(replace by semicolon in column 1 when used as .sqf)
;
_olex2_submission_special_instructions 'No special instructions were received'
#END Tags that were not found in dictionaries
loop_
_space_group_symop_operation_xyz
'x, y, z'
'-y+1/2, x+1/2, z+1/4'
'-x, -y, z+1/2'
'y+1/2, -x+1/2, z+3/4'
'x+1/2, -y+1/2, -z+3/4'
'-x+1/2, y+1/2, -z+1/4'
'y, x, -z'
'-y, -x, -z+1/2'
loop_
_atom_site_label
_atom_site_type_symbol
_atom_site_fract_x
_atom_site_fract_y
_atom_site_fract_z
_atom_site_U_iso_or_equiv
_atom_site_adp_type
_atom_site_occupancy
_atom_site_site_symmetry_order
_atom_site_calc_flag
_atom_site_refinement_flags_posn
_atom_site_refinement_flags_adp
_atom_site_refinement_flags_occupancy
_atom_site_disorder_assembly
_atom_site_disorder_group
Ti1 Ti 0.30573(5) 0.77418(6) 0.67871(13) 0.0359(4) Uani 1 1 d . . . . .
O4 O 0.2871(2) 0.8209(2) 0.7752(5) 0.0427(14) Uani 1 1 d . . . . .
O0AA O 0.3225(2) 0.8257(2) 0.5809(5) 0.0395(14) Uani 1 1 d . . . . .
N0AA N 0.2367(3) 0.7732(3) 0.5898(6) 0.0429(18) Uani 1 1 d . . . . .
H0AA H 0.2117 0.7538 0.6297 0.051 Uiso 1 1 calc R . . . .
N2 N 0.3208(3) 0.7162(3) 0.5589(6) 0.0423(18) Uani 1 1 d . . . . .
H2 H 0.3437 0.7310 0.5077 0.051 Uiso 1 1 calc R . . . .
O3 O 0.2763(2) 0.7237(2) 0.7500 0.0379(19) Uani 1 2 d S T P . .
O1AA O 0.3722(2) 0.7625(2) 0.7095(5) 0.0418(15) Uani 1 1 d . . . . .
C3AA C 0.2743(4) 0.7008(4) 0.5066(7) 0.047(2) Uani 1 1 d . . . . .
H3AA H 0.2559 0.6775 0.5521 0.056 Uiso 1 1 calc R . . . .
C23 C 0.3458(4) 0.6715(4) 0.6036(8) 0.048(2) Uani 1 1 d . . . . .
H23A H 0.3519 0.6472 0.5490 0.058 Uiso 1 1 calc R . . . .
H23B H 0.3226 0.6559 0.6521 0.058 Uiso 1 1 calc R . . . .
C11 C 0.30286(19) 0.9107(2) 0.3729(4) 0.046(2) Uani 1 1 d . . . . .
H11 H 0.3215 0.9299 0.3260 0.055 Uiso 1 1 calc R . . . .
C6AA C 0.32723(14) 0.8820(2) 0.4447(5) 0.041(2) Uani 1 1 d G . . . .
C9 C 0.29993(17) 0.85402(19) 0.5132(4) 0.037(2) Uani 1 1 d G . . . .
C8 C 0.24827(17) 0.8547(2) 0.5099(4) 0.046(2) Uani 1 1 d G . . . .
C13 C 0.22390(14) 0.8834(2) 0.4381(5) 0.053(3) Uani 1 1 d G . . . .
H13 H 0.1886 0.8839 0.4359 0.064 Uiso 1 1 calc R . . . .
C12 C 0.25120(19) 0.9114(2) 0.3696(5) 0.051(3) Uani 1 1 d G U . . .
C29 C 0.4276(2) 0.64177(19) 0.6613(5) 0.056(3) Uani 1 1 d . . . . .
H29 H 0.4202 0.6118 0.6265 0.067 Uiso 1 1 calc R . . . .
C28 C 0.4715(2) 0.6460(2) 0.7160(6) 0.063(3) Uani 1 1 d DG U . . .
C4AA C 0.48229(18) 0.6899(2) 0.7669(5) 0.060(3) Uani 1 1 d G . . . .
H4AA H 0.5123 0.6927 0.8043 0.072 Uiso 1 1 calc R . . . .
C26 C 0.4492(2) 0.7295(2) 0.7630(5) 0.048(2) Uani 1 1 d G . . . .
C24 C 0.40535(18) 0.72534(18) 0.7083(5) 0.043(2) Uani 1 1 d G . . . .
C25 C 0.39454(18) 0.6815(2) 0.6574(5) 0.047(2) Uani 1 1 d G . . . .
C39 C 0.2972(5) 0.8720(4) 0.7846(10) 0.068(3) Uani 1 1 d . . . . .
H39A H 0.2811 0.8849 0.8457 0.102 Uiso 1 1 calc R . . . .
H39B H 0.3332 0.8772 0.7893 0.102 Uiso 1 1 calc R . . . .
H39C H 0.2842 0.8897 0.7255 0.102 Uiso 1 1 calc R . . . .
Cd1 Cd 0.62627(10) 0.45282(11) 0.7111(3) 0.0652(10) Uani 0.545(7) 1 d . U . A 1
C1AA C 0.2172(3) 0.8247(3) 0.5815(9) 0.049(2) Uani 1 1 d . . . . .
H1AA H 0.2175 0.8406 0.6488 0.058 Uiso 1 1 calc R . . . .
H1AB H 0.1824 0.8238 0.5572 0.058 Uiso 1 1 calc R . . . .
C14 C 0.3856(3) 0.8822(4) 0.4487(8) 0.045(2) Uani 1 1 d . . . . .
C7AA C 0.2816(5) 0.6753(4) 0.4069(8) 0.064(3) Uani 1 1 d . . . . .
H7AA H 0.3010 0.6444 0.4172 0.077 Uiso 1 1 calc R . . . .
H7AB H 0.3008 0.6973 0.3615 0.077 Uiso 1 1 calc R . . . .
C30 C 0.4617(3) 0.7791(5) 0.8204(9) 0.057(3) Uani 1 1 d . . . . .
C15 C 0.4052(4) 0.8283(4) 0.4354(10) 0.062(3) Uani 1 1 d . . . . .
H15A H 0.3956 0.8083 0.4941 0.093 Uiso 1 1 calc GR . . . .
H15B H 0.4415 0.8288 0.4295 0.093 Uiso 1 1 calc GR . . . .
H15C H 0.3908 0.8137 0.3743 0.093 Uiso 1 1 calc GR . . . .
C5 C 0.1986(6) 0.7075(5) 0.3460(10) 0.080(4) Uani 1 1 d . . . . .
H5A H 0.2133 0.7303 0.2955 0.096 Uiso 1 1 calc R . . . .
H5B H 0.1658 0.6965 0.3201 0.096 Uiso 1 1 calc R . . . .
C2AA C 0.2422(4) 0.7475(4) 0.4917(8) 0.049(2) Uani 1 1 d . . . . .
H2AA H 0.2604 0.7704 0.4452 0.059 Uiso 1 1 calc R . . . .
C32 C 0.4613(4) 0.8229(4) 0.7504(10) 0.057(3) Uani 1 1 d . . . . .
H32A H 0.4879 0.8192 0.7003 0.085 Uiso 1 1 calc GR . . . .
H32B H 0.4667 0.8535 0.7891 0.085 Uiso 1 1 calc GR . . . .
H32C H 0.4291 0.8247 0.7159 0.085 Uiso 1 1 calc GR . . . .
C31 C 0.5142(4) 0.7766(6) 0.8747(10) 0.071(3) Uani 1 1 d . . . . .
H31A H 0.5157 0.7469 0.9174 0.106 Uiso 1 1 calc GR . . . .
H31B H 0.5188 0.8064 0.9164 0.106 Uiso 1 1 calc GR . . . .
H31C H 0.5406 0.7751 0.8237 0.106 Uiso 1 1 calc GR . . . .
C33 C 0.4227(4) 0.7870(5) 0.9039(9) 0.065(3) Uani 1 1 d . . . . .
H33A H 0.3904 0.7944 0.8732 0.097 Uiso 1 1 calc GR . . . .
H33B H 0.4329 0.8148 0.9469 0.097 Uiso 1 1 calc GR . . . .
H33C H 0.4200 0.7567 0.9448 0.097 Uiso 1 1 calc GR . . . .
C8AA C 0.1913(4) 0.7347(4) 0.4419(9) 0.065(3) Uani 1 1 d . . . . .
H8AA H 0.1714 0.7141 0.4888 0.078 Uiso 1 1 calc R . . . .
H8AB H 0.1727 0.7658 0.4288 0.078 Uiso 1 1 calc R . . . .
C16 C 0.4025(4) 0.9037(4) 0.5459(9) 0.057(3) Uani 1 1 d . . . . .
H16A H 0.3894 0.9375 0.5529 0.085 Uiso 1 1 calc GR . . . .
H16B H 0.4389 0.9046 0.5473 0.085 Uiso 1 1 calc GR . . . .
H16C H 0.3904 0.8831 0.6017 0.085 Uiso 1 1 calc GR . . . .
C22 C 0.2330(13) 0.9903(16) 0.280(2) 0.054(10) Uani 0.545(7) 1 d . . . A 1
H22 H 0.2620 1.0044 0.3097 0.065 Uiso 0.545(7) 1 calc R . . A 1
C17 C 0.4081(5) 0.9125(5) 0.3629(11) 0.079(4) Uani 1 1 d . . . . .
H17A H 0.4053 0.8938 0.2997 0.118 Uiso 1 1 calc GR . . . .
H17B H 0.4433 0.9190 0.3774 0.118 Uiso 1 1 calc GR . . . .
H17C H 0.3903 0.9441 0.3565 0.118 Uiso 1 1 calc GR . . . .
C5AA C 0.2321(6) 0.6624(5) 0.3576(11) 0.079(4) Uani 1 1 d . . . . .
H5AA H 0.2385 0.6477 0.2904 0.094 Uiso 1 1 calc R . . . .
H5AB H 0.2149 0.6370 0.3991 0.094 Uiso 1 1 calc R . . . .
Br1 Br 0.5917(2) 0.3975(3) 0.8692(6) 0.138(2) Uani 0.545(7) 1 d . . . . .
O5 O 0.7058(9) 0.4265(8) 0.7418(17) 0.096(5) Uani 0.545(7) 1 d D U . A 1
Cd1A Cd 0.64210(13) 0.47139(15) 0.7648(4) 0.0725(13) Uani 0.455(7) 1 d . U . A
2
C40 C 0.7155(9) 0.4666(9) 0.790(2) 0.0764(17) Uani 0.545(7) 1 d D U . A 1
Br1A Br 0.6036(2) 0.4258(3) 0.9259(6) 0.112(2) Uani 0.455(7) 1 d . . . A .
O6 O 0.6848(6) 0.4982(6) 0.8129(14) 0.0757(15) Uani 0.545(7) 1 d D U . A 1
C41 C 0.7683(12) 0.4769(18) 0.822(4) 0.119(11) Uani 0.545(7) 1 d D U . A 1
H41A H 0.7897 0.4495 0.7998 0.179 Uiso 0.545(7) 1 calc R . . A 1
H41B H 0.7797 0.5080 0.7905 0.179 Uiso 0.545(7) 1 calc R . . A 1
H41C H 0.7699 0.4801 0.8952 0.179 Uiso 0.545(7) 1 calc R . . A 1
O6A O 0.6998(7) 0.5240(7) 0.8629(16) 0.0757(15) Uani 0.455(7) 1 d D U . A 2
O5A O 0.7184(8) 0.4463(9) 0.786(2) 0.089(5) Uani 0.455(7) 1 d D U . A 2
C41A C 0.7831(12) 0.4974(17) 0.845(4) 0.119(11) Uani 0.455(7) 1 d D U . A 2
H41D H 0.8009 0.4676 0.8221 0.179 Uiso 0.455(7) 1 calc R . . A 2
H41E H 0.7927 0.5258 0.8033 0.179 Uiso 0.455(7) 1 calc R . . A 2
H41F H 0.7916 0.5041 0.9156 0.179 Uiso 0.455(7) 1 calc R . . A 2
C40A C 0.7278(10) 0.4889(10) 0.836(3) 0.0764(17) Uani 0.455(7) 1 d D U . A 2
C38 C 0.4998(7) 0.5620(7) 0.6365(15) 0.057(7) Uani 0.545(7) 1 d . U . A 1
H38 H 0.4767 0.5650 0.5827 0.068 Uiso 0.545(7) 1 calc R . . A 1
C34 C 0.5024(10) 0.5987(8) 0.710(2) 0.059(7) Uani 0.545(7) 1 d DG U . A 1
C35 C 0.5362(11) 0.5943(9) 0.789(2) 0.082(9) Uani 0.545(7) 1 d G U . A 1
H35 H 0.5379 0.6194 0.8392 0.098 Uiso 0.545(7) 1 calc R . . A 1
C36 C 0.5674(9) 0.5532(8) 0.7941(17) 0.083(10) Uani 0.545(7) 1 d G U . A 1
H36 H 0.5905 0.5502 0.8480 0.100 Uiso 0.545(7) 1 calc R . . A 1
N4 N 0.5648(7) 0.5165(6) 0.7205(15) 0.067(7) Uani 0.545(7) 1 d G U . A 1
C37 C 0.5310(6) 0.5209(6) 0.6417(12) 0.058(5) Uani 0.545(7) 1 d G U . A 1
H37 H 0.5292 0.4958 0.5914 0.069 Uiso 0.545(7) 1 calc R . . A 1
N4A N 0.5797(8) 0.5277(8) 0.7566(17) 0.052(6) Uani 0.455(7) 1 d . U . A 2
C36A C 0.5766(10) 0.5633(9) 0.8323(16) 0.075(9) Uani 0.455(7) 1 d G U . A 2
H36A H 0.5977 0.5612 0.8896 0.090 Uiso 0.455(7) 1 calc R . . A 2
C35A C 0.5425(12) 0.6019(10) 0.8243(19) 0.068(8) Uani 0.455(7) 1 d G U . A 2
H35A H 0.5403 0.6263 0.8760 0.082 Uiso 0.455(7) 1 calc R . . A 2
C34A C 0.5116(10) 0.6050(9) 0.741(2) 0.051(7) Uani 0.455(7) 1 d G U . A 2
C38A C 0.5147(9) 0.5694(9) 0.6648(17) 0.052(7) Uani 0.455(7) 1 d G U . A 2
H38A H 0.4936 0.5715 0.6075 0.063 Uiso 0.455(7) 1 calc R . . A 2
C37A C 0.5488(9) 0.5307(8) 0.6728(16) 0.065(9) Uani 0.455(7) 1 d G U . A 2
H37A H 0.5509 0.5064 0.6211 0.078 Uiso 0.455(7) 1 calc R . . A 2
N3 N 0.1666(9) 1.0024(8) 0.1764(16) 0.059(6) Uani 0.545(7) 1 d . . . A 1
C19 C 0.1779(8) 0.9282(9) 0.2586(19) 0.056(7) Uani 0.545(7) 1 d . . . A 1
H19 H 0.1661 0.8956 0.2727 0.067 Uiso 0.545(7) 1 calc R . . A 1
C20 C 0.1521(10) 0.9571(10) 0.195(2) 0.077(9) Uani 0.545(7) 1 d . . . A 1
H20 H 0.1230 0.9444 0.1638 0.092 Uiso 0.545(7) 1 calc R . . A 1
C18 C 0.2196(10) 0.9436(10) 0.3026(18) 0.040(7) Uani 0.545(7) 1 d . . . A 1
C21 C 0.2054(13) 1.0169(11) 0.216(2) 0.057(9) Uani 0.545(7) 1 d . . . A 1
H21 H 0.2165 1.0495 0.2005 0.069 Uiso 0.545(7) 1 calc R . . A 1
C22A C 0.2396(11) 0.9880(11) 0.256(2) 0.032(8) Uani 0.455(7) 1 d . U . A 2
H22A H 0.2646 1.0050 0.2928 0.039 Uiso 0.455(7) 1 calc R . . A 2
C18A C 0.2298(9) 0.9382(10) 0.2757(18) 0.049(9) Uani 0.455(7) 1 d G U . A 2
C19A C 0.1932(9) 0.9133(6) 0.2217(19) 0.056(7) Uani 0.455(7) 1 d G U . A 2
H19A H 0.1865 0.8793 0.2352 0.067 Uiso 0.455(7) 1 calc R . . A 2
C20A C 0.1662(9) 0.9383(7) 0.1479(18) 0.074(10) Uani 0.455(7) 1 d G U . A 2
H20A H 0.1412 0.9213 0.1110 0.089 Uiso 0.455(7) 1 calc R . . A 2
N3A N 0.1760(10) 0.9881(7) 0.1281(17) 0.064(9) Uani 0.455(7) 1 d G U . A 2
C21A C 0.2126(12) 1.0130(7) 0.182(2) 0.049(10) Uani 0.455(7) 1 d G U . A 2
H21A H 0.2193 1.0470 0.1685 0.058 Uiso 0.455(7) 1 calc R . . A 2
loop_
_atom_site_aniso_label
_atom_site_aniso_U_11
_atom_site_aniso_U_22
_atom_site_aniso_U_33
_atom_site_aniso_U_23
_atom_site_aniso_U_13
_atom_site_aniso_U_12
Ti1 0.0228(8) 0.0282(8) 0.0566(9) 0.0031(7) 0.0012(7) 0.0010(6)
O4 0.036(3) 0.027(3) 0.066(4) -0.001(3) 0.005(3) -0.001(2)
O0AA 0.026(3) 0.031(3) 0.061(4) 0.010(3) 0.006(3) 0.000(2)
N0AA 0.035(4) 0.033(4) 0.061(5) 0.014(4) -0.004(4) -0.002(3)
N2 0.038(4) 0.031(4) 0.057(4) 0.006(3) 0.004(4) 0.000(3)
O3 0.028(2) 0.028(2) 0.057(5) -0.002(3) -0.002(3) 0.002(3)
O1AA 0.022(3) 0.036(3) 0.068(4) 0.002(3) 0.000(3) 0.002(2)
C3AA 0.046(5) 0.042(5) 0.053(5) 0.010(4) -0.013(5) -0.011(4)
C23 0.040(5) 0.040(5) 0.063(6) 0.005(5) 0.008(5) 0.010(4)
C11 0.036(5) 0.031(5) 0.070(6) 0.002(5) 0.001(5) -0.003(4)
C6AA 0.037(5) 0.025(4) 0.061(6) 0.000(4) 0.006(4) 0.000(4)
C9 0.031(4) 0.026(4) 0.056(5) -0.003(4) 0.001(4) 0.002(3)
C8 0.035(5) 0.029(5) 0.073(6) 0.002(4) -0.004(5) 0.002(4)
C13 0.034(5) 0.033(5) 0.093(8) 0.013(5) -0.010(5) -0.001(4)
C12 0.034(5) 0.036(5) 0.084(7) 0.016(5) -0.011(5) -0.005(4)
C29 0.047(6) 0.040(5) 0.082(7) 0.009(5) 0.022(6) 0.005(5)
C28 0.030(5) 0.068(7) 0.091(8) 0.028(7) 0.012(5) 0.021(5)
C4AA 0.029(5) 0.054(7) 0.098(8) 0.021(6) 0.007(5) 0.010(4)
C26 0.025(5) 0.050(6) 0.068(6) 0.010(5) 0.006(4) 0.002(4)
C24 0.025(4) 0.035(5) 0.068(6) 0.006(5) 0.008(4) 0.008(4)
C25 0.031(5) 0.040(5) 0.069(6) 0.011(5) 0.016(4) 0.006(4)
C39 0.077(8) 0.042(6) 0.086(8) -0.008(6) 0.026(7) -0.012(5)
Cd1 0.0557(12) 0.0536(13) 0.0863(18) 0.0225(13) 0.0188(12) 0.0257(9)
C1AA 0.027(5) 0.035(5) 0.084(7) 0.008(5) 0.003(5) 0.001(4)
C14 0.033(5) 0.038(5) 0.065(6) 0.006(5) 0.006(4) 0.003(4)
C7AA 0.086(9) 0.048(6) 0.059(6) -0.004(5) -0.010(6) 0.000(6)
C30 0.014(4) 0.080(8) 0.079(7) 0.015(6) -0.005(5) -0.002(4)
C15 0.059(7) 0.053(6) 0.074(7) 0.012(6) 0.018(6) 0.025(5)
C5 0.089(10) 0.073(9) 0.077(8) 0.019(7) -0.024(7) -0.023(7)
C2AA 0.046(6) 0.038(5) 0.064(6) 0.012(5) -0.013(5) -0.012(4)
C32 0.038(5) 0.042(6) 0.090(8) 0.003(5) -0.009(5) -0.003(4)
C31 0.031(5) 0.097(10) 0.084(8) 0.014(8) -0.012(6) -0.002(6)
C33 0.040(6) 0.080(8) 0.073(7) -0.003(6) 0.008(5) -0.004(6)
C8AA 0.060(7) 0.054(6) 0.081(7) 0.009(6) -0.031(6) -0.022(5)
C16 0.038(5) 0.035(5) 0.096(8) 0.006(5) -0.010(6) -0.001(4)
C22 0.041(15) 0.07(2) 0.047(15) 0.024(12) 0.003(11) 0.012(12)
C17 0.044(6) 0.090(10) 0.102(10) 0.044(9) 0.021(7) 0.005(6)
C5AA 0.104(11) 0.056(7) 0.077(8) -0.006(6) -0.017(8) -0.013(7)
Br1 0.085(3) 0.164(6) 0.164(5) 0.078(4) 0.026(3) 0.018(3)
O5 0.096(5) 0.096(5) 0.096(5) 0.0008(14) 0.0002(14) 0.0003(14)
Cd1A 0.0611(15) 0.0574(16) 0.099(3) 0.0362(17) 0.0275(16) 0.0263(12)
C40 0.066(2) 0.061(2) 0.103(3) 0.032(2) 0.024(2) 0.023(2)
Br1A 0.071(3) 0.119(4) 0.145(5) 0.065(4) 0.021(3) 0.020(3)
O6 0.065(2) 0.060(2) 0.102(3) 0.033(2) 0.025(2) 0.0238(18)
C41 0.112(16) 0.14(3) 0.10(2) 0.02(2) -0.038(18) -0.012(19)
O6A 0.065(2) 0.060(2) 0.102(3) 0.033(2) 0.025(2) 0.0238(18)
O5A 0.064(9) 0.068(10) 0.135(12) 0.060(10) 0.028(9) 0.046(8)
C41A 0.112(16) 0.14(3) 0.10(2) 0.02(2) -0.038(18) -0.012(19)
C40A 0.066(2) 0.061(2) 0.103(3) 0.032(2) 0.024(2) 0.023(2)
C38 0.031(12) 0.061(13) 0.077(16) 0.014(10) 0.008(11) 0.008(10)
C34 0.040(12) 0.048(12) 0.088(18) 0.014(10) -0.010(11) 0.023(10)
C35 0.069(18) 0.081(17) 0.10(2) 0.000(17) -0.028(15) 0.029(14)
C36 0.08(2) 0.08(2) 0.09(2) 0.014(17) -0.057(17) 0.016(16)
N4 0.035(11) 0.090(19) 0.076(14) 0.000(13) 0.003(9) 0.010(11)
C37 0.042(11) 0.057(12) 0.073(12) 0.027(11) 0.010(10) 0.028(10)
N4A 0.041(14) 0.042(13) 0.073(15) 0.015(13) 0.009(9) -0.002(11)
C36A 0.040(15) 0.10(2) 0.08(2) 0.017(17) -0.015(16) 0.012(14)
C35A 0.049(16) 0.09(2) 0.064(17) 0.035(14) 0.003(12) 0.029(14)
C34A 0.037(13) 0.046(11) 0.071(16) 0.023(10) 0.003(11) 0.011(10)
C38A 0.042(15) 0.043(12) 0.071(15) 0.024(10) -0.010(12) 0.016(11)
C37A 0.065(9) 0.065(9) 0.065(9) 0.0001(14) 0.0002(14) 0.0000(14)
N3 0.061(13) 0.050(12) 0.065(14) 0.024(11) -0.018(12) -0.011(9)
C19 0.033(12) 0.036(12) 0.098(19) 0.022(13) -0.009(12) -0.008(9)
C20 0.057(16) 0.067(18) 0.11(2) 0.024(16) -0.010(15) -0.030(14)
C18 0.016(9) 0.037(12) 0.067(14) 0.023(11) 0.008(11) -0.004(8)
C21 0.053(16) 0.049(14) 0.07(2) 0.004(12) 0.004(15) -0.016(11)
C22A 0.024(13) 0.029(13) 0.044(16) 0.009(11) -0.008(12) -0.015(10)
C18A 0.030(17) 0.040(13) 0.076(14) 0.017(11) 0.006(12) 0.006(11)
C19A 0.065(19) 0.021(12) 0.081(19) 0.011(12) -0.006(14) 0.012(10)
C20A 0.06(2) 0.06(2) 0.10(3) 0.025(19) -0.018(19) -0.020(15)
N3A 0.064(17) 0.055(17) 0.071(18) 0.038(14) -0.042(15) -0.029(13)
C21A 0.033(14) 0.052(16) 0.06(2) 0.032(14) -0.013(15) -0.020(11)
loop_
_atom_type_symbol
_atom_type_description
_atom_type_scat_dispersion_real
_atom_type_scat_dispersion_imag
_atom_type_scat_source
C C 0.0181 0.0091 'International Tables Vol C Tables 4.2.6.8 and 6.1.1.4'
H H 0.0000 0.0000 'International Tables Vol C Tables 4.2.6.8 and 6.1.1.4'
Br Br -0.6763 1.2805 'International Tables Vol C Tables 4.2.6.8 and 6.1.1.4'
Cd Cd 0.1185 4.6533 'International Tables Vol C Tables 4.2.6.8 and 6.1.1.4'
N N 0.0311 0.0180 'International Tables Vol C Tables 4.2.6.8 and 6.1.1.4'
O O 0.0492 0.0322 'International Tables Vol C Tables 4.2.6.8 and 6.1.1.4'
Ti Ti 0.2191 1.8069 'International Tables Vol C Tables 4.2.6.8 and 6.1.1.4'
loop_
_geom_angle_atom_site_label_1
_geom_angle_atom_site_label_2
_geom_angle_atom_site_label_3
_geom_angle
_geom_angle_site_symmetry_1
_geom_angle_site_symmetry_3
O4 Ti1 O0AA 92.3(3) . .
O4 Ti1 N0AA 98.6(3) . .
O4 Ti1 N2 174.7(3) . .
O0AA Ti1 N0AA 81.2(3) . .
O0AA Ti1 N2 88.9(3) . .
N0AA Ti1 N2 76.5(3) . .
O3 Ti1 O4 91.7(3) . .
O3 Ti1 O0AA 165.5(2) . .
O3 Ti1 N0AA 84.4(2) . .
O3 Ti1 N2 85.9(2) . .
O3 Ti1 O1AA 100.1(3) . .
O1AA Ti1 O4 102.8(3) . .
O1AA Ti1 O0AA 92.6(3) . .
O1AA Ti1 N0AA 157.9(3) . .
O1AA Ti1 N2 82.3(3) . .
C39 O4 Ti1 132.0(7) . .
C9 O0AA Ti1 139.0(4) . .
C1AA N0AA Ti1 109.0(6) . .
C2AA N0AA Ti1 113.1(6) . .
C2AA N0AA C1AA 113.9(8) . .
C3AA N2 Ti1 111.6(6) . .
C3AA N2 C23 109.7(7) . .
C23 N2 Ti1 110.8(6) . .
Ti1 O3 Ti1 154.7(5) . 8_666
C24 O1AA Ti1 139.7(5) . .
N2 C3AA C7AA 115.3(9) . .
N2 C3AA C2AA 107.7(7) . .
C7AA C3AA C2AA 109.4(8) . .
N2 C23 C25 115.7(8) . .
C6AA C11 C12 120.0 . .
C11 C6AA C9 120.0 . .
C11 C6AA C14 119.5(5) . .
C9 C6AA C14 120.5(5) . .
O0AA C9 C6AA 120.9(4) . .
O0AA C9 C8 119.1(4) . .
C8 C9 C6AA 120.0 . .
C9 C8 C13 120.0 . .
C9 C8 C1AA 122.0(5) . .
C13 C8 C1AA 118.0(5) . .
C8 C13 C12 120.0 . .
C11 C12 C18 126.2(11) . .
C11 C12 C18A 113.7(11) . .
C13 C12 C11 120.0 . .
C13 C12 C18 113.6(11) . .
C13 C12 C18A 125.6(11) . .
C28 C29 C25 120.0 . .
C29 C28 C4AA 120.0 . .
C29 C28 C34 111.7(9) . .
C29 C28 C34A 129.2(11) . .
C4AA C28 C34 128.3(9) . .
C4AA C28 C34A 110.5(10) . .
C26 C4AA C28 120.0 . .
C4AA C26 C30 119.8(5) . .
C24 C26 C4AA 120.0 . .
C24 C26 C30 120.2(5) . .
O1AA C24 C26 119.9(5) . .
O1AA C24 C25 120.0(5) . .
C26 C24 C25 120.0 . .
C29 C25 C23 115.8(5) . .
C24 C25 C23 123.9(5) . .
C24 C25 C29 120.0 . .
Br1 Cd1 Cd1 32.8(2) . 8_666
Br1 Cd1 Cd1 59.2(2) 8_666 8_666
Br1 Cd1 Br1 88.3(3) 8_666 .
Br1 Cd1 O5 104.0(6) 8_666 .
Br1 Cd1 C40 132.7(6) 8_666 .
Br1 Cd1 Br1A 11.7(3) 8_666 8_666
Br1 Cd1 Br1A 21.78(15) . .
Br1 Cd1 Br1A 110.0(3) 8_666 .
Br1 Cd1 Br1A 91.9(2) . 8_666
Br1 Cd1 O6 160.2(4) 8_666 .
Br1 Cd1 N4 105.9(5) 8_666 .
Br1 Cd1 N3 92.7(6) 8_666 5_565
O5 Cd1 Cd1 111.1(6) . 8_666
O5 Cd1 Br1 90.8(6) . .
O5 Cd1 C40 29.0(5) . .
O5 Cd1 Br1A 86.9(6) . .
O5 Cd1 Br1A 115.0(6) . 8_666
O5 Cd1 O6 56.3(6) . .
O5 Cd1 N4 149.4(7) . .
O5 Cd1 N3 82.5(8) . 5_565
C40 Cd1 Cd1 124.9(7) . 8_666
C40 Cd1 Br1 94.7(7) . .
C40 Cd1 Br1A 143.2(5) . 8_666
C40 Cd1 Br1A 81.0(7) . .
Br1A Cd1 Cd1 60.33(18) 8_666 8_666
Br1A Cd1 Cd1 52.7(2) . 8_666
Br1A Cd1 Br1A 112.92(18) 8_666 .
O6 Cd1 Cd1 126.5(4) . 8_666
O6 Cd1 Br1 93.9(4) . .
O6 Cd1 C40 27.5(5) . .
O6 Cd1 Br1A 74.0(4) . .
O6 Cd1 Br1A 169.6(4) . 8_666
O6 Cd1 N3 83.0(6) . 5_565
N4 Cd1 Cd1 90.0(5) . 8_666
N4 Cd1 Br1 96.6(5) . .
N4 Cd1 C40 120.5(7) . .
N4 Cd1 Br1A 89.0(5) . .
N4 Cd1 Br1A 94.5(5) . 8_666
N4 Cd1 O6 93.4(6) . .
N4 Cd1 N3 89.6(8) . 5_565
N3 Cd1 Cd1 150.5(6) 5_565 8_666
N3 Cd1 Br1 173.3(6) 5_565 .
N3 Cd1 C40 79.8(9) 5_565 .
N3 Cd1 Br1A 156.8(6) 5_565 .
N3 Cd1 Br1A 90.3(5) 5_565 8_666
N0AA C1AA C8 110.7(7) . .
C15 C14 C6AA 109.5(8) . .
C16 C14 C6AA 109.7(8) . .
C16 C14 C15 111.0(9) . .
C16 C14 C17 108.5(9) . .
C17 C14 C6AA 111.9(8) . .
C17 C14 C15 106.2(9) . .
C3AA C7AA C5AA 111.6(11) . .
C26 C30 C31 112.0(9) . .
C32 C30 C26 111.4(9) . .
C32 C30 C31 108.7(9) . .
C32 C30 C33 109.4(10) . .
C33 C30 C26 108.7(8) . .
C33 C30 C31 106.6(10) . .
C8AA C5 C5AA 112.7(11) . .
N0AA C2AA C3AA 108.9(8) . .
N0AA C2AA C8AA 112.8(9) . .
C3AA C2AA C8AA 111.6(8) . .
C5 C8AA C2AA 110.9(11) . .
C21 C22 C18 119(3) . .
C5 C5AA C7AA 112.4(11) . .
Cd1 Br1 Cd1 87.9(2) 8_666 .
Cd1A Br1 Cd1A 105.2(2) 8_666 .
Br1A Br1 Cd1 92.7(5) . .
Br1A Br1 Cd1 150.1(6) . 8_666
Br1A Br1 Cd1A 73.0(4) . .
Br1A Br1 Cd1A 154.1(6) . 8_666
C40 O5 Cd1 91.1(16) . .
Br1 Cd1A Br1 71.5(2) 8_666 .
Br1A Cd1A Br1 94.9(2) . 8_666
Br1A Cd1A Br1 23.53(16) . .
O6A Cd1A Br1 117.0(4) . .
O6A Cd1A Br1 164.2(4) . 8_666
O6A Cd1A Br1A 94.9(5) . .
O6A Cd1A C40A 29.1(6) . .
O5A Cd1A Br1 100.0(5) . .
O5A Cd1A Br1 105.3(9) . 8_666
O5A Cd1A Br1A 96.8(6) . .
O5A Cd1A O6A 61.1(9) . .
O5A Cd1A C40A 32.1(9) . .
O5A Cd1A N4A 155.8(10) . .
O5A Cd1A N3A 83(7) . 5_565
C40A Cd1A Br1 113.0(6) . .
C40A Cd1A Br1 136.6(6) . 8_666
C40A Cd1A Br1A 98.0(7) . .
N4A Cd1A Br1 95.6(6) . 8_666
N4A Cd1A Br1 98.1(6) . .
N4A Cd1A Br1A 93.3(6) . .
N4A Cd1A O6A 96.2(7) . .
N4A Cd1A C40A 124.6(8) . .
N4A Cd1A N3A 86(7) . 5_565
N3A Cd1A Br1 156(6) 5_565 .
N3A Cd1A Br1 85(6) 5_565 8_666
N3A Cd1A Br1A 180(7) 5_565 .
N3A Cd1A O6A 85(6) 5_565 .
N3A Cd1A C40A 82(6) 5_565 .
O5 C40 Cd1 60.0(15) . .
O5 C40 C41 119(3) . .
O6 C40 Cd1 65.4(14) . .
O6 C40 O5 125(2) . .
O6 C40 C41 116(3) . .
C41 C40 Cd1 173(3) . .
Cd1 Br1A Cd1 66.97(18) 8_666 .
Br1 Br1A Cd1 65.5(4) . .
Br1 Br1A Cd1 18.2(4) . 8_666
Br1 Br1A Cd1A 83.5(5) . .
C40 O6 Cd1 87.1(16) . .
C40A O6A Cd1A 78.3(19) . .
C40A O5A Cd1A 88.8(15) . .
O6A C40A Cd1A 72.6(18) . .
O6A C40A O5A 132(3) . .
O6A C40A C41A 117(3) . .
O5A C40A Cd1A 59.2(15) . .
O5A C40A C41A 110.7(19) . .
C41A C40A Cd1A 162(3) . .
C34 C38 C37 120.0 . .
C38 C34 C28 127.0(12) . .
C35 C34 C28 113.0(12) . .
C35 C34 C38 120.0 . .
C34 C35 C36 120.0 . .
N4 C36 C35 120.0 . .
C36 N4 Cd1 120.8(9) . .
C36 N4 C37 120.0 . .
C37 N4 Cd1 118.4(9) . .
N4 C37 C38 120.0 . .
C36A N4A Cd1A 118.1(11) . .
C36A N4A C37A 120.0 . .
C37A N4A Cd1A 121.5(11) . .
N4A C36A C35A 120.0 . .
C34A C35A C36A 120.0 . .
C35A C34A C28 128.0(14) . .
C38A C34A C28 112.0(14) . .
C38A C34A C35A 120.0 . .
C37A C38A C34A 120.0 . .
C38A C37A N4A 120.0 . .
C20 N3 Cd1 118.2(19) . 5_465
C21 N3 Cd1 123(2) . 5_465
C21 N3 C20 118(2) . .
C18 C19 C20 122(2) . .
N3 C20 C19 121(2) . .
C22 C18 C12 121(2) . .
C19 C18 C12 124(2) . .
C19 C18 C22 115(2) . .
N3 C21 C22 125(3) . .
C18A C22A C21A 120.0 . .
C22A C18A C12 122.0(17) . .
C22A C18A C19A 120.0 . .
C19A C18A C12 117.0(17) . .
C20A C19A C18A 120.0 . .
C19A C20A N3A 120.0 . .
C20A N3A Cd1A 121.5(11) . 5_465
C20A N3A C21A 120.0 . .
C21A N3A Cd1A 117.6(11) . 5_465
N3A C21A C22A 120.0 . .
loop_
_geom_bond_atom_site_label_1
_geom_bond_atom_site_label_2
_geom_bond_distance
_geom_bond_site_symmetry_2
Ti1 O4 1.861(7) .
Ti1 O0AA 1.949(6) .
Ti1 N0AA 2.200(8) .
Ti1 N2 2.263(8) .
Ti1 O3 1.834(2) .
Ti1 O1AA 1.860(6) .
O4 C39 1.407(13) .
O0AA C9 1.324(7) .
N0AA C1AA 1.485(12) .
N0AA C2AA 1.479(14) .
N2 C3AA 1.489(12) .
N2 C23 1.497(12) .
O3 Ti1 1.834(2) 8_666
O1AA C24 1.339(7) .
C3AA C7AA 1.502(16) .
C3AA C2AA 1.538(14) .
C23 C25 1.516(11) .
C11 C6AA 1.3900 .
C11 C12 1.3900 .
C6AA C9 1.3900 .
C6AA C14 1.570(10) .
C9 C8 1.3900 .
C8 C13 1.3900 .
C8 C1AA 1.499(11) .
C13 C12 1.3900 .
C12 C18 1.50(2) .
C12 C18A 1.548(18) .
C29 C28 1.3900 .
C29 C25 1.3900 .
C28 C4AA 1.3900 .
C28 C34 1.520(13) .
C28 C34A 1.575(19) .
C4AA C26 1.3900 .
C26 C24 1.3900 .
C26 C30 1.571(14) .
C24 C25 1.3900 .
Cd1 Cd1 3.180(5) 8_666
Cd1 Br1 2.735(5) .
Cd1 Br1 1.725(13) 8_666
Cd1 O5 2.29(2) .
Cd1 C40 2.64(3) .
Cd1 Br1A 3.002(6) .
Cd1 Br1A 2.748(13) 8_666
Cd1 O6 2.41(2) .
Cd1 N4 2.383(14) .
Cd1 N3 2.44(2) 5_565
C14 C15 1.552(14) .
C14 C16 1.484(16) .
C14 C17 1.525(15) .
C7AA C5AA 1.52(2) .
C30 C32 1.501(16) .
C30 C31 1.586(14) .
C30 C33 1.539(16) .
C5 C8AA 1.48(2) .
C5 C5AA 1.52(2) .
C2AA C8AA 1.557(14) .
C22 C18 1.34(4) .
C22 C21 1.33(3) .
Br1 Cd1 1.725(13) 8_666
Br1 Cd1A 2.677(14) 8_666
Br1 Cd1A 2.776(6) .
Br1 Br1A 1.116(8) .
O5 C40 1.28(2) .
Cd1A Br1 2.677(14) 8_666
Cd1A Br1A 2.672(5) .
Cd1A O6A 2.47(3) .
Cd1A O5A 2.177(19) .
Cd1A C40A 2.54(3) .
Cd1A N4A 2.262(18) .
Cd1A N3A 2.37(18) 5_565
C40 O6 1.22(2) .
C40 C41 1.51(2) .
Br1A Cd1 2.748(13) 8_666
O6A C40A 1.26(2) .
O5A C40A 1.35(4) .
C41A C40A 1.508(19) .
C38 C34 1.3900 .
C38 C37 1.3900 .
C34 C35 1.3900 .
C35 C36 1.3900 .
C36 N4 1.3900 .
N4 C37 1.3900 .
N4A C36A 1.3900 .
N4A C37A 1.3900 .
C36A C35A 1.3900 .
C35A C34A 1.3900 .
C34A C38A 1.3900 .
C38A C37A 1.3900 .
N3 Cd1 2.44(2) 5_465
N3 C20 1.30(3) .
N3 C21 1.23(3) .
C19 C20 1.34(4) .
C19 C18 1.33(3) .
C22A C18A 1.3900 .
C22A C21A 1.3900 .
C18A C19A 1.3900 .
C19A C20A 1.3900 .
C20A N3A 1.3900 .
N3A Cd1A 2.368(16) 5_465
N3A C21A 1.3900 .
