#------------------------------------------------------------------------------
#$Date: 2016-02-13 14:50:18 +0200 (Sat, 13 Feb 2016) $
#$Revision: 176428 $
#$URL: svn://www.crystallography.net/cod/cif/7/03/51/7035179.cif $
#------------------------------------------------------------------------------
#
# This file is available in the Crystallography Open Database (COD),
# http://www.crystallography.net/
#
# All data on this site have been placed in the public domain by the
# contributors.
#
data_7035179
loop_
_publ_author_name
'Waitschat, Steve'
'Wharmby, Michael T.'
'Stock, Norbert'
_publ_section_title
;
 Flow-synthesis of carboxylate and phosphonate based metal-organic
 frameworks under non-solvothermal reaction conditions.
;
_journal_issue                   24
_journal_name_full
'Dalton transactions (Cambridge, England : 2003)'
_journal_page_first              11235
_journal_page_last               11240
_journal_paper_doi               10.1039/c5dt01100k
_journal_volume                  44
_journal_year                    2015
_chemical_formula_moiety         'C3 Cd N O4 P, 2.763(O)'
_chemical_formula_sum            'C3 Cd N O6.76 P'
_chemical_formula_weight         301.63
_space_group_IT_number           148
_symmetry_cell_setting           trigonal
_symmetry_space_group_name_Hall  '-R 3'
_symmetry_space_group_name_H-M   'R -3 :H'
_cell_angle_alpha                90
_cell_angle_beta                 90
_cell_angle_gamma                120
_cell_formula_units_Z            18
_cell_length_a                   27.4100(8)
_cell_length_b                   27.4100(8)
_cell_length_c                   6.7279(2)
_cell_measurement_temperature    298
_cell_volume                     4377.5(2)
_diffrn_ambient_temperature      298
_diffrn_measurement_device_type  'Stoe Stadi P'
_diffrn_radiation_probe          x-ray
_diffrn_radiation_type           'Cu K\a~1~'
_diffrn_radiation_wavelength     1.540562
_exptl_crystal_density_diffrn    2.060
_exptl_crystal_density_meas      ?
_exptl_crystal_density_method    'Not measured'
_pd_char_colour                  white
_pd_meas_number_of_points        5733
_pd_proc_2theta_range_inc        0.015
_pd_proc_2theta_range_max        88.98500
_pd_proc_2theta_range_min        3.005
_pd_proc_ls_prof_R_factor        0.0493
_pd_proc_ls_prof_wR_expected     0.0563
_pd_proc_ls_prof_wR_factor       0.0643
_refine_ls_goodness_of_fit_all   1.14125
_refine_ls_number_parameters     0.000000
_refine_ls_number_restraints     21
_refine_ls_R_I_factor            0.0156
_refine_ls_shift/su_max          3.5982631e-015
_reflns_d_resolution_high        1.09473
_reflns_d_resolution_low         13.70501
_reflns_limit_h_max              20
_reflns_limit_h_min              0
_reflns_limit_k_max              21
_reflns_limit_k_min              -24
_reflns_limit_l_max              6
_reflns_limit_l_min              -6
_cod_data_source_file            c5dt01100k2.cif
_cod_data_source_block           STA-12(Cd)-AP.cif
_cod_depositor_comments
;
The following automatic conversions were performed:

'_exptl_crystal_density_meas' value 'Not measured' was changed to '?'
- the value is perceived as not measured.

Automatic conversion script
Id: cif_fix_values 3271 2015-04-21 07:52:19Z andrius 

 Adding full bibliography for 7035179.cif.
;
_cod_original_cell_volume        4377.5(3)
_cod_original_sg_symbol_H-M      R-3
_cod_database_code               7035179
loop_
_symmetry_equiv_pos_as_xyz
'x, y, z '
'-x+y, -x, z '
'-y, x-y, z '
'y, -x+y, -z '
'x-y, x, -z '
'-x, -y, -z '
'x-1/3, y+1/3, z+1/3 '
'-x+y-1/3, -x+1/3, z+1/3 '
'-y-1/3, x-y+1/3, z+1/3 '
'y-1/3, -x+y+1/3, -z+1/3 '
'x-y-1/3, x+1/3, -z+1/3 '
'-x-1/3, -y+1/3, -z+1/3 '
'x+1/3, y-1/3, z-1/3 '
'-x+y+1/3, -x-1/3, z-1/3 '
'-y+1/3, x-y-1/3, z-1/3 '
'y+1/3, -x+y-1/3, -z-1/3 '
'x-y+1/3, x-1/3, -z-1/3 '
'-x+1/3, -y-1/3, -z-1/3 '
loop_
_atom_site_label
_atom_site_type_symbol
_atom_site_symmetry_multiplicity
_atom_site_fract_x
_atom_site_fract_y
_atom_site_fract_z
_atom_site_occupancy
_atom_site_B_iso_or_equiv
Cd1 Cd 0 0.30384(14) 0.03606(14) -0.3202(6) 1 0.92(3)
P1 P 0 0.4273(4) 0.0388(6) -0.470(2) 1 0.92(3)
O1 O 0 0.4815(9) 0.0864(11) -0.538(4) 1 0.92(3)
O2 O 0 0.3962(10) 0.0554(10) -0.322(4) 1 0.92(3)
O3 O 0 0.3901(11) 0.0074(10) -0.645(4) 1 0.92(3)
O100 O 0 0.2104(15) 0.0094(13) -0.238(4) 1 4.8(10)
N1 N 0 0.4590(14) 0.0020(13) -0.130(4) 1 0.92(3)
C1 C 0 0.4406(14) -0.0141(16) -0.344(5) 1 0.92(3)
C2 C 0 0.4510(15) -0.0538(15) -0.052(5) 1 0.92(3)
C3 C 0 0.5223(15) 0.0428(19) -0.155(5) 1 0.92(3)
O101 O 0 0.2824(21) 0.5722(14) 0.281(6) 0.73684 7.2(9)
O102 O 0 0.0835(19) 0.1747(25) 0.823(8) 0.56634 7.2(9)
O103 O 0 0.310(2) 0.592(3) 0.780(6) 0.68641 7.2(9)
O104 O 0 0.2013(16) 0.5218(19) 0.060(6) 0.77439 7.2(9)
loop_
_geom_angle_atom_site_label_1
_geom_angle_atom_site_label_2
_geom_angle_atom_site_label_3
_geom_angle
_geom_angle_site_symmetry_1
_geom_angle_site_symmetry_2
_geom_angle_site_symmetry_3
O3 Cd1 O2 83.2(11) 8_655 1_555 1_555
N1 Cd1 O3 156.4(10) 15_555 1_555 8_655
N1 Cd1 O2 90.5(10) 15_555 1_555 1_555
O100 Cd1 N1 99.1(11) 1_555 1_555 15_555
O100 Cd1 O3 91.8(12) 1_555 1_555 8_655
O100 Cd1 O2 166.0(10) 1_555 1_555 1_555
O3 Cd1 O100 88.5(8) 15_556 1_555 1_555
O3 Cd1 N1 108.4(12) 15_556 1_555 15_555
O3 Cd1 O3 92.6(12) 15_556 1_555 8_655
O3 Cd1 O2 78.7(8) 15_556 1_555 1_555
O2 Cd1 O3 170.8(12) 15_555 1_555 15_556
O2 Cd1 O100 91.3(8) 15_555 1_555 1_555
O2 Cd1 N1 80.7(12) 15_555 1_555 15_555
O2 Cd1 O3 78.2(10) 15_555 1_555 8_655
O2 Cd1 O2 100.5(10) 15_555 1_555 1_555
O3 P1 O1 110.9(17) 1_555 1_555 1_555
O2 P1 O3 111.1(17) 1_555 1_555 1_555
O2 P1 O1 114.0(18) 1_555 1_555 1_555
C1 P1 O2 106.9(18) 1_555 1_555 1_555
C1 P1 O3 104.4(18) 1_555 1_555 1_555
C1 P1 O1 108.9(18) 1_555 1_555 1_555
C2 N1 C1 100(3) 1_555 1_555 1_555
C3 N1 C2 108(4) 1_555 1_555 1_555
C3 N1 C1 101(3) 1_555 1_555 1_555
P1 C1 N1 112(3) 1_555 1_555 1_555
C3 C2 N1 107(3) 6_655 1_555 1_555
N1 C3 C2 107(3) 1_555 1_555 6_655
loop_
_geom_bond_atom_site_label_1
_geom_bond_atom_site_label_2
_geom_bond_distance
_geom_bond_site_symmetry_1
_geom_bond_site_symmetry_2
Cd1 O2 2.31(3) 1_555 1_555
Cd1 O2 2.38(3) 1_555 15_555
Cd1 O3 2.32(2) 1_555 8_655
Cd1 O3 2.36(3) 1_555 15_556
Cd1 O100 2.35(4) 1_555 1_555
Cd1 N1 2.33(4) 1_555 15_555
P1 O1 1.48(2) 1_555 1_555
P1 O2 1.52(3) 1_555 1_555
P1 O3 1.51(3) 1_555 1_555
P1 C1 1.87(5) 1_555 1_555
O1 P1 1.48(2) 1_555 1_555
N1 C1 1.52(4) 1_555 1_555
N1 C2 1.53(6) 1_555 1_555
N1 C3 1.53(5) 1_555 1_555
C2 C3 1.53(5) 1_555 6_655
loop_
_pd_proc_point_id
_pd_meas_2theta_scan
_pd_proc_intensity_total
_pd_calc_intensity_total
_pd_proc_ls_weight
1 3.00500 604.97400 575.00000 0.00174
2 3.02000 604.80791 617.00000 0.00162
3 3.03500 604.64753 616.00000 0.00162
4 3.05000 604.49275 607.00000 0.00165
5 3.06500 604.34347 603.00000 0.00166
6 3.08000 604.19957 585.00000 0.00171
7 3.09500 604.06097 601.00000 0.00166
8 3.11000 603.92755 689.00000 0.00145
9 3.12500 603.79921 654.00000 0.00153
10 3.14000 603.67587 597.00000 0.00168
11 3.15500 603.55741 647.00000 0.00155
12 3.17000 603.44376 591.00000 0.00169
13 3.18500 603.33481 567.00000 0.00176
14 3.20000 603.23047 576.00000 0.00174
15 3.21500 603.13065 611.00000 0.00164
16 3.23000 603.03527 615.00000 0.00163
17 3.24500 602.94424 587.00000 0.00170
18 3.26000 602.85747 579.00000 0.00173
19 3.27500 602.77489 609.00000 0.00164
20 3.29000 602.69640 663.00000 0.00151
21 3.30500 602.62192 623.00000 0.00161
22 3.32000 602.55139 577.00000 0.00173
23 3.33500 602.48473 580.00000 0.00172
24 3.35000 602.42185 572.00000 0.00175
25 3.36500 602.36268 575.00000 0.00174
26 3.38000 602.30716 573.00000 0.00175
27 3.39500 602.25522 646.00000 0.00155
28 3.41000 602.20678 628.00000 0.00159
29 3.42500 602.16177 624.00000 0.00160
30 3.44000 602.12015 586.00000 0.00171
31 3.45500 602.08183 583.00000 0.00172
32 3.47000 602.04676 594.00000 0.00168
33 3.48500 602.01488 618.00000 0.00162
34 3.50000 601.98614 620.00000 0.00161
35 3.51500 601.96047 622.00000 0.00161
36 3.53000 601.93783 620.00000 0.00161
37 3.54500 601.91847 567.00000 0.00176
38 3.56000 601.90254 573.00000 0.00175
39 3.57500 601.89002 614.00000 0.00163
40 3.59000 601.88091 591.00000 0.00169
41 3.60500 601.87521 606.00000 0.00165
42 3.62000 601.87292 632.00000 0.00158
43 3.63500 601.87406 626.00000 0.00160
44 3.65000 601.87867 630.00000 0.00159
45 3.66500 601.88677 618.00000 0.00162
46 3.68000 601.89843 587.00000 0.00170
47 3.69500 601.91371 572.00000 0.00175
48 3.71000 601.93272 637.00000 0.00157
49 3.72500 601.95557 642.00000 0.00156
50 3.74000 601.98242 558.00000 0.00179
51 3.75500 602.01347 606.00000 0.00165
52 3.77000 602.04901 570.00000 0.00175
53 3.78500 602.08939 614.00000 0.00163
54 3.80000 602.13511 581.00000 0.00172
55 3.81500 602.18691 589.00000 0.00170
56 3.83000 602.24588 614.00000 0.00163
57 3.84500 602.31380 575.00000 0.00174
58 3.86000 602.39403 612.00000 0.00163
59 3.87500 602.49439 604.00000 0.00166
60 3.89000 602.65212 608.00000 0.00164
61 3.90500 602.80850 577.00000 0.00173
62 3.92000 602.85395 633.00000 0.00158
63 3.93500 602.90172 598.00000 0.00167
64 3.95000 602.95181 621.00000 0.00161
65 3.96500 603.00423 600.00000 0.00167
66 3.98000 603.05898 617.00000 0.00162
67 3.99500 603.11609 640.00000 0.00156
68 4.01000 603.17556 620.00000 0.00161
69 4.02500 603.23743 624.00000 0.00160
70 4.04000 603.30171 604.00000 0.00166
71 4.05500 603.36843 589.00000 0.00170
72 4.07000 603.43761 589.00000 0.00170
73 4.08500 603.50930 600.00000 0.00167
74 4.10000 603.58353 585.00000 0.00171
75 4.11500 603.66033 623.00000 0.00161
76 4.13000 603.73976 592.00000 0.00169
77 4.14500 603.82186 607.00000 0.00165
78 4.16000 603.90669 589.00000 0.00170
79 4.17500 603.99429 605.00000 0.00165
80 4.19000 604.08473 589.00000 0.00170
81 4.20500 604.17807 566.00000 0.00177
82 4.22000 604.27439 578.00000 0.00173
83 4.23500 604.37375 603.00000 0.00166
84 4.25000 604.47624 642.00000 0.00156
85 4.26500 604.58194 631.00000 0.00158
86 4.28000 604.69094 623.00000 0.00161
87 4.29500 604.80334 615.00000 0.00163
88 4.31000 604.91923 574.00000 0.00174
89 4.32500 605.03872 635.00000 0.00157
90 4.34000 605.16192 629.00000 0.00159
91 4.35500 605.28896 619.00000 0.00162
92 4.37000 605.41995 595.00000 0.00168
93 4.38500 605.55504 612.00000 0.00163
94 4.40000 605.69436 594.00000 0.00168
95 4.41500 605.83806 588.00000 0.00170
96 4.43000 605.98630 608.00000 0.00164
97 4.44500 606.13923 634.00000 0.00158
98 4.46000 606.29704 625.00000 0.00160
99 4.47500 606.45990 626.00000 0.00160
100 4.49000 606.62801 568.00000 0.00176
101 4.50500 606.80156 627.00000 0.00159
102 4.52000 606.98078 655.00000 0.00153
103 4.53500 607.16588 595.00000 0.00168
104 4.55000 607.35709 643.00000 0.00156
105 4.56500 607.55467 650.00000 0.00154
106 4.58000 607.75888 655.00000 0.00153
107 4.59500 607.96998 649.00000 0.00154
108 4.61000 608.18827 607.00000 0.00165
109 4.62500 608.41404 577.00000 0.00173
110 4.64000 608.64762 598.00000 0.00167
111 4.65500 608.88935 610.00000 0.00164
112 4.67000 609.13956 611.00000 0.00164
113 4.68500 609.39864 645.00000 0.00155
114 4.70000 609.66698 582.00000 0.00172
115 4.71500 609.94498 588.00000 0.00170
116 4.73000 610.23309 608.00000 0.00164
117 4.74500 610.53175 613.00000 0.00163
118 4.76000 610.84145 625.00000 0.00160
119 4.77500 611.16270 628.00000 0.00159
120 4.79000 611.49604 623.00000 0.00161
121 4.80500 611.84202 601.00000 0.00166
122 4.82000 612.20125 604.00000 0.00166
123 4.83500 612.57437 610.00000 0.00164
124 4.85000 612.96202 610.00000 0.00164
125 4.86500 613.36493 601.00000 0.00166
126 4.88000 613.78384 574.00000 0.00174
127 4.89500 614.21953 623.00000 0.00161
128 4.91000 614.67285 603.00000 0.00166
129 4.92500 615.14468 603.00000 0.00166
130 4.94000 615.63596 612.00000 0.00163
131 4.95500 616.14769 556.00000 0.00180
132 4.97000 616.68093 569.00000 0.00176
133 4.98500 617.23680 621.00000 0.00161
134 5.00000 617.81651 632.00000 0.00158
135 5.01500 618.42132 637.00000 0.00157
136 5.03000 619.05260 611.00000 0.00164
137 5.04500 619.71179 657.00000 0.00152
138 5.06000 620.40044 599.00000 0.00167
139 5.07500 621.12020 609.00000 0.00164
140 5.09000 621.87282 614.00000 0.00163
141 5.10500 622.66020 609.00000 0.00164
142 5.12000 623.48436 596.00000 0.00168
143 5.13500 624.34747 566.00000 0.00177
144 5.15000 625.25186 622.00000 0.00161
145 5.16500 626.20003 615.00000 0.00163
146 5.18000 627.19468 671.00000 0.00149
147 5.19500 628.23871 623.00000 0.00161
148 5.21000 629.33526 606.00000 0.00165
149 5.22500 630.48770 624.00000 0.00160
150 5.24000 631.69970 696.00000 0.00144
151 5.25500 632.97524 653.00000 0.00153
152 5.27000 634.31863 645.00000 0.00155
153 5.28500 635.73456 587.00000 0.00170
154 5.30000 637.22814 579.00000 0.00173
155 5.31500 638.80496 603.00000 0.00166
156 5.33000 640.47112 629.00000 0.00159
157 5.34500 642.23333 671.00000 0.00149
158 5.36000 644.09895 632.00000 0.00158
159 5.37500 646.07609 640.00000 0.00156
160 5.39000 648.17374 671.00000 0.00149
161 5.40500 650.40184 654.00000 0.00153
162 5.42000 652.77149 652.00000 0.00153
163 5.43500 655.29514 683.00000 0.00146
164 5.45000 657.98740 674.00000 0.00148
165 5.46500 660.86036 664.00000 0.00151
166 5.48000 663.93357 716.00000 0.00140
167 5.49500 667.22675 685.00000 0.00146
168 5.51000 670.76232 687.00000 0.00146
169 5.52500 674.56595 712.00000 0.00140
170 5.54000 678.66714 682.00000 0.00147
171 5.55500 683.10008 718.00000 0.00139
172 5.57000 687.90461 710.00000 0.00141
173 5.58500 693.12755 678.00000 0.00147
174 5.60000 698.82435 653.00000 0.00153
175 5.61500 705.06135 684.00000 0.00146
176 5.63000 711.91866 754.00000 0.00133
177 5.64500 719.49415 773.00000 0.00129
178 5.66000 727.90880 725.00000 0.00138
179 5.67500 737.31403 786.00000 0.00127
180 5.69000 747.90170 807.00000 0.00124
181 5.70500 759.91744 835.00000 0.00120
182 5.72000 773.67773 792.00000 0.00126
183 5.73500 789.58857 798.00000 0.00125
184 5.75000 808.15814 856.00000 0.00117
185 5.76500 829.98347 848.00000 0.00118
186 5.78000 855.67874 901.00000 0.00111
187 5.79500 885.73228 923.00000 0.00108
188 5.81000 920.36044 956.00000 0.00105
189 5.82500 959.48224 959.00000 0.00104
190 5.84000 1002.83591 992.00000 0.00101
191 5.85500 1050.12592 1072.00000 0.00093
192 5.87000 1101.11237 1082.00000 0.00092
193 5.88500 1155.64016 1062.00000 0.00094
194 5.90000 1213.63708 1167.00000 0.00086
195 5.91500 1275.10248 1226.00000 0.00082
196 5.93000 1340.09582 1271.00000 0.00079
197 5.94500 1408.72798 1349.00000 0.00074
198 5.96000 1481.15570 1376.00000 0.00073
199 5.97500 1557.57859 1447.00000 0.00069
200 5.99000 1638.23827 1507.00000 0.00066
201 6.00500 1723.41937 1547.00000 0.00065
202 6.02000 1813.45195 1758.00000 0.00057
203 6.03500 1908.71549 1788.00000 0.00056
204 6.05000 2009.64422 1881.00000 0.00053
205 6.06500 2116.73401 1932.00000 0.00052
206 6.08000 2230.55095 2110.00000 0.00047
207 6.09500 2351.74188 2296.00000 0.00044
208 6.11000 2481.04713 2442.00000 0.00041
209 6.12500 2619.31620 2550.00000 0.00039
210 6.14000 2767.52528 2708.00000 0.00037
211 6.15500 2926.79594 2929.00000 0.00034
212 6.17000 3098.43173 3042.00000 0.00033
213 6.18500 3283.93891 3199.00000 0.00031
214 6.20000 3485.06413 3405.00000 0.00029
215 6.21500 3703.83229 3658.00000 0.00027
216 6.23000 3942.58453 3891.00000 0.00026
217 6.24500 4204.00877 4057.00000 0.00025
218 6.26000 4491.14661 4255.00000 0.00024
219 6.27500 4807.34279 4703.00000 0.00021
220 6.29000 5156.06819 5315.00000 0.00019
221 6.30500 5540.47705 5698.00000 0.00018
222 6.32000 5962.42111 5923.00000 0.00017
223 6.33500 6420.38383 6378.00000 0.00016
224 6.35000 6905.35986 6926.00000 0.00014
225 6.36500 7393.18541 7522.00000 0.00013
226 6.38000 7832.11897 7733.00000 0.00013
227 6.39500 8128.95289 8514.00000 0.00012
228 6.41000 8151.80339 8483.00000 0.00012
229 6.42500 7785.28293 8077.00000 0.00012
230 6.44000 7034.95239 7003.00000 0.00014
231 6.45500 6064.18721 6158.00000 0.00016
232 6.47000 5083.37112 5196.00000 0.00019
233 6.48500 4226.35504 4257.00000 0.00023
234 6.50000 3532.91552 3494.00000 0.00029
235 6.51500 2990.44225 3026.00000 0.00033
236 6.53000 2569.98182 2543.00000 0.00039
237 6.54500 2242.96943 2165.00000 0.00046
238 6.56000 1986.21731 1983.00000 0.00050
239 6.57500 1782.20881 1799.00000 0.00056
240 6.59000 1618.05591 1636.00000 0.00061
241 6.60500 1484.33272 1480.00000 0.00068
242 6.62000 1374.11899 1409.00000 0.00071
243 6.63500 1282.29033 1314.00000 0.00076
244 6.65000 1205.01113 1257.00000 0.00080
245 6.66500 1139.37707 1149.00000 0.00087
246 6.68000 1083.16319 1065.00000 0.00094
247 6.69500 1034.64553 1045.00000 0.00096
248 6.71000 992.47374 975.00000 0.00103
249 6.72500 955.57917 937.00000 0.00107
250 6.74000 923.10791 870.00000 0.00115
251 6.75500 894.37144 862.00000 0.00116
252 6.77000 868.80986 800.00000 0.00125
253 6.78500 845.96424 779.00000 0.00128
254 6.80000 825.45566 786.00000 0.00127
255 6.81500 806.96904 771.00000 0.00130
256 6.83000 790.24070 714.00000 0.00140
257 6.84500 775.04864 750.00000 0.00133
258 6.86000 761.20489 718.00000 0.00139
259 6.87500 748.54942 753.00000 0.00133
260 6.89000 736.94531 722.00000 0.00139
261 6.90500 726.27485 738.00000 0.00136
262 6.92000 716.43641 704.00000 0.00142
263 6.93500 707.34185 658.00000 0.00152
264 6.95000 698.91443 683.00000 0.00146
265 6.96500 691.08711 633.00000 0.00158
266 6.98000 683.80107 603.00000 0.00166
267 6.99500 677.00454 706.00000 0.00142
268 7.01000 670.65184 619.00000 0.00162
269 7.02500 664.70249 645.00000 0.00155
270 7.04000 659.12055 600.00000 0.00167
271 7.05500 653.87400 630.00000 0.00159
272 7.07000 648.93426 634.00000 0.00158
273 7.08500 644.27572 567.00000 0.00176
274 7.10000 639.87542 629.00000 0.00159
275 7.11500 635.71268 655.00000 0.00153
276 7.13000 631.76887 643.00000 0.00156
277 7.14500 628.02717 598.00000 0.00167
278 7.16000 624.47231 610.00000 0.00164
279 7.17500 621.09049 641.00000 0.00156
280 7.19000 617.86913 611.00000 0.00164
281 7.20500 614.79681 597.00000 0.00168
282 7.22000 611.86310 598.00000 0.00167
283 7.23500 609.05850 578.00000 0.00173
284 7.25000 606.37427 620.00000 0.00161
285 7.26500 603.80243 642.00000 0.00156
286 7.28000 601.33564 604.00000 0.00166
287 7.29500 598.96717 608.00000 0.00164
288 7.31000 596.69080 573.00000 0.00175
289 7.32500 594.50084 605.00000 0.00165
290 7.34000 592.39201 580.00000 0.00172
291 7.35500 590.35944 593.00000 0.00169
292 7.37000 588.39866 562.00000 0.00178
293 7.38500 586.50550 586.00000 0.00171
294 7.40000 584.67616 584.00000 0.00171
295 7.41500 582.90711 588.00000 0.00170
296 7.43000 581.19520 561.00000 0.00178
297 7.44500 579.53772 635.00000 0.00157
298 7.46000 577.93398 571.00000 0.00175
299 7.47500 576.37722 594.00000 0.00168
300 7.49000 574.86049 581.00000 0.00172
301 7.50500 573.38675 624.00000 0.00160
302 7.52000 571.95380 619.00000 0.00162
303 7.53500 570.55958 574.00000 0.00174
304 7.55000 569.20215 599.00000 0.00167
305 7.56500 567.87972 590.00000 0.00169
306 7.58000 566.59058 614.00000 0.00163
307 7.59500 565.33313 572.00000 0.00175
308 7.61000 564.10589 550.00000 0.00182
309 7.62500 562.90745 564.00000 0.00177
310 7.64000 561.73647 562.00000 0.00178
311 7.65500 560.59173 609.00000 0.00164
312 7.67000 559.47203 578.00000 0.00173
313 7.68500 558.37629 577.00000 0.00173
314 7.70000 557.30346 561.00000 0.00178
315 7.71500 556.25255 566.00000 0.00177
316 7.73000 555.22263 572.00000 0.00175
317 7.74500 554.21283 571.00000 0.00175
318 7.76000 553.22232 571.00000 0.00175
319 7.77500 552.25031 563.00000 0.00178
320 7.79000 551.29607 558.00000 0.00179
321 7.80500 550.35888 563.00000 0.00178
322 7.82000 549.43810 562.00000 0.00178
323 7.83500 548.53307 549.00000 0.00182
324 7.85000 547.64321 569.00000 0.00176
325 7.86500 546.76795 547.00000 0.00183
326 7.88000 545.90676 537.00000 0.00186
327 7.89500 545.05911 560.00000 0.00179
328 7.91000 544.22454 552.00000 0.00181
329 7.92500 543.40257 581.00000 0.00172
330 7.94000 542.59277 559.00000 0.00179
331 7.95500 541.79473 539.00000 0.00186
332 7.97000 541.00805 498.00000 0.00201
333 7.98500 540.23235 536.00000 0.00187
334 8.00000 539.46728 551.00000 0.00181
335 8.01500 538.71249 549.00000 0.00182
336 8.03000 537.96767 511.00000 0.00196
337 8.04500 537.23250 543.00000 0.00184
338 8.06000 536.50669 570.00000 0.00175
339 8.07500 535.78996 531.00000 0.00188
340 8.09000 535.08205 544.00000 0.00184
341 8.10500 534.38271 537.00000 0.00186
342 8.12000 533.69168 514.00000 0.00195
343 8.13500 533.00874 507.00000 0.00197
344 8.15000 532.33367 539.00000 0.00186
345 8.16500 531.66626 499.00000 0.00200
346 8.18000 531.00632 520.00000 0.00192
347 8.19500 530.35365 513.00000 0.00195
348 8.21000 529.70807 478.00000 0.00209
349 8.22500 529.06941 518.00000 0.00193
350 8.24000 528.43750 530.00000 0.00189
351 8.25500 527.81219 517.00000 0.00193
352 8.27000 527.19333 527.00000 0.00190
353 8.28500 526.58078 497.00000 0.00201
354 8.30000 525.97440 526.00000 0.00190
355 8.31500 525.37406 524.00000 0.00191
356 8.33000 524.77964 552.00000 0.00181
357 8.34500 524.19103 531.00000 0.00188
358 8.36000 523.60811 536.00000 0.00187
359 8.37500 523.03077 554.00000 0.00181
360 8.39000 522.45893 549.00000 0.00182
361 8.40500 521.89248 561.00000 0.00178
362 8.42000 521.33133 521.00000 0.00192
363 8.43500 520.77540 525.00000 0.00190
364 8.45000 520.22461 492.00000 0.00203
365 8.46500 519.67889 510.00000 0.00196
366 8.48000 519.13817 580.00000 0.00172
367 8.49500 518.60239 529.00000 0.00189
368 8.51000 518.07147 557.00000 0.00180
369 8.52500 517.54538 525.00000 0.00190
370 8.54000 517.02404 539.00000 0.00186
371 8.55500 516.50741 502.00000 0.00199
372 8.57000 515.99545 517.00000 0.00193
373 8.58500 515.48811 535.00000 0.00187
374 8.60000 514.98537 516.00000 0.00194
375 8.61500 514.48718 530.00000 0.00189
376 8.63000 513.99353 558.00000 0.00179
377 8.64500 513.50441 552.00000 0.00181
378 8.66000 513.01983 498.00000 0.00201
379 8.67500 512.53987 515.00000 0.00194
380 8.69000 512.06510 525.00000 0.00190
381 8.70500 511.59421 572.00000 0.00175
382 8.72000 511.12656 531.00000 0.00188
383 8.73500 510.66322 511.00000 0.00196
384 8.75000 510.20417 544.00000 0.00184
385 8.76500 509.74941 515.00000 0.00194
386 8.78000 509.29893 490.00000 0.00204
387 8.79500 508.85273 514.00000 0.00195
388 8.81000 508.41080 535.00000 0.00187
389 8.82500 507.97315 502.00000 0.00199
390 8.84000 507.53978 506.00000 0.00198
391 8.85500 507.11069 540.00000 0.00185
392 8.87000 506.68590 558.00000 0.00179
393 8.88500 506.26541 505.00000 0.00198
394 8.90000 505.84924 533.00000 0.00188
395 8.91500 505.43741 519.00000 0.00193
396 8.93000 505.02994 489.00000 0.00204
397 8.94500 504.62685 515.00000 0.00194
398 8.96000 504.22816 527.00000 0.00190
399 8.97500 503.83391 521.00000 0.00192
400 8.99000 503.44412 514.00000 0.00195
401 9.00500 503.05883 504.00000 0.00198
402 9.02000 502.67807 503.00000 0.00199
403 9.03500 502.30190 479.00000 0.00209
404 9.05000 501.93033 494.00000 0.00202
405 9.06500 501.56344 479.00000 0.00209
406 9.08000 501.20137 504.00000 0.00198
407 9.09500 500.84429 519.00000 0.00193
408 9.11000 500.49229 523.00000 0.00191
409 9.12500 500.14545 516.00000 0.00194
410 9.14000 499.80388 520.00000 0.00192
411 9.15500 499.46769 518.00000 0.00193
412 9.17000 499.13701 494.00000 0.00202
413 9.18500 498.81200 480.00000 0.00208
414 9.20000 498.49284 492.00000 0.00203
415 9.21500 498.17974 531.00000 0.00188
416 9.23000 497.87302 509.00000 0.00196
417 9.24500 497.57309 471.00000 0.00212
418 9.26000 497.28063 485.00000 0.00206
419 9.27500 496.99695 512.00000 0.00195
420 9.29000 496.72593 555.00000 0.00180
421 9.30500 496.48060 529.00000 0.00189
422 9.32000 496.20405 491.00000 0.00204
423 9.33500 495.93368 496.00000 0.00202
424 9.35000 495.66961 522.00000 0.00192
425 9.36500 495.41199 522.00000 0.00192
426 9.38000 495.16095 486.00000 0.00206
427 9.39500 494.91664 528.00000 0.00189
428 9.41000 494.67924 525.00000 0.00190
429 9.42500 494.44890 524.00000 0.00191
430 9.44000 494.22580 516.00000 0.00194
431 9.45500 494.01013 526.00000 0.00190
432 9.47000 493.80208 511.00000 0.00196
433 9.48500 493.60185 497.00000 0.00201
434 9.50000 493.40967 478.00000 0.00209
435 9.51500 493.22574 513.00000 0.00195
436 9.53000 493.05032 501.00000 0.00200
437 9.54500 492.88364 464.00000 0.00216
438 9.56000 492.72597 489.00000 0.00204
439 9.57500 492.57759 497.00000 0.00201
440 9.59000 492.43879 506.00000 0.00198
441 9.60500 492.30986 497.00000 0.00201
442 9.62000 492.19114 517.00000 0.00193
443 9.63500 492.08295 493.00000 0.00203
444 9.65000 491.98566 469.00000 0.00213
445 9.66500 491.89965 499.00000 0.00200
446 9.68000 491.82529 496.00000 0.00202
447 9.69500 491.76303 495.00000 0.00202
448 9.71000 491.71330 515.00000 0.00194
449 9.72500 491.67656 509.00000 0.00196
450 9.74000 491.65331 478.00000 0.00209
451 9.75500 491.64407 475.00000 0.00211
452 9.77000 491.64940 456.00000 0.00219
453 9.78500 491.66988 498.00000 0.00201
454 9.80000 491.70613 504.00000 0.00198
455 9.81500 491.75881 509.00000 0.00196
456 9.83000 491.82861 445.00000 0.00225
457 9.84500 491.91628 442.00000 0.00226
458 9.86000 492.02261 465.00000 0.00215
459 9.87500 492.14843 512.00000 0.00195
460 9.89000 492.29463 491.00000 0.00204
461 9.90500 492.46217 542.00000 0.00185
462 9.92000 492.65204 527.00000 0.00190
463 9.93500 492.86534 496.00000 0.00202
464 9.95000 493.10322 534.00000 0.00187
465 9.96500 493.36689 515.00000 0.00194
466 9.98000 493.65769 481.00000 0.00208
467 9.99500 493.97701 509.00000 0.00196
468 10.01000 494.32637 515.00000 0.00194
469 10.02500 494.70739 520.00000 0.00192
470 10.04000 495.12179 520.00000 0.00192
471 10.05500 495.57146 508.00000 0.00197
472 10.07000 496.05840 471.00000 0.00212
473 10.08500 496.58477 488.00000 0.00205
474 10.10000 497.15292 454.00000 0.00220
475 10.11500 497.76535 475.00000 0.00211
476 10.13000 498.42480 500.00000 0.00200
477 10.14500 499.13421 501.00000 0.00200
478 10.16000 499.89678 498.00000 0.00201
479 10.17500 500.71598 509.00000 0.00196
480 10.19000 501.59558 508.00000 0.00197
481 10.20500 502.53970 529.00000 0.00189
482 10.22000 503.55280 549.00000 0.00182
483 10.23500 504.63978 524.00000 0.00191
484 10.25000 505.80599 547.00000 0.00183
485 10.26500 507.05729 517.00000 0.00193
486 10.28000 508.40013 523.00000 0.00191
487 10.29500 509.84157 551.00000 0.00181
488 10.31000 511.38944 510.00000 0.00196
489 10.32500 513.05236 581.00000 0.00172
490 10.34000 514.83987 556.00000 0.00180
491 10.35500 516.76258 523.00000 0.00191
492 10.37000 518.83228 513.00000 0.00195
493 10.38500 521.06211 564.00000 0.00177
494 10.40000 523.46680 568.00000 0.00176
495 10.41500 526.06283 564.00000 0.00177
496 10.43000 528.86878 587.00000 0.00170
497 10.44500 531.90560 560.00000 0.00179
498 10.46000 535.19705 550.00000 0.00182
499 10.47500 538.77013 554.00000 0.00181
500 10.49000 542.65565 522.00000 0.00192
501 10.50500 546.88896 590.00000 0.00169
502 10.52000 551.51077 661.00000 0.00151
503 10.53500 556.56821 631.00000 0.00158
504 10.55000 562.11615 666.00000 0.00150
505 10.56500 568.21890 615.00000 0.00163
506 10.58000 574.95235 620.00000 0.00161
507 10.59500 582.40681 579.00000 0.00173
508 10.61000 590.69084 594.00000 0.00168
509 10.62500 599.93634 623.00000 0.00161
510 10.64000 610.30538 663.00000 0.00151
511 10.65500 621.99946 667.00000 0.00150
512 10.67000 635.27157 708.00000 0.00141
513 10.68500 650.44176 740.00000 0.00135
514 10.70000 667.91628 742.00000 0.00135
515 10.71500 688.21001 815.00000 0.00123
516 10.73000 711.96952 843.00000 0.00119
517 10.74500 739.99027 855.00000 0.00117
518 10.76000 773.21214 867.00000 0.00115
519 10.77500 812.66801 916.00000 0.00109
520 10.79000 859.36426 995.00000 0.00101
521 10.80500 914.11890 1018.00000 0.00098
522 10.82000 977.45413 1099.00000 0.00091
523 10.83500 1049.62942 1158.00000 0.00086
524 10.85000 1130.78573 1270.00000 0.00079
525 10.86500 1221.09953 1293.00000 0.00077
526 10.88000 1320.88679 1321.00000 0.00076
527 10.89500 1430.65862 1524.00000 0.00066
528 10.91000 1551.15178 1596.00000 0.00063
529 10.92500 1683.35223 1804.00000 0.00055
530 10.94000 1828.52002 1885.00000 0.00053
531 10.95500 1988.18585 1964.00000 0.00051
532 10.97000 2164.21113 2202.00000 0.00045
533 10.98500 2358.71606 2529.00000 0.00040
534 11.00000 2573.98140 2655.00000 0.00038
535 11.01500 2812.19605 2949.00000 0.00034
536 11.03000 3074.97475 2981.00000 0.00034
537 11.04500 3362.52258 3261.00000 0.00031
538 11.06000 3672.25840 3640.00000 0.00027
539 11.07500 3996.60383 3900.00000 0.00026
540 11.09000 4319.55635 4253.00000 0.00024
541 11.10500 4611.96209 4472.00000 0.00022
542 11.12000 4827.16918 4655.00000 0.00021
543 11.13500 4903.45078 4649.00000 0.00022
544 11.15000 4784.34625 4507.00000 0.00022
545 11.16500 4457.29212 4167.00000 0.00024
546 11.18000 3977.20823 3800.00000 0.00026
547 11.19500 3438.93493 3337.00000 0.00030
548 11.21000 2924.58097 2809.00000 0.00036
549 11.22500 2477.74221 2434.00000 0.00041
550 11.24000 2109.83431 2161.00000 0.00046
551 11.25500 1815.36437 1835.00000 0.00054
552 11.27000 1582.78858 1615.00000 0.00062
553 11.28500 1399.83208 1360.00000 0.00074
554 11.30000 1255.55920 1263.00000 0.00079
555 11.31500 1140.96740 1216.00000 0.00082
556 11.33000 1048.97920 1089.00000 0.00092
557 11.34500 974.20136 1018.00000 0.00098
558 11.36000 912.60951 953.00000 0.00105
559 11.37500 861.23434 913.00000 0.00110
560 11.39000 817.88823 879.00000 0.00114
561 11.40500 780.94745 823.00000 0.00122
562 11.42000 749.18992 753.00000 0.00133
563 11.43500 721.67995 751.00000 0.00133
564 11.45000 697.68856 713.00000 0.00140
565 11.46500 676.63885 668.00000 0.00150
566 11.48000 658.06838 687.00000 0.00146
567 11.49500 641.60132 616.00000 0.00162
568 11.51000 626.93103 609.00000 0.00164
569 11.52500 613.80443 618.00000 0.00162
570 11.54000 602.01127 575.00000 0.00174
571 11.55500 591.37576 594.00000 0.00168
572 11.57000 581.75009 589.00000 0.00170
573 11.58500 573.00927 560.00000 0.00179
574 11.60000 565.04702 544.00000 0.00184
575 11.61500 557.77255 570.00000 0.00175
576 11.63000 551.10795 569.00000 0.00176
577 11.64500 544.98603 552.00000 0.00181
578 11.66000 539.34862 488.00000 0.00205
579 11.67500 534.14518 480.00000 0.00208
580 11.69000 529.33159 529.00000 0.00189
581 11.70500 524.86923 511.00000 0.00196
582 11.72000 520.72417 466.00000 0.00215
583 11.73500 516.86652 514.00000 0.00195
584 11.75000 513.26982 520.00000 0.00192
585 11.76500 509.91064 464.00000 0.00216
586 11.78000 506.76814 468.00000 0.00214
587 11.79500 503.82373 453.00000 0.00221
588 11.81000 501.06080 481.00000 0.00208
589 11.82500 498.46448 477.00000 0.00210
590 11.84000 496.02140 456.00000 0.00219
591 11.85500 493.71955 459.00000 0.00218
592 11.87000 491.54808 493.00000 0.00203
593 11.88500 489.49719 459.00000 0.00218
594 11.90000 487.55801 474.00000 0.00211
595 11.91500 485.72250 446.00000 0.00224
596 11.93000 483.98336 421.00000 0.00238
597 11.94500 482.33394 447.00000 0.00224
598 11.96000 480.76819 442.00000 0.00226
599 11.97500 479.28071 467.00000 0.00214
600 11.99000 477.86605 461.00000 0.00217
601 12.00500 476.51984 423.00000 0.00236
602 12.02000 475.23783 433.00000 0.00231
603 12.03500 474.01614 441.00000 0.00227
604 12.05000 472.85123 445.00000 0.00225
605 12.06500 471.73982 426.00000 0.00235
606 12.08000 470.67891 425.00000 0.00235
607 12.09500 469.66576 458.00000 0.00218
608 12.11000 468.69784 458.00000 0.00218
609 12.12500 467.77282 429.00000 0.00233
610 12.14000 466.88859 449.00000 0.00223
611 12.15500 466.04320 485.00000 0.00206
612 12.17000 465.23489 450.00000 0.00222
613 12.18500 464.46204 401.00000 0.00249
614 12.20000 463.72319 410.00000 0.00244
615 12.21500 463.01703 446.00000 0.00224
616 12.23000 462.34240 440.00000 0.00227
617 12.24500 461.69827 427.00000 0.00234
618 12.26000 461.08375 437.00000 0.00229
619 12.27500 460.49810 437.00000 0.00229
620 12.29000 459.94074 446.00000 0.00224
621 12.30500 459.41122 456.00000 0.00219
622 12.32000 458.90927 454.00000 0.00220
623 12.33500 458.43481 442.00000 0.00226
624 12.35000 457.98796 445.00000 0.00225
625 12.36500 457.56908 471.00000 0.00212
626 12.38000 457.17881 452.00000 0.00221
627 12.39500 456.81803 448.00000 0.00223
628 12.41000 456.48791 468.00000 0.00214
629 12.42500 456.19035 457.00000 0.00219
630 12.44000 455.92795 436.00000 0.00229
631 12.45500 455.70417 443.00000 0.00226
632 12.47000 455.52361 437.00000 0.00229
633 12.48500 455.39223 442.00000 0.00226
634 12.50000 455.31780 431.00000 0.00232
635 12.51500 455.31015 436.00000 0.00229
636 12.53000 455.38153 434.00000 0.00230
637 12.54500 455.54647 431.00000 0.00232
638 12.56000 455.82121 447.00000 0.00224
639 12.57500 456.22199 462.00000 0.00216
640 12.59000 456.76289 448.00000 0.00223
641 12.60500 457.45427 428.00000 0.00234
642 12.62000 458.30315 488.00000 0.00205
643 12.63500 459.31520 460.00000 0.00217
644 12.65000 460.49712 465.00000 0.00215
645 12.66500 461.85840 475.00000 0.00211
646 12.68000 463.41236 438.00000 0.00228
647 12.69500 465.17660 435.00000 0.00230
648 12.71000 467.17293 432.00000 0.00231
649 12.72500 469.42640 431.00000 0.00232
650 12.74000 471.96308 433.00000 0.00231
651 12.75500 474.80553 446.00000 0.00224
652 12.77000 477.96522 423.00000 0.00236
653 12.78500 481.43015 460.00000 0.00217
654 12.80000 485.14547 423.00000 0.00236
655 12.81500 488.98352 422.00000 0.00237
656 12.83000 492.70035 460.00000 0.00217
657 12.84500 495.88306 487.00000 0.00205
658 12.86000 497.92196 442.00000 0.00226
659 12.87500 498.09816 497.00000 0.00201
660 12.89000 495.88964 524.00000 0.00191
661 12.90500 491.38782 478.00000 0.00209
662 12.92000 485.39355 432.00000 0.00231
663 12.93500 478.98161 457.00000 0.00219
664 12.95000 472.97737 452.00000 0.00221
665 12.96500 467.78785 457.00000 0.00219
666 12.98000 463.48263 415.00000 0.00241
667 12.99500 459.97898 437.00000 0.00229
668 13.01000 457.14169 400.00000 0.00250
669 13.02500 454.76923 438.00000 0.00228
670 13.04000 452.95814 408.00000 0.00245
671 13.05500 451.62133 431.00000 0.00232
672 13.07000 450.55627 410.00000 0.00244
673 13.08500 449.70294 396.00000 0.00253
674 13.10000 449.01678 398.00000 0.00251
675 13.11500 448.46539 443.00000 0.00226
676 13.13000 448.02556 405.00000 0.00247
677 13.14500 447.68095 432.00000 0.00231
678 13.16000 447.42029 416.00000 0.00240
679 13.17500 447.23617 413.00000 0.00242
680 13.19000 447.12433 414.00000 0.00242
681 13.20500 447.08321 442.00000 0.00226
682 13.22000 447.11384 453.00000 0.00221
683 13.23500 447.21991 433.00000 0.00231
684 13.25000 447.40804 463.00000 0.00216
685 13.26500 447.68822 464.00000 0.00216
686 13.28000 448.07435 451.00000 0.00222
687 13.29500 448.58481 480.00000 0.00208
688 13.31000 449.24291 422.00000 0.00237
689 13.32500 450.07664 444.00000 0.00225
690 13.34000 451.11730 415.00000 0.00241
691 13.35500 452.39636 396.00000 0.00253
692 13.37000 453.94140 395.00000 0.00253
693 13.38500 455.77354 463.00000 0.00216
694 13.40000 457.90848 436.00000 0.00229
695 13.41500 460.36042 424.00000 0.00236
696 13.43000 463.14645 440.00000 0.00227
697 13.44500 466.28961 465.00000 0.00215
698 13.46000 469.82041 446.00000 0.00224
699 13.47500 473.77656 455.00000 0.00220
700 13.49000 478.20069 442.00000 0.00226
701 13.50500 483.13523 526.00000 0.00190
702 13.52000 488.61280 560.00000 0.00179
703 13.53500 494.64050 529.00000 0.00189
704 13.55000 501.17503 554.00000 0.00181
705 13.56500 508.08451 496.00000 0.00202
706 13.58000 515.09099 550.00000 0.00182
707 13.59500 521.69051 555.00000 0.00180
708 13.61000 527.06956 599.00000 0.00167
709 13.62500 530.10100 596.00000 0.00168
710 13.64000 529.59539 604.00000 0.00166
711 13.65500 524.91681 597.00000 0.00168
712 13.67000 516.59974 560.00000 0.00179
713 13.68500 506.23088 553.00000 0.00181
714 13.70000 495.57676 486.00000 0.00206
715 13.71500 485.84143 504.00000 0.00198
716 13.73000 477.54356 486.00000 0.00206
717 13.74500 470.74612 463.00000 0.00216
718 13.76000 465.29768 487.00000 0.00205
719 13.77500 460.97770 477.00000 0.00210
720 13.79000 457.56446 482.00000 0.00207
721 13.80500 454.86200 465.00000 0.00215
722 13.82000 452.70825 452.00000 0.00221
723 13.83500 450.97487 440.00000 0.00227
724 13.85000 449.56343 445.00000 0.00225
725 13.86500 448.40011 437.00000 0.00229
726 13.88000 447.43024 407.00000 0.00246
727 13.89500 446.61347 445.00000 0.00225
728 13.91000 445.91983 416.00000 0.00240
729 13.92500 445.32672 428.00000 0.00234
730 13.94000 444.81685 425.00000 0.00235
731 13.95500 444.37672 434.00000 0.00230
732 13.97000 443.99560 432.00000 0.00231
733 13.98500 443.66490 418.00000 0.00239
734 14.00000 443.37764 411.00000 0.00243
735 14.01500 443.12806 428.00000 0.00234
736 14.03000 442.91146 400.00000 0.00250
737 14.04500 442.72390 418.00000 0.00239
738 14.06000 442.56211 431.00000 0.00232
739 14.07500 442.42334 454.00000 0.00220
740 14.09000 442.30529 426.00000 0.00235
741 14.10500 442.20603 410.00000 0.00244
742 14.12000 442.12391 428.00000 0.00234
743 14.13500 442.05756 405.00000 0.00247
744 14.15000 442.00582 401.00000 0.00249
745 14.16500 441.96772 391.00000 0.00256
746 14.18000 441.94244 400.00000 0.00250
747 14.19500 441.92931 409.00000 0.00244
748 14.21000 441.92780 436.00000 0.00229
749 14.22500 441.93748 439.00000 0.00228
750 14.24000 441.95801 459.00000 0.00218
751 14.25500 441.98917 413.00000 0.00242
752 14.27000 442.03081 403.00000 0.00248
753 14.28500 442.08287 419.00000 0.00239
754 14.30000 442.14536 415.00000 0.00241
755 14.31500 442.21840 428.00000 0.00234
756 14.33000 442.30216 452.00000 0.00221
757 14.34500 442.39691 422.00000 0.00237
758 14.36000 442.50301 436.00000 0.00229
759 14.37500 442.62090 439.00000 0.00228
760 14.39000 442.75117 446.00000 0.00224
761 14.40500 442.89474 445.00000 0.00225
762 14.42000 443.05148 443.00000 0.00226
763 14.43500 443.22280 449.00000 0.00223
764 14.45000 443.40975 443.00000 0.00226
765 14.46500 443.61355 417.00000 0.00240
766 14.48000 443.83558 442.00000 0.00226
767 14.49500 444.07746 436.00000 0.00229
768 14.51000 444.34106 466.00000 0.00215
769 14.52500 444.62854 435.00000 0.00230
770 14.54000 444.94242 442.00000 0.00226
771 14.55500 445.28562 443.00000 0.00226
772 14.57000 445.66156 448.00000 0.00223
773 14.58500 446.07427 440.00000 0.00227
774 14.60000 446.52848 421.00000 0.00238
775 14.61500 447.02981 445.00000 0.00225
776 14.63000 447.58498 462.00000 0.00216
777 14.64500 448.20210 448.00000 0.00223
778 14.66000 448.89105 417.00000 0.00240
779 14.67500 449.66399 417.00000 0.00240
780 14.69000 450.53613 454.00000 0.00220
781 14.70500 451.52655 439.00000 0.00228
782 14.72000 452.65935 445.00000 0.00225
783 14.73500 453.96520 435.00000 0.00230
784 14.75000 455.48305 435.00000 0.00230
785 14.76500 457.26223 435.00000 0.00230
786 14.78000 459.36443 442.00000 0.00226
787 14.79500 461.86531 440.00000 0.00227
788 14.81000 464.85441 419.00000 0.00239
789 14.82500 468.43184 413.00000 0.00242
790 14.84000 472.70150 448.00000 0.00223
791 14.85500 477.75526 466.00000 0.00215
792 14.87000 483.66098 484.00000 0.00207
793 14.88500 490.49144 449.00000 0.00223
794 14.90000 498.30830 464.00000 0.00216
795 14.91500 507.18116 466.00000 0.00215
796 14.93000 517.19309 478.00000 0.00209
797 14.94500 528.43828 516.00000 0.00194
798 14.96000 541.01030 503.00000 0.00199
799 14.97500 554.97853 538.00000 0.00186
800 14.99000 570.34928 572.00000 0.00175
801 15.00500 587.00526 588.00000 0.00170
802 15.02000 604.61390 632.00000 0.00158
803 15.03500 622.49158 657.00000 0.00152
804 15.05000 639.41775 733.00000 0.00136
805 15.06500 653.44327 744.00000 0.00134
806 15.08000 661.88148 774.00000 0.00129
807 15.09500 661.87537 791.00000 0.00126
808 15.11000 651.79582 808.00000 0.00124
809 15.12500 632.70127 746.00000 0.00134
810 15.14000 608.20164 646.00000 0.00155
811 15.15500 582.52691 603.00000 0.00166
812 15.17000 558.71808 594.00000 0.00168
813 15.18500 538.20156 555.00000 0.00180
814 15.20000 521.26184 515.00000 0.00194
815 15.21500 507.61121 474.00000 0.00211
816 15.23000 496.75436 484.00000 0.00207
817 15.24500 488.16815 474.00000 0.00211
818 15.26000 481.37728 466.00000 0.00215
819 15.27500 475.98097 450.00000 0.00222
820 15.29000 471.65720 464.00000 0.00216
821 15.30500 468.15741 460.00000 0.00217
822 15.32000 465.29690 432.00000 0.00231
823 15.33500 462.90867 439.00000 0.00228
824 15.35000 460.90528 439.00000 0.00228
825 15.36500 459.20919 434.00000 0.00230
826 15.38000 457.76224 410.00000 0.00244
827 15.39500 456.52004 480.00000 0.00208
828 15.41000 455.44815 468.00000 0.00214
829 15.42500 454.51935 479.00000 0.00209
830 15.44000 453.71180 487.00000 0.00205
831 15.45500 453.00778 499.00000 0.00200
832 15.47000 452.39277 461.00000 0.00217
833 15.48500 451.85475 439.00000 0.00228
834 15.50000 451.38375 435.00000 0.00230
835 15.51500 450.97139 420.00000 0.00238
836 15.53000 450.61065 438.00000 0.00228
837 15.54500 450.29560 446.00000 0.00224
838 15.56000 450.02118 439.00000 0.00228
839 15.57500 449.78311 446.00000 0.00224
840 15.59000 449.57773 434.00000 0.00230
841 15.60500 449.40189 447.00000 0.00224
842 15.62000 449.25292 458.00000 0.00218
843 15.63500 449.12851 440.00000 0.00227
844 15.65000 449.02666 459.00000 0.00218
845 15.66500 448.94568 455.00000 0.00220
846 15.68000 448.88411 431.00000 0.00232
847 15.69500 448.84074 441.00000 0.00227
848 15.71000 448.81451 442.00000 0.00226
849 15.72500 448.80462 427.00000 0.00234
850 15.74000 448.81067 446.00000 0.00224
851 15.75500 448.83140 454.00000 0.00220
852 15.77000 448.86585 428.00000 0.00234
853 15.78500 448.91438 451.00000 0.00222
854 15.80000 448.97675 473.00000 0.00211
855 15.81500 449.05287 491.00000 0.00204
856 15.83000 449.14272 440.00000 0.00227
857 15.84500 449.24645 426.00000 0.00235
858 15.86000 449.36429 427.00000 0.00234
859 15.87500 449.49662 482.00000 0.00207
860 15.89000 449.64395 508.00000 0.00197
861 15.90500 449.80694 442.00000 0.00226
862 15.92000 449.98642 467.00000 0.00214
863 15.93500 450.18343 446.00000 0.00224
864 15.95000 450.39924 466.00000 0.00215
865 15.96500 450.63536 455.00000 0.00220
866 15.98000 450.89367 467.00000 0.00214
867 15.99500 451.17642 520.00000 0.00192
868 16.01000 451.48640 412.00000 0.00243
869 16.02500 451.82700 445.00000 0.00225
870 16.04000 452.20247 426.00000 0.00235
871 16.05500 452.61812 470.00000 0.00213
872 16.07000 453.08064 486.00000 0.00206
873 16.08500 453.59850 443.00000 0.00226
874 16.10000 454.18243 443.00000 0.00226
875 16.11500 454.84599 432.00000 0.00231
876 16.13000 455.60610 451.00000 0.00222
877 16.14500 456.48361 459.00000 0.00218
878 16.16000 457.50340 484.00000 0.00207
879 16.17500 458.69374 457.00000 0.00219
880 16.19000 460.08455 475.00000 0.00211
881 16.20500 461.70471 438.00000 0.00228
882 16.22000 463.57983 455.00000 0.00220
883 16.23500 465.73217 454.00000 0.00220
884 16.25000 468.18243 501.00000 0.00200
885 16.26500 470.95174 478.00000 0.00209
886 16.28000 474.06172 505.00000 0.00198
887 16.29500 477.53186 506.00000 0.00198
888 16.31000 481.37329 474.00000 0.00211
889 16.32500 485.57846 535.00000 0.00187
890 16.34000 490.10505 530.00000 0.00189
891 16.35500 494.85193 497.00000 0.00201
892 16.37000 499.62440 499.00000 0.00200
893 16.38500 504.08993 524.00000 0.00191
894 16.40000 507.74282 553.00000 0.00181
895 16.41500 509.93561 560.00000 0.00179
896 16.43000 510.06887 553.00000 0.00181
897 16.44500 507.94149 545.00000 0.00183
898 16.46000 503.99970 561.00000 0.00178
899 16.47500 499.16084 523.00000 0.00191
900 16.49000 494.34198 493.00000 0.00203
901 16.50500 490.13885 518.00000 0.00193
902 16.52000 486.80636 529.00000 0.00189
903 16.53500 484.38119 532.00000 0.00188
904 16.55000 482.79790 513.00000 0.00195
905 16.56500 481.95828 505.00000 0.00198
906 16.58000 481.76500 537.00000 0.00186
907 16.59500 482.13651 532.00000 0.00188
908 16.61000 483.01822 473.00000 0.00211
909 16.62500 484.35285 494.00000 0.00202
910 16.64000 486.11139 513.00000 0.00195
911 16.65500 488.30955 499.00000 0.00200
912 16.67000 490.96807 487.00000 0.00205
913 16.68500 494.12770 569.00000 0.00176
914 16.70000 497.85085 551.00000 0.00181
915 16.71500 502.22477 522.00000 0.00192
916 16.73000 507.36666 543.00000 0.00184
917 16.74500 513.43075 536.00000 0.00187
918 16.76000 520.61721 556.00000 0.00180
919 16.77500 529.18274 551.00000 0.00181
920 16.79000 539.45171 580.00000 0.00172
921 16.80500 551.82525 573.00000 0.00175
922 16.82000 566.78304 575.00000 0.00174
923 16.83500 584.86932 606.00000 0.00165
924 16.85000 606.65651 639.00000 0.00156
925 16.86500 632.69324 635.00000 0.00157
926 16.88000 663.46425 653.00000 0.00153
927 16.89500 699.38797 700.00000 0.00143
928 16.91000 740.84410 714.00000 0.00140
929 16.92500 788.19299 792.00000 0.00126
930 16.94000 841.75153 853.00000 0.00117
931 16.95500 901.70557 851.00000 0.00118
932 16.97000 967.94585 948.00000 0.00105
933 16.98500 1039.80650 1060.00000 0.00094
934 17.00000 1115.66965 1153.00000 0.00087
935 17.01500 1192.38806 1246.00000 0.00080
936 17.03000 1264.52219 1183.00000 0.00085
937 17.04500 1323.62486 1297.00000 0.00077
938 17.06000 1358.42038 1362.00000 0.00073
939 17.07500 1357.44840 1377.00000 0.00073
940 17.09000 1314.85515 1333.00000 0.00075
941 17.10500 1235.80291 1199.00000 0.00083
942 17.12000 1135.23021 1139.00000 0.00088
943 17.13500 1030.04113 1030.00000 0.00097
944 17.15000 932.27700 978.00000 0.00102
945 17.16500 847.64612 839.00000 0.00119
946 17.18000 777.37977 733.00000 0.00136
947 17.19500 720.42613 722.00000 0.00139
948 17.21000 674.86898 669.00000 0.00149
949 17.22500 638.64201 679.00000 0.00147
950 17.24000 609.84033 653.00000 0.00153
951 17.25500 586.83727 653.00000 0.00153
952 17.27000 568.31008 613.00000 0.00163
953 17.28500 553.22129 580.00000 0.00172
954 17.30000 540.77907 551.00000 0.00181
955 17.31500 530.39009 549.00000 0.00182
956 17.33000 521.61367 538.00000 0.00186
957 17.34500 514.12229 527.00000 0.00190
958 17.36000 507.67028 527.00000 0.00190
959 17.37500 502.07056 524.00000 0.00191
960 17.39000 497.17809 510.00000 0.00196
961 17.40500 492.87845 530.00000 0.00189
962 17.42000 489.07992 498.00000 0.00201
963 17.43500 485.70804 513.00000 0.00195
964 17.45000 482.70172 522.00000 0.00192
965 17.46500 480.01039 483.00000 0.00207
966 17.48000 477.59188 483.00000 0.00207
967 17.49500 475.41083 479.00000 0.00209
968 17.51000 473.43741 505.00000 0.00198
969 17.52500 471.64629 493.00000 0.00203
970 17.54000 470.01590 452.00000 0.00221
971 17.55500 468.52778 456.00000 0.00219
972 17.57000 467.16602 467.00000 0.00214
973 17.58500 465.91691 452.00000 0.00221
974 17.60000 464.76855 470.00000 0.00213
975 17.61500 463.71059 475.00000 0.00211
976 17.63000 462.73401 484.00000 0.00207
977 17.64500 461.83089 474.00000 0.00211
978 17.66000 460.99429 441.00000 0.00227
979 17.67500 460.21808 436.00000 0.00229
980 17.69000 459.49686 490.00000 0.00204
981 17.70500 458.82585 487.00000 0.00205
982 17.72000 458.20082 453.00000 0.00221
983 17.73500 457.61798 460.00000 0.00217
984 17.75000 457.07400 474.00000 0.00211
985 17.76500 456.56587 471.00000 0.00212
986 17.78000 456.09095 461.00000 0.00217
987 17.79500 455.64684 492.00000 0.00203
988 17.81000 455.23143 518.00000 0.00193
989 17.82500 454.84282 461.00000 0.00217
990 17.84000 454.47933 444.00000 0.00225
991 17.85500 454.13943 472.00000 0.00212
992 17.87000 453.82181 488.00000 0.00205
993 17.88500 453.52528 479.00000 0.00209
994 17.90000 453.24879 483.00000 0.00207
995 17.91500 452.99143 487.00000 0.00205
996 17.93000 452.75241 442.00000 0.00226
997 17.94500 452.53105 472.00000 0.00212
998 17.96000 452.32679 485.00000 0.00206
999 17.97500 452.13916 453.00000 0.00221
1000 17.99000 451.96779 436.00000 0.00229
1001 18.00500 451.81242 448.00000 0.00223
1002 18.02000 451.67288 463.00000 0.00216
1003 18.03500 451.54909 452.00000 0.00221
1004 18.05000 451.44108 445.00000 0.00225
1005 18.06500 451.34894 454.00000 0.00220
1006 18.08000 451.27253 458.00000 0.00218
1007 18.09500 451.21210 485.00000 0.00206
1008 18.11000 451.16807 485.00000 0.00206
1009 18.12500 451.14101 471.00000 0.00212
1010 18.14000 451.13159 481.00000 0.00208
1011 18.15500 451.14073 461.00000 0.00217
1012 18.17000 451.16948 466.00000 0.00215
1013 18.18500 451.21906 486.00000 0.00206
1014 18.20000 451.29090 439.00000 0.00228
1015 18.21500 451.38666 450.00000 0.00222
1016 18.23000 451.50833 445.00000 0.00225
1017 18.24500 451.65824 454.00000 0.00220
1018 18.26000 451.83925 437.00000 0.00229
1019 18.27500 452.05528 450.00000 0.00222
1020 18.29000 452.31295 487.00000 0.00205
1021 18.30500 452.60222 456.00000 0.00219
1022 18.32000 452.93669 444.00000 0.00225
1023 18.33500 453.32166 459.00000 0.00218
1024 18.35000 453.76323 448.00000 0.00223
1025 18.36500 454.26838 449.00000 0.00223
1026 18.38000 454.84480 449.00000 0.00223
1027 18.39500 455.50024 445.00000 0.00225
1028 18.41000 456.23866 470.00000 0.00213
1029 18.42500 457.03173 493.00000 0.00203
1030 18.44000 458.03267 463.00000 0.00216
1031 18.45500 459.27620 460.00000 0.00217
1032 18.47000 460.72313 464.00000 0.00216
1033 18.48500 462.41640 467.00000 0.00214
1034 18.50000 464.41087 459.00000 0.00218
1035 18.51500 466.77674 471.00000 0.00212
1036 18.53000 469.60370 495.00000 0.00202
1037 18.54500 473.00542 443.00000 0.00226
1038 18.56000 477.12401 470.00000 0.00213
1039 18.57500 482.13295 492.00000 0.00203
1040 18.59000 488.23574 512.00000 0.00195
1041 18.60500 495.65694 495.00000 0.00202
1042 18.62000 504.62430 501.00000 0.00200
1043 18.63500 515.34781 508.00000 0.00197
1044 18.65000 528.00743 527.00000 0.00190
1045 18.66500 542.73465 565.00000 0.00177
1046 18.68000 559.63552 570.00000 0.00175
1047 18.69500 578.75210 593.00000 0.00169
1048 18.71000 600.02325 636.00000 0.00157
1049 18.72500 623.20519 649.00000 0.00154
1050 18.74000 647.74687 651.00000 0.00154
1051 18.75500 672.60669 708.00000 0.00141
1052 18.77000 696.01320 696.00000 0.00144
1053 18.78500 715.25003 779.00000 0.00128
1054 18.80000 726.73700 744.00000 0.00134
1055 18.81500 726.88656 720.00000 0.00139
1056 18.83000 713.90582 710.00000 0.00141
1057 18.84500 689.42591 698.00000 0.00143
1058 18.86000 658.08298 671.00000 0.00149
1059 18.87500 625.12732 639.00000 0.00156
1060 18.89000 594.33648 616.00000 0.00162
1061 18.90500 567.54432 539.00000 0.00186
1062 18.92000 545.18968 509.00000 0.00196
1063 18.93500 526.98536 507.00000 0.00197
1064 18.95000 512.35940 521.00000 0.00192
1065 18.96500 500.68131 543.00000 0.00184
1066 18.98000 491.36296 501.00000 0.00200
1067 18.99500 483.89770 521.00000 0.00192
1068 19.01000 477.87049 501.00000 0.00200
1069 19.02500 472.95378 480.00000 0.00208
1070 19.04000 468.89640 466.00000 0.00215
1071 19.05500 465.50978 454.00000 0.00220
1072 19.07000 462.65420 450.00000 0.00222
1073 19.08500 460.22675 432.00000 0.00231
1074 19.10000 458.15166 444.00000 0.00225
1075 19.11500 456.37311 489.00000 0.00204
1076 19.13000 454.85010 483.00000 0.00207
1077 19.14500 453.55295 479.00000 0.00209
1078 19.16000 452.46073 428.00000 0.00234
1079 19.17500 451.55933 464.00000 0.00216
1080 19.19000 450.83953 447.00000 0.00224
1081 19.20500 450.29514 450.00000 0.00222
1082 19.22000 449.92140 453.00000 0.00221
1083 19.23500 449.71390 468.00000 0.00214
1084 19.25000 449.66788 469.00000 0.00213
1085 19.26500 449.77728 462.00000 0.00216
1086 19.28000 450.03284 442.00000 0.00226
1087 19.29500 450.41875 528.00000 0.00189
1088 19.31000 450.90737 444.00000 0.00225
1089 19.32500 451.45175 474.00000 0.00211
1090 19.34000 451.97530 446.00000 0.00224
1091 19.35500 452.36226 458.00000 0.00218
1092 19.37000 452.45968 434.00000 0.00230
1093 19.38500 452.11062 485.00000 0.00206
1094 19.40000 451.22778 439.00000 0.00228
1095 19.41500 449.86560 430.00000 0.00233
1096 19.43000 448.21159 467.00000 0.00214
1097 19.44500 446.49297 462.00000 0.00216
1098 19.46000 444.86859 420.00000 0.00238
1099 19.47500 443.41038 416.00000 0.00240
1100 19.49000 442.15291 444.00000 0.00225
1101 19.50500 441.08558 462.00000 0.00216
1102 19.52000 440.18447 458.00000 0.00218
1103 19.53500 439.42264 462.00000 0.00216
1104 19.55000 438.77479 473.00000 0.00211
1105 19.56500 438.21909 461.00000 0.00217
1106 19.58000 437.73777 461.00000 0.00217
1107 19.59500 437.31699 417.00000 0.00240
1108 19.61000 436.94654 411.00000 0.00243
1109 19.62500 436.61921 432.00000 0.00231
1110 19.64000 436.33042 447.00000 0.00224
1111 19.65500 436.07768 466.00000 0.00215
1112 19.67000 435.86030 469.00000 0.00213
1113 19.68500 435.67907 453.00000 0.00221
1114 19.70000 435.53596 426.00000 0.00235
1115 19.71500 435.43363 434.00000 0.00230
1116 19.73000 435.37492 451.00000 0.00222
1117 19.74500 435.36235 459.00000 0.00218
1118 19.76000 435.39778 444.00000 0.00225
1119 19.77500 435.48222 421.00000 0.00238
1120 19.79000 435.61531 436.00000 0.00229
1121 19.80500 435.79455 475.00000 0.00211
1122 19.82000 436.01377 445.00000 0.00225
1123 19.83500 436.26073 457.00000 0.00219
1124 19.85000 436.51366 458.00000 0.00218
1125 19.86500 436.73715 434.00000 0.00230
1126 19.88000 436.88033 437.00000 0.00229
1127 19.89500 436.87740 418.00000 0.00239
1128 19.91000 436.66515 439.00000 0.00228
1129 19.92500 436.23398 452.00000 0.00221
1130 19.94000 435.62974 426.00000 0.00235
1131 19.95500 434.93971 444.00000 0.00225
1132 19.97000 434.24918 414.00000 0.00242
1133 19.98500 433.61335 489.00000 0.00204
1134 20.00000 433.05602 467.00000 0.00214
1135 20.01500 432.58066 435.00000 0.00230
1136 20.03000 432.18088 421.00000 0.00238
1137 20.04500 431.84680 429.00000 0.00233
1138 20.06000 431.56815 447.00000 0.00224
1139 20.07500 431.33569 445.00000 0.00225
1140 20.09000 431.14165 422.00000 0.00237
1141 20.10500 430.97988 436.00000 0.00229
1142 20.12000 430.84575 458.00000 0.00218
1143 20.13500 430.73590 438.00000 0.00228
1144 20.15000 430.64807 443.00000 0.00226
1145 20.16500 430.58102 429.00000 0.00233
1146 20.18000 430.53455 426.00000 0.00235
1147 20.19500 430.50865 420.00000 0.00238
1148 20.21000 430.50383 425.00000 0.00235
1149 20.22500 430.52127 435.00000 0.00230
1150 20.24000 430.56437 459.00000 0.00218
1151 20.25500 430.62858 446.00000 0.00224
1152 20.27000 430.72208 414.00000 0.00242
1153 20.28500 430.86121 407.00000 0.00246
1154 20.30000 431.02030 418.00000 0.00239
1155 20.31500 431.17881 434.00000 0.00230
1156 20.33000 431.36882 439.00000 0.00228
1157 20.34500 431.59289 422.00000 0.00237
1158 20.36000 431.85590 453.00000 0.00221
1159 20.37500 432.16200 501.00000 0.00200
1160 20.39000 432.51488 489.00000 0.00204
1161 20.40500 432.91982 451.00000 0.00222
1162 20.42000 433.38288 422.00000 0.00237
1163 20.43500 433.91110 416.00000 0.00240
1164 20.45000 434.51265 419.00000 0.00239
1165 20.46500 435.19706 447.00000 0.00224
1166 20.48000 435.97549 448.00000 0.00223
1167 20.49500 436.86106 447.00000 0.00224
1168 20.51000 437.86931 451.00000 0.00222
1169 20.52500 439.01876 455.00000 0.00220
1170 20.54000 440.33164 445.00000 0.00225
1171 20.55500 441.83487 466.00000 0.00215
1172 20.57000 443.56138 472.00000 0.00212
1173 20.58500 445.55188 429.00000 0.00233
1174 20.60000 447.85728 426.00000 0.00235
1175 20.61500 450.54183 442.00000 0.00226
1176 20.63000 453.68741 453.00000 0.00221
1177 20.64500 457.39892 468.00000 0.00214
1178 20.66000 461.81120 455.00000 0.00220
1179 20.67500 467.09737 477.00000 0.00210
1180 20.69000 473.47850 477.00000 0.00210
1181 20.70500 481.23352 480.00000 0.00208
1182 20.72000 490.70686 470.00000 0.00213
1183 20.73500 502.30862 517.00000 0.00193
1184 20.75000 516.49957 516.00000 0.00194
1185 20.76500 533.75517 525.00000 0.00190
1186 20.78000 554.51292 547.00000 0.00183
1187 20.79500 579.12069 536.00000 0.00187
1188 20.81000 607.79817 577.00000 0.00173
1189 20.82500 640.59931 630.00000 0.00159
1190 20.84000 677.34356 647.00000 0.00155
1191 20.85500 717.48427 712.00000 0.00140
1192 20.87000 759.88731 805.00000 0.00124
1193 20.88500 802.50076 823.00000 0.00122
1194 20.90000 841.94395 883.00000 0.00113
1195 20.91500 873.21574 875.00000 0.00114
1196 20.93000 890.07591 867.00000 0.00115
1197 20.94500 886.87998 934.00000 0.00107
1198 20.96000 861.74284 881.00000 0.00114
1199 20.97500 818.65466 828.00000 0.00121
1200 20.99000 765.86503 745.00000 0.00134
1201 21.00500 711.74366 683.00000 0.00146
1202 21.02000 661.88328 637.00000 0.00157
1203 21.03500 618.79872 576.00000 0.00174
1204 21.05000 582.94220 563.00000 0.00178
1205 21.06500 553.73727 524.00000 0.00191
1206 21.08000 530.22450 523.00000 0.00191
1207 21.09500 511.38477 520.00000 0.00192
1208 21.11000 496.28090 521.00000 0.00192
1209 21.12500 484.11094 498.00000 0.00201
1210 21.14000 474.21970 520.00000 0.00192
1211 21.15500 466.08990 505.00000 0.00198
1212 21.17000 459.32343 460.00000 0.00217
1213 21.18500 453.61850 450.00000 0.00222
1214 21.20000 448.75562 443.00000 0.00226
1215 21.21500 444.56279 410.00000 0.00244
1216 21.23000 440.91299 448.00000 0.00223
1217 21.24500 437.70916 470.00000 0.00213
1218 21.26000 434.87584 443.00000 0.00226
1219 21.27500 432.35341 436.00000 0.00229
1220 21.29000 430.09402 437.00000 0.00229
1221 21.30500 428.05885 418.00000 0.00239
1222 21.32000 426.21629 433.00000 0.00231
1223 21.33500 424.54000 428.00000 0.00234
1224 21.35000 423.00804 419.00000 0.00239
1225 21.36500 421.60208 422.00000 0.00237
1226 21.38000 420.30680 423.00000 0.00236
1227 21.39500 419.10959 457.00000 0.00219
1228 21.41000 418.00084 434.00000 0.00230
1229 21.42500 416.98250 438.00000 0.00228
1230 21.44000 416.01460 425.00000 0.00235
1231 21.45500 415.09834 405.00000 0.00247
1232 21.47000 414.23537 399.00000 0.00251
1233 21.48500 413.42024 407.00000 0.00246
1234 21.50000 412.64819 424.00000 0.00236
1235 21.51500 411.91506 433.00000 0.00231
1236 21.53000 411.21719 416.00000 0.00240
1237 21.54500 410.55137 397.00000 0.00252
1238 21.56000 409.91475 378.00000 0.00265
1239 21.57500 409.30482 411.00000 0.00243
1240 21.59000 408.71936 408.00000 0.00245
1241 21.60500 408.15638 399.00000 0.00251
1242 21.62000 407.61414 427.00000 0.00234
1243 21.63500 407.09106 416.00000 0.00240
1244 21.65000 406.58580 431.00000 0.00232
1245 21.66500 406.09723 419.00000 0.00239
1246 21.68000 405.62428 406.00000 0.00246
1247 21.69500 405.16606 385.00000 0.00260
1248 21.71000 404.72195 388.00000 0.00258
1249 21.72500 404.29142 398.00000 0.00251
1250 21.74000 403.87418 369.00000 0.00271
1251 21.75500 403.47071 372.00000 0.00269
1252 21.77000 403.08448 381.00000 0.00262
1253 21.78500 402.70040 402.00000 0.00249
1254 21.80000 402.32867 397.00000 0.00252
1255 21.81500 401.97677 396.00000 0.00253
1256 21.83000 401.62144 370.00000 0.00270
1257 21.84500 401.27297 396.00000 0.00253
1258 21.86000 400.93365 401.00000 0.00249
1259 21.87500 400.60338 418.00000 0.00239
1260 21.89000 400.28209 411.00000 0.00243
1261 21.90500 399.96981 439.00000 0.00228
1262 21.92000 399.66659 401.00000 0.00249
1263 21.93500 399.37257 380.00000 0.00263
1264 21.95000 399.08794 387.00000 0.00258
1265 21.96500 398.81296 389.00000 0.00257
1266 21.98000 398.54800 368.00000 0.00272
1267 21.99500 398.29348 405.00000 0.00247
1268 22.01000 398.04995 399.00000 0.00251
1269 22.02500 397.81807 391.00000 0.00256
1270 22.04000 397.59865 433.00000 0.00231
1271 22.05500 397.39268 405.00000 0.00247
1272 22.07000 397.20149 387.00000 0.00258
1273 22.08500 397.02666 405.00000 0.00247
1274 22.10000 396.87004 386.00000 0.00259
1275 22.11500 396.73397 371.00000 0.00270
1276 22.13000 396.62144 408.00000 0.00245
1277 22.14500 396.53628 373.00000 0.00268
1278 22.16000 396.48379 378.00000 0.00265
1279 22.17500 396.47509 386.00000 0.00259
1280 22.19000 396.50261 396.00000 0.00253
1281 22.20500 396.57875 401.00000 0.00249
1282 22.22000 396.71823 381.00000 0.00262
1283 22.23500 396.93372 384.00000 0.00260
1284 22.25000 397.23921 397.00000 0.00252
1285 22.26500 397.64888 408.00000 0.00245
1286 22.28000 398.17535 422.00000 0.00237
1287 22.29500 398.82804 408.00000 0.00245
1288 22.31000 399.61171 390.00000 0.00256
1289 22.32500 400.52476 423.00000 0.00236
1290 22.34000 401.55634 410.00000 0.00244
1291 22.35500 402.68120 401.00000 0.00249
1292 22.37000 403.85180 383.00000 0.00261
1293 22.38500 404.98828 378.00000 0.00265
1294 22.40000 405.97170 393.00000 0.00254
1295 22.41500 406.65435 425.00000 0.00235
1296 22.43000 406.90549 428.00000 0.00234
1297 22.44500 406.68896 435.00000 0.00230
1298 22.46000 406.11308 396.00000 0.00253
1299 22.47500 405.38953 397.00000 0.00252
1300 22.49000 404.73358 387.00000 0.00258
1301 22.50500 404.29736 398.00000 0.00251
1302 22.52000 404.16144 438.00000 0.00228
1303 22.53500 404.33940 382.00000 0.00262
1304 22.55000 404.86090 415.00000 0.00241
1305 22.56500 405.73959 410.00000 0.00244
1306 22.58000 406.99771 427.00000 0.00234
1307 22.59500 408.67259 414.00000 0.00242
1308 22.61000 410.82191 396.00000 0.00253
1309 22.62500 413.52893 409.00000 0.00244
1310 22.64000 416.90812 420.00000 0.00238
1311 22.65500 421.11093 454.00000 0.00220
1312 22.67000 426.33061 425.00000 0.00235
1313 22.68500 432.80309 446.00000 0.00224
1314 22.70000 440.79947 406.00000 0.00246
1315 22.71500 450.60488 429.00000 0.00233
1316 22.73000 462.48309 439.00000 0.00228
1317 22.74500 476.63445 462.00000 0.00216
1318 22.76000 493.15641 482.00000 0.00207
1319 22.77500 512.01596 504.00000 0.00198
1320 22.79000 532.98045 574.00000 0.00174
1321 22.80500 555.52081 541.00000 0.00185
1322 22.82000 578.66172 593.00000 0.00169
1323 22.83500 600.76512 608.00000 0.00164
1324 22.85000 619.34585 648.00000 0.00154
1325 22.86500 631.16960 641.00000 0.00156
1326 22.88000 633.04778 630.00000 0.00159
1327 22.89500 623.42577 602.00000 0.00166
1328 22.91000 603.74812 588.00000 0.00170
1329 22.92500 578.03929 584.00000 0.00171
1330 22.94000 550.84786 564.00000 0.00177
1331 22.95500 525.47580 492.00000 0.00203
1332 22.97000 503.56884 490.00000 0.00204
1333 22.98500 485.57231 476.00000 0.00210
1334 23.00000 471.30125 460.00000 0.00217
1335 23.01500 460.32393 453.00000 0.00221
1336 23.03000 452.16224 419.00000 0.00239
1337 23.04500 446.38314 436.00000 0.00229
1338 23.06000 442.63667 442.00000 0.00226
1339 23.07500 440.66991 460.00000 0.00217
1340 23.09000 440.33047 424.00000 0.00236
1341 23.10500 441.56596 435.00000 0.00230
1342 23.12000 444.42279 432.00000 0.00231
1343 23.13500 449.04561 429.00000 0.00233
1344 23.15000 455.67651 445.00000 0.00225
1345 23.16500 464.64825 470.00000 0.00213
1346 23.18000 476.36551 488.00000 0.00205
1347 23.19500 491.26427 517.00000 0.00193
1348 23.21000 509.74748 517.00000 0.00193
1349 23.22500 532.11003 563.00000 0.00178
1350 23.24000 558.47174 568.00000 0.00176
1351 23.25500 588.70217 564.00000 0.00177
1352 23.27000 622.25603 603.00000 0.00166
1353 23.28500 658.14757 618.00000 0.00162
1354 23.30000 694.53803 656.00000 0.00152
1355 23.31500 728.41758 693.00000 0.00144
1356 23.33000 755.36661 727.00000 0.00138
1357 23.34500 769.93502 762.00000 0.00131
1358 23.36000 767.29909 726.00000 0.00138
1359 23.37500 745.99212 677.00000 0.00148
1360 23.39000 709.58664 709.00000 0.00141
1361 23.40500 665.15514 688.00000 0.00145
1362 23.42000 619.73422 645.00000 0.00155
1363 23.43500 577.96161 594.00000 0.00168
1364 23.45000 541.89225 517.00000 0.00193
1365 23.46500 511.87289 481.00000 0.00208
1366 23.48000 487.40836 491.00000 0.00204
1367 23.49500 467.69772 456.00000 0.00219
1368 23.51000 451.90039 481.00000 0.00208
1369 23.52500 439.25088 431.00000 0.00232
1370 23.54000 429.10034 433.00000 0.00231
1371 23.55500 420.92446 442.00000 0.00226
1372 23.57000 414.31559 430.00000 0.00233
1373 23.58500 408.96761 388.00000 0.00258
1374 23.60000 404.65806 375.00000 0.00267
1375 23.61500 401.23019 399.00000 0.00251
1376 23.63000 398.57575 386.00000 0.00259
1377 23.64500 396.61889 374.00000 0.00267
1378 23.66000 395.30188 382.00000 0.00262
1379 23.67500 394.57308 382.00000 0.00262
1380 23.69000 394.37722 362.00000 0.00276
1381 23.70500 394.64539 369.00000 0.00271
1382 23.72000 395.28156 394.00000 0.00254
1383 23.73500 396.14282 389.00000 0.00257
1384 23.75000 397.01447 404.00000 0.00248
1385 23.76500 397.59103 396.00000 0.00253
1386 23.78000 397.49437 394.00000 0.00254
1387 23.79500 396.37404 376.00000 0.00266
1388 23.81000 394.08690 381.00000 0.00262
1389 23.82500 390.82622 356.00000 0.00281
1390 23.84000 387.04305 353.00000 0.00283
1391 23.85500 383.21342 395.00000 0.00253
1392 23.87000 379.66390 388.00000 0.00258
1393 23.88500 376.54497 355.00000 0.00282
1394 23.90000 373.88582 347.00000 0.00288
1395 23.91500 371.65428 366.00000 0.00273
1396 23.93000 369.79525 342.00000 0.00292
1397 23.94500 368.25018 360.00000 0.00278
1398 23.96000 366.96541 343.00000 0.00292
1399 23.97500 365.89532 339.00000 0.00295
1400 23.99000 365.00290 365.00000 0.00274
1401 24.00500 364.25920 345.00000 0.00290
1402 24.02000 363.64236 340.00000 0.00294
1403 24.03500 363.13640 321.00000 0.00312
1404 24.05000 362.73010 329.00000 0.00304
1405 24.06500 362.41590 336.00000 0.00298
1406 24.08000 362.18918 344.00000 0.00291
1407 24.09500 362.04765 330.00000 0.00303
1408 24.11000 361.99105 338.00000 0.00296
1409 24.12500 362.02107 339.00000 0.00295
1410 24.14000 362.14304 344.00000 0.00291
1411 24.15500 362.35562 330.00000 0.00303
1412 24.17000 362.66360 363.00000 0.00275
1413 24.18500 363.07766 368.00000 0.00272
1414 24.20000 363.60733 357.00000 0.00280
1415 24.21500 364.26647 354.00000 0.00282
1416 24.23000 365.06750 363.00000 0.00275
1417 24.24500 366.02747 357.00000 0.00280
1418 24.26000 367.16689 345.00000 0.00290
1419 24.27500 368.51052 343.00000 0.00292
1420 24.29000 370.08844 354.00000 0.00282
1421 24.30500 371.93733 347.00000 0.00288
1422 24.32000 374.10206 367.00000 0.00272
1423 24.33500 376.63815 366.00000 0.00273
1424 24.35000 379.61502 370.00000 0.00270
1425 24.36500 383.12035 369.00000 0.00271
1426 24.38000 387.26659 363.00000 0.00275
1427 24.39500 392.20429 384.00000 0.00260
1428 24.41000 398.09156 423.00000 0.00236
1429 24.42500 405.18323 437.00000 0.00229
1430 24.44000 413.78768 406.00000 0.00246
1431 24.45500 424.29280 425.00000 0.00235
1432 24.47000 437.19892 445.00000 0.00225
1433 24.48500 453.11341 434.00000 0.00230
1434 24.50000 472.74502 458.00000 0.00218
1435 24.51500 496.85971 484.00000 0.00207
1436 24.53000 526.19069 524.00000 0.00191
1437 24.54500 561.31075 552.00000 0.00181
1438 24.56000 602.49411 585.00000 0.00171
1439 24.57500 649.57921 606.00000 0.00165
1440 24.59000 701.79416 682.00000 0.00147
1441 24.60500 757.47243 754.00000 0.00133
1442 24.62000 813.60776 803.00000 0.00125
1443 24.63500 865.30952 937.00000 0.00107
1444 24.65000 905.51470 1001.00000 0.00100
1445 24.66500 925.80589 970.00000 0.00103
1446 24.68000 919.27884 946.00000 0.00106
1447 24.69500 884.73726 900.00000 0.00111
1448 24.71000 828.62176 838.00000 0.00119
1449 24.72500 761.96017 763.00000 0.00131
1450 24.74000 694.98550 651.00000 0.00154
1451 24.75500 634.07153 608.00000 0.00164
1452 24.77000 581.82996 559.00000 0.00179
1453 24.78500 538.50892 582.00000 0.00172
1454 24.80000 503.24274 460.00000 0.00217
1455 24.81500 474.79243 441.00000 0.00227
1456 24.83000 451.90163 422.00000 0.00237
1457 24.84500 433.44353 423.00000 0.00236
1458 24.86000 418.46814 397.00000 0.00252
1459 24.87500 406.20200 385.00000 0.00260
1460 24.89000 396.04290 385.00000 0.00260
1461 24.90500 387.56465 383.00000 0.00261
1462 24.92000 380.38499 357.00000 0.00280
1463 24.93500 374.24088 352.00000 0.00284
1464 24.95000 368.92144 338.00000 0.00296
1465 24.96500 364.27749 347.00000 0.00288
1466 24.98000 360.19153 331.00000 0.00302
1467 24.99500 356.57069 370.00000 0.00270
1468 25.01000 353.34111 353.00000 0.00283
1469 25.02500 350.44328 364.00000 0.00275
1470 25.04000 347.82867 325.00000 0.00308
1471 25.05500 345.45734 370.00000 0.00270
1472 25.07000 343.29614 318.00000 0.00314
1473 25.08500 341.31740 335.00000 0.00299
1474 25.10000 339.49784 300.00000 0.00333
1475 25.11500 337.81780 323.00000 0.00310
1476 25.13000 336.26059 306.00000 0.00327
1477 25.14500 334.81206 279.00000 0.00358
1478 25.16000 333.46002 310.00000 0.00323
1479 25.17500 332.19401 300.00000 0.00333
1480 25.19000 331.00503 312.00000 0.00321
1481 25.20500 329.88542 321.00000 0.00312
1482 25.22000 328.82901 351.00000 0.00285
1483 25.23500 327.83135 344.00000 0.00291
1484 25.25000 326.87923 322.00000 0.00311
1485 25.26500 325.97327 341.00000 0.00293
1486 25.28000 325.10942 337.00000 0.00297
1487 25.29500 324.28411 313.00000 0.00319
1488 25.31000 323.49418 333.00000 0.00300
1489 25.32500 322.73683 336.00000 0.00298
1490 25.34000 322.00960 328.00000 0.00305
1491 25.35500 321.31028 333.00000 0.00300
1492 25.37000 320.63692 318.00000 0.00314
1493 25.38500 319.98783 343.00000 0.00292
1494 25.40000 319.36147 325.00000 0.00308
1495 25.41500 318.75660 308.00000 0.00325
1496 25.43000 318.17215 312.00000 0.00321
1497 25.44500 317.60719 328.00000 0.00305
1498 25.46000 317.06114 292.00000 0.00342
1499 25.47500 316.53383 308.00000 0.00325
1500 25.49000 316.02245 272.00000 0.00368
1501 25.50500 315.53093 311.00000 0.00322
1502 25.52000 315.05284 336.00000 0.00298
1503 25.53500 314.58543 292.00000 0.00342
1504 25.55000 314.13272 326.00000 0.00307
1505 25.56500 313.69446 296.00000 0.00338
1506 25.58000 313.27048 315.00000 0.00317
1507 25.59500 312.86069 295.00000 0.00339
1508 25.61000 312.46507 280.00000 0.00357
1509 25.62500 312.08369 274.00000 0.00365
1510 25.64000 311.71671 288.00000 0.00347
1511 25.65500 311.36438 307.00000 0.00326
1512 25.67000 311.02703 278.00000 0.00360
1513 25.68500 310.70511 289.00000 0.00346
1514 25.70000 310.39914 281.00000 0.00356
1515 25.71500 310.10981 282.00000 0.00355
1516 25.73000 309.83791 293.00000 0.00341
1517 25.74500 309.58436 283.00000 0.00353
1518 25.76000 309.35028 312.00000 0.00321
1519 25.77500 309.13696 295.00000 0.00339
1520 25.79000 308.94588 329.00000 0.00304
1521 25.80500 308.77877 323.00000 0.00310
1522 25.82000 308.63766 284.00000 0.00352
1523 25.83500 308.52485 282.00000 0.00355
1524 25.85000 308.44303 287.00000 0.00348
1525 25.86500 308.39531 304.00000 0.00329
1526 25.88000 308.38530 293.00000 0.00341
1527 25.89500 308.41721 290.00000 0.00345
1528 25.91000 308.49596 285.00000 0.00351
1529 25.92500 308.62732 286.00000 0.00350
1530 25.94000 308.81849 285.00000 0.00351
1531 25.95500 309.07779 316.00000 0.00316
1532 25.97000 309.41522 333.00000 0.00300
1533 25.98500 309.84308 311.00000 0.00322
1534 26.00000 310.37678 285.00000 0.00351
1535 26.01500 311.03693 286.00000 0.00350
1536 26.03000 311.85444 303.00000 0.00330
1537 26.04500 312.81800 286.00000 0.00350
1538 26.06000 313.98647 306.00000 0.00327
1539 26.07500 315.40355 323.00000 0.00310
1540 26.09000 317.12539 323.00000 0.00310
1541 26.10500 319.22450 288.00000 0.00347
1542 26.12000 321.79464 319.00000 0.00313
1543 26.13500 324.95656 327.00000 0.00306
1544 26.15000 328.86416 363.00000 0.00275
1545 26.16500 333.70954 359.00000 0.00279
1546 26.18000 339.72414 340.00000 0.00294
1547 26.19500 347.17071 354.00000 0.00282
1548 26.21000 356.31988 361.00000 0.00277
1549 26.22500 367.40809 413.00000 0.00242
1550 26.24000 380.58186 435.00000 0.00230
1551 26.25500 395.83721 429.00000 0.00233
1552 26.27000 412.95226 489.00000 0.00204
1553 26.28500 431.38726 466.00000 0.00215
1554 26.30000 450.13962 509.00000 0.00196
1555 26.31500 467.55724 549.00000 0.00182
1556 26.33000 481.24221 566.00000 0.00177
1557 26.34500 488.34365 553.00000 0.00181
1558 26.36000 486.55776 522.00000 0.00192
1559 26.37500 475.55493 529.00000 0.00189
1560 26.39000 457.58143 526.00000 0.00190
1561 26.40500 436.35475 521.00000 0.00192
1562 26.42000 415.25321 466.00000 0.00215
1563 26.43500 396.34049 432.00000 0.00231
1564 26.45000 380.44473 396.00000 0.00253
1565 26.46500 367.64181 372.00000 0.00269
1566 26.48000 357.67173 396.00000 0.00253
1567 26.49500 350.18389 380.00000 0.00263
1568 26.51000 344.83629 375.00000 0.00267
1569 26.52500 341.35903 326.00000 0.00307
1570 26.54000 339.57592 324.00000 0.00309
1571 26.55500 339.38248 338.00000 0.00296
1572 26.57000 340.73659 326.00000 0.00307
1573 26.58500 343.62989 330.00000 0.00303
1574 26.60000 348.04969 331.00000 0.00302
1575 26.61500 353.93708 377.00000 0.00265
1576 26.63000 361.14363 373.00000 0.00268
1577 26.64500 369.37786 398.00000 0.00251
1578 26.66000 378.12752 400.00000 0.00250
1579 26.67500 386.55774 424.00000 0.00236
1580 26.69000 393.43488 461.00000 0.00217
1581 26.70500 397.21668 472.00000 0.00212
1582 26.72000 396.49997 471.00000 0.00212
1583 26.73500 390.79073 457.00000 0.00219
1584 26.75000 381.00724 405.00000 0.00247
1585 26.76500 369.04295 371.00000 0.00270
1586 26.78000 356.81575 380.00000 0.00263
1587 26.79500 345.58166 342.00000 0.00292
1588 26.81000 335.89382 313.00000 0.00319
1589 26.82500 327.83498 302.00000 0.00331
1590 26.84000 321.26194 278.00000 0.00360
1591 26.85500 315.95451 292.00000 0.00342
1592 26.87000 311.68750 288.00000 0.00347
1593 26.88500 308.25975 279.00000 0.00358
1594 26.90000 305.50302 289.00000 0.00346
1595 26.91500 303.28212 275.00000 0.00364
1596 26.93000 301.49152 260.00000 0.00385
1597 26.94500 300.05063 274.00000 0.00365
1598 26.96000 298.89904 274.00000 0.00365
1599 26.97500 297.99214 270.00000 0.00370
1600 26.99000 297.29745 267.00000 0.00375
1601 27.00500 296.79182 281.00000 0.00356
1602 27.02000 296.45926 285.00000 0.00351
1603 27.03500 296.28952 266.00000 0.00376
1604 27.05000 296.27701 279.00000 0.00358
1605 27.06500 296.42029 269.00000 0.00372
1606 27.08000 296.72168 279.00000 0.00358
1607 27.09500 297.18719 268.00000 0.00373
1608 27.11000 297.82666 273.00000 0.00366
1609 27.12500 298.65406 280.00000 0.00357
1610 27.14000 299.68807 283.00000 0.00353
1611 27.15500 300.95285 274.00000 0.00365
1612 27.17000 302.47927 283.00000 0.00353
1613 27.18500 304.30649 265.00000 0.00377
1614 27.20000 306.48428 269.00000 0.00372
1615 27.21500 309.07593 310.00000 0.00323
1616 27.23000 312.16243 297.00000 0.00337
1617 27.24500 315.84818 273.00000 0.00366
1618 27.26000 320.26846 272.00000 0.00368
1619 27.27500 325.60174 285.00000 0.00351
1620 27.29000 332.06251 335.00000 0.00299
1621 27.30500 339.94850 315.00000 0.00317
1622 27.32000 349.62785 274.00000 0.00365
1623 27.33500 361.55485 307.00000 0.00326
1624 27.35000 376.26438 346.00000 0.00289
1625 27.36500 394.33911 363.00000 0.00275
1626 27.38000 416.33713 359.00000 0.00279
1627 27.39500 442.67515 399.00000 0.00251
1628 27.41000 473.48458 481.00000 0.00208
1629 27.42500 508.45144 519.00000 0.00193
1630 27.44000 546.61256 554.00000 0.00181
1631 27.45500 586.05455 618.00000 0.00162
1632 27.47000 623.52153 687.00000 0.00146
1633 27.48500 654.15108 762.00000 0.00131
1634 27.50000 671.92969 776.00000 0.00129
1635 27.51500 671.60673 775.00000 0.00129
1636 27.53000 651.73925 745.00000 0.00134
1637 27.54500 616.35314 672.00000 0.00149
1638 27.56000 573.06495 594.00000 0.00168
1639 27.57500 529.19094 552.00000 0.00181
1640 27.59000 489.37373 503.00000 0.00199
1641 27.60500 455.54273 463.00000 0.00216
1642 27.62000 427.90968 430.00000 0.00233
1643 27.63500 405.88998 378.00000 0.00265
1644 27.65000 388.65104 388.00000 0.00258
1645 27.66500 375.37145 390.00000 0.00256
1646 27.68000 365.34305 348.00000 0.00287
1647 27.69500 358.00087 348.00000 0.00287
1648 27.71000 352.92342 388.00000 0.00258
1649 27.72500 349.82221 352.00000 0.00284
1650 27.74000 348.52830 317.00000 0.00315
1651 27.75500 348.97884 357.00000 0.00280
1652 27.77000 351.20301 337.00000 0.00297
1653 27.78500 355.30402 366.00000 0.00273
1654 27.80000 361.43071 374.00000 0.00267
1655 27.81500 369.73357 373.00000 0.00268
1656 27.83000 380.30506 411.00000 0.00243
1657 27.84500 393.11140 398.00000 0.00251
1658 27.86000 407.91635 416.00000 0.00240
1659 27.87500 424.18018 458.00000 0.00218
1660 27.89000 440.91569 472.00000 0.00212
1661 27.90500 456.52812 467.00000 0.00214
1662 27.92000 468.79117 446.00000 0.00224
1663 27.93500 475.25964 458.00000 0.00218
1664 27.95000 474.32493 480.00000 0.00208
1665 27.96500 466.39652 464.00000 0.00216
1666 27.98000 454.00206 449.00000 0.00223
1667 27.99500 440.47680 468.00000 0.00214
1668 28.01000 428.50469 441.00000 0.00227
1669 28.02500 419.60010 470.00000 0.00213
1670 28.04000 414.36616 435.00000 0.00230
1671 28.05500 412.93842 447.00000 0.00224
1672 28.07000 415.31350 479.00000 0.00209
1673 28.08500 421.53480 446.00000 0.00224
1674 28.10000 431.78965 465.00000 0.00215
1675 28.11500 446.46427 446.00000 0.00224
1676 28.13000 466.18049 540.00000 0.00185
1677 28.14500 491.81968 549.00000 0.00182
1678 28.16000 524.52656 577.00000 0.00173
1679 28.17500 565.67453 627.00000 0.00159
1680 28.19000 616.76088 702.00000 0.00142
1681 28.20500 679.18977 739.00000 0.00135
1682 28.22000 753.91180 823.00000 0.00122
1683 28.23500 840.93900 874.00000 0.00114
1684 28.25000 938.79166 962.00000 0.00104
1685 28.26500 1043.90774 1086.00000 0.00092
1686 28.28000 1150.02794 1194.00000 0.00084
1687 28.29500 1247.64466 1260.00000 0.00079
1688 28.31000 1323.81547 1256.00000 0.00080
1689 28.32500 1363.35951 1356.00000 0.00074
1690 28.34000 1353.36858 1307.00000 0.00077
1691 28.35500 1290.83387 1219.00000 0.00082
1692 28.37000 1187.13107 1134.00000 0.00088
1693 28.38500 1063.00200 1143.00000 0.00087
1694 28.40000 938.18226 955.00000 0.00105
1695 28.41500 825.01435 865.00000 0.00116
1696 28.43000 728.42464 748.00000 0.00134
1697 28.44500 648.69416 711.00000 0.00141
1698 28.46000 583.98959 635.00000 0.00157
1699 28.47500 531.81955 579.00000 0.00173
1700 28.49000 489.79455 486.00000 0.00206
1701 28.50500 455.82278 488.00000 0.00205
1702 28.52000 428.18493 485.00000 0.00206
1703 28.53500 405.51254 415.00000 0.00241
1704 28.55000 386.73841 440.00000 0.00227
1705 28.56500 371.04095 395.00000 0.00253
1706 28.58000 357.79191 386.00000 0.00259
1707 28.59500 346.51131 378.00000 0.00265
1708 28.61000 336.83087 320.00000 0.00312
1709 28.62500 328.46569 332.00000 0.00301
1710 28.64000 321.19300 331.00000 0.00302
1711 28.65500 314.83654 362.00000 0.00276
1712 28.67000 309.25534 312.00000 0.00321
1713 28.68500 304.33548 309.00000 0.00324
1714 28.70000 299.98411 308.00000 0.00325
1715 28.71500 296.12504 306.00000 0.00327
1716 28.73000 292.69534 305.00000 0.00328
1717 28.74500 289.64285 275.00000 0.00364
1718 28.76000 286.92412 277.00000 0.00361
1719 28.77500 284.50281 295.00000 0.00339
1720 28.79000 282.34860 292.00000 0.00342
1721 28.80500 280.43622 282.00000 0.00355
1722 28.82000 278.74463 277.00000 0.00361
1723 28.83500 277.25644 266.00000 0.00376
1724 28.85000 275.95755 287.00000 0.00348
1725 28.86500 274.83656 264.00000 0.00379
1726 28.88000 273.88456 282.00000 0.00355
1727 28.89500 273.09493 290.00000 0.00345
1728 28.91000 272.46353 252.00000 0.00397
1729 28.92500 271.99166 262.00000 0.00382
1730 28.94000 271.66045 277.00000 0.00361
1731 28.95500 271.48104 283.00000 0.00353
1732 28.97000 271.47831 271.00000 0.00369
1733 28.98500 271.64172 299.00000 0.00334
1734 29.00000 271.97967 292.00000 0.00342
1735 29.01500 272.50334 287.00000 0.00348
1736 29.03000 273.22707 285.00000 0.00351
1737 29.04500 274.16894 276.00000 0.00362
1738 29.06000 275.35140 288.00000 0.00347
1739 29.07500 276.80220 286.00000 0.00350
1740 29.09000 278.55556 281.00000 0.00356
1741 29.10500 280.65375 279.00000 0.00358
1742 29.12000 283.14905 263.00000 0.00380
1743 29.13500 286.10649 282.00000 0.00355
1744 29.15000 289.60754 303.00000 0.00330
1745 29.16500 293.75503 301.00000 0.00332
1746 29.18000 298.68062 322.00000 0.00311
1747 29.19500 304.54678 315.00000 0.00317
1748 29.21000 311.57096 311.00000 0.00322
1749 29.22500 320.03047 346.00000 0.00289
1750 29.24000 330.28296 375.00000 0.00267
1751 29.25500 342.78657 372.00000 0.00269
1752 29.27000 358.11885 364.00000 0.00275
1753 29.28500 376.98601 350.00000 0.00286
1754 29.30000 400.20597 391.00000 0.00256
1755 29.31500 428.63999 448.00000 0.00223
1756 29.33000 463.04950 462.00000 0.00216
1757 29.34500 503.87643 511.00000 0.00196
1758 29.36000 550.96885 549.00000 0.00182
1759 29.37500 603.25002 605.00000 0.00165
1760 29.39000 658.27296 667.00000 0.00150
1761 29.40500 711.64300 693.00000 0.00144
1762 29.42000 756.58317 715.00000 0.00140
1763 29.43500 784.48978 788.00000 0.00127
1764 29.45000 787.61779 767.00000 0.00130
1765 29.46500 763.53739 772.00000 0.00130
1766 29.48000 717.76366 750.00000 0.00133
1767 29.49500 661.09660 679.00000 0.00147
1768 29.51000 603.97973 662.00000 0.00151
1769 29.52500 553.00879 571.00000 0.00175
1770 29.54000 510.90059 510.00000 0.00196
1771 29.55500 477.97603 487.00000 0.00205
1772 29.57000 453.51350 445.00000 0.00225
1773 29.58500 436.54305 430.00000 0.00233
1774 29.60000 426.21434 405.00000 0.00247
1775 29.61500 421.93429 439.00000 0.00228
1776 29.63000 423.39539 467.00000 0.00214
1777 29.64500 430.54690 450.00000 0.00222
1778 29.66000 443.52375 419.00000 0.00239
1779 29.67500 462.53483 467.00000 0.00214
1780 29.69000 487.70856 535.00000 0.00187
1781 29.70500 518.88081 569.00000 0.00176
1782 29.72000 555.29837 576.00000 0.00174
1783 29.73500 595.24499 585.00000 0.00171
1784 29.75000 635.70596 712.00000 0.00140
1785 29.76500 672.36462 673.00000 0.00149
1786 29.78000 700.29627 670.00000 0.00149
1787 29.79500 715.24223 703.00000 0.00142
1788 29.81000 714.51651 664.00000 0.00151
1789 29.82500 697.13285 629.00000 0.00159
1790 29.84000 664.28598 583.00000 0.00172
1791 29.85500 620.24137 557.00000 0.00180
1792 29.87000 571.56471 520.00000 0.00192
1793 29.88500 524.49845 477.00000 0.00210
1794 29.90000 482.97791 448.00000 0.00223
1795 29.91500 448.50598 428.00000 0.00234
1796 29.93000 421.04324 394.00000 0.00254
1797 29.94500 399.88195 379.00000 0.00264
1798 29.96000 384.17413 349.00000 0.00287
1799 29.97500 373.17658 352.00000 0.00284
1800 29.99000 366.34010 364.00000 0.00275
1801 30.00500 363.32765 351.00000 0.00285
1802 30.02000 364.00040 329.00000 0.00304
1803 30.03500 368.38082 315.00000 0.00317
1804 30.05000 376.58736 317.00000 0.00315
1805 30.06500 388.73164 340.00000 0.00294
1806 30.08000 404.78112 373.00000 0.00268
1807 30.09500 424.38945 429.00000 0.00233
1808 30.11000 446.69953 444.00000 0.00225
1809 30.12500 470.08919 420.00000 0.00238
1810 30.14000 491.87283 434.00000 0.00230
1811 30.15500 508.24316 468.00000 0.00214
1812 30.17000 514.97575 495.00000 0.00202
1813 30.18500 509.26768 493.00000 0.00203
1814 30.20000 491.77436 467.00000 0.00214
1815 30.21500 466.70571 467.00000 0.00214
1816 30.23000 439.49942 452.00000 0.00221
1817 30.24500 414.36060 420.00000 0.00238
1818 30.26000 393.48000 375.00000 0.00267
1819 30.27500 377.53799 334.00000 0.00299
1820 30.29000 366.46041 362.00000 0.00276
1821 30.30500 359.94328 364.00000 0.00275
1822 30.32000 357.73313 343.00000 0.00292
1823 30.33500 359.69534 345.00000 0.00290
1824 30.35000 365.91027 343.00000 0.00292
1825 30.36500 376.57911 356.00000 0.00281
1826 30.38000 391.94379 356.00000 0.00281
1827 30.39500 412.13142 393.00000 0.00254
1828 30.41000 436.95105 430.00000 0.00233
1829 30.42500 465.64891 499.00000 0.00200
1830 30.44000 496.59489 510.00000 0.00196
1831 30.45500 526.89118 545.00000 0.00183
1832 30.47000 552.08685 595.00000 0.00168
1833 30.48500 566.56013 581.00000 0.00172
1834 30.50000 565.34927 568.00000 0.00176
1835 30.51500 547.05828 560.00000 0.00179
1836 30.53000 515.42103 503.00000 0.00199
1837 30.54500 477.36009 440.00000 0.00227
1838 30.56000 439.31721 420.00000 0.00238
1839 30.57500 405.16451 380.00000 0.00263
1840 30.59000 376.32395 333.00000 0.00300
1841 30.60500 352.75570 339.00000 0.00295
1842 30.62000 333.80234 333.00000 0.00300
1843 30.63500 318.66090 316.00000 0.00316
1844 30.65000 306.58647 300.00000 0.00333
1845 30.66500 296.95670 278.00000 0.00360
1846 30.68000 289.27672 269.00000 0.00372
1847 30.69500 283.16337 266.00000 0.00376
1848 30.71000 278.32474 261.00000 0.00383
1849 30.72500 274.54197 297.00000 0.00337
1850 30.74000 271.64763 258.00000 0.00388
1851 30.75500 269.52209 268.00000 0.00373
1852 30.77000 268.07973 249.00000 0.00402
1853 30.78500 267.26139 251.00000 0.00398
1854 30.80000 267.03043 250.00000 0.00400
1855 30.81500 267.36971 261.00000 0.00383
1856 30.83000 268.27989 250.00000 0.00400
1857 30.84500 269.77893 265.00000 0.00377
1858 30.86000 271.90249 272.00000 0.00368
1859 30.87500 274.70558 256.00000 0.00391
1860 30.89000 278.26564 280.00000 0.00357
1861 30.90500 282.68940 276.00000 0.00362
1862 30.92000 288.10220 285.00000 0.00351
1863 30.93500 294.68457 293.00000 0.00341
1864 30.95000 302.66228 285.00000 0.00351
1865 30.96500 312.34723 294.00000 0.00340
1866 30.98000 324.11129 289.00000 0.00346
1867 30.99500 338.45006 315.00000 0.00317
1868 31.01000 356.00641 336.00000 0.00298
1869 31.02500 377.60392 388.00000 0.00258
1870 31.04000 404.27876 362.00000 0.00276
1871 31.05500 437.28467 435.00000 0.00230
1872 31.07000 478.03206 471.00000 0.00212
1873 31.08500 527.90617 504.00000 0.00198
1874 31.10000 587.92333 575.00000 0.00174
1875 31.11500 658.23241 676.00000 0.00148
1876 31.13000 737.48426 825.00000 0.00121
1877 31.14500 822.02076 877.00000 0.00114
1878 31.16000 904.85575 1003.00000 0.00100
1879 31.17500 974.87080 1046.00000 0.00096
1880 31.19000 1017.69914 1141.00000 0.00088
1881 31.20500 1020.28166 1118.00000 0.00089
1882 31.22000 978.53072 1119.00000 0.00089
1883 31.23500 901.71596 958.00000 0.00104
1884 31.25000 807.65550 884.00000 0.00113
1885 31.26500 713.09327 799.00000 0.00125
1886 31.28000 628.09746 710.00000 0.00141
1887 31.29500 556.32524 627.00000 0.00159
1888 31.31000 497.62544 532.00000 0.00188
1889 31.32500 450.26449 518.00000 0.00193
1890 31.34000 412.16143 428.00000 0.00234
1891 31.35500 381.40953 403.00000 0.00248
1892 31.37000 356.43118 377.00000 0.00265
1893 31.38500 335.97939 382.00000 0.00262
1894 31.40000 319.08807 366.00000 0.00273
1895 31.41500 305.01357 338.00000 0.00296
1896 31.43000 293.17544 306.00000 0.00327
1897 31.44500 283.16647 301.00000 0.00332
1898 31.46000 274.62536 293.00000 0.00341
1899 31.47500 267.28542 268.00000 0.00373
1900 31.49000 260.93660 258.00000 0.00388
1901 31.50500 255.41221 297.00000 0.00337
1902 31.52000 250.57887 273.00000 0.00366
1903 31.53500 246.32912 247.00000 0.00405
1904 31.55000 242.57569 273.00000 0.00366
1905 31.56500 239.24729 250.00000 0.00400
1906 31.58000 236.28529 239.00000 0.00418
1907 31.59500 233.64121 240.00000 0.00417
1908 31.61000 231.27477 239.00000 0.00418
1909 31.62500 229.15235 244.00000 0.00410
1910 31.64000 227.24578 257.00000 0.00389
1911 31.65500 225.53138 240.00000 0.00417
1912 31.67000 223.98925 220.00000 0.00455
1913 31.68500 222.60261 207.00000 0.00483
1914 31.70000 221.35763 216.00000 0.00463
1915 31.71500 220.24282 227.00000 0.00441
1916 31.73000 219.24864 239.00000 0.00418
1917 31.74500 218.36767 233.00000 0.00429
1918 31.76000 217.59685 201.00000 0.00498
1919 31.77500 216.92740 191.00000 0.00524
1920 31.79000 216.34405 204.00000 0.00490
1921 31.80500 215.85423 221.00000 0.00452
1922 31.82000 215.45684 218.00000 0.00459
1923 31.83500 215.15221 213.00000 0.00469
1924 31.85000 214.93796 231.00000 0.00433
1925 31.86500 214.81850 216.00000 0.00463
1926 31.88000 214.79758 234.00000 0.00427
1927 31.89500 214.88207 206.00000 0.00485
1928 31.91000 215.07835 223.00000 0.00448
1929 31.92500 215.39607 214.00000 0.00467
1930 31.94000 215.84758 210.00000 0.00476
1931 31.95500 216.44860 217.00000 0.00461
1932 31.97000 217.21901 230.00000 0.00435
1933 31.98500 218.18394 249.00000 0.00402
1934 32.00000 219.37531 220.00000 0.00455
1935 32.01500 220.83386 220.00000 0.00455
1936 32.03000 222.61128 236.00000 0.00424
1937 32.04500 224.77446 232.00000 0.00431
1938 32.06000 227.40928 248.00000 0.00403
1939 32.07500 230.62590 252.00000 0.00397
1940 32.09000 234.56457 260.00000 0.00385
1941 32.10500 239.40067 249.00000 0.00402
1942 32.12000 245.34631 261.00000 0.00383
1943 32.13500 252.64256 258.00000 0.00388
1944 32.15000 261.53356 270.00000 0.00370
1945 32.16500 272.21366 265.00000 0.00377
1946 32.18000 284.74458 293.00000 0.00341
1947 32.19500 298.94663 309.00000 0.00324
1948 32.21000 314.26008 323.00000 0.00310
1949 32.22500 329.60266 326.00000 0.00307
1950 32.24000 343.24385 356.00000 0.00281
1951 32.25500 352.93294 354.00000 0.00282
1952 32.27000 356.54475 352.00000 0.00284
1953 32.28500 353.26914 345.00000 0.00290
1954 32.30000 344.37503 353.00000 0.00283
1955 32.31500 332.66128 336.00000 0.00298
1956 32.33000 321.00857 316.00000 0.00316
1957 32.34500 311.38102 314.00000 0.00318
1958 32.36000 304.74286 303.00000 0.00330
1959 32.37500 301.43201 317.00000 0.00315
1960 32.39000 301.53488 332.00000 0.00301
1961 32.40500 305.11902 317.00000 0.00315
1962 32.42000 312.34329 335.00000 0.00299
1963 32.43500 323.48785 328.00000 0.00305
1964 32.45000 338.91111 338.00000 0.00296
1965 32.46500 358.96880 324.00000 0.00309
1966 32.48000 383.83048 389.00000 0.00257
1967 32.49500 413.24679 417.00000 0.00240
1968 32.51000 446.24958 473.00000 0.00211
1969 32.52500 480.79273 486.00000 0.00206
1970 32.54000 513.42584 493.00000 0.00203
1971 32.55500 539.34288 551.00000 0.00181
1972 32.57000 553.38362 588.00000 0.00170
1973 32.58500 552.12888 582.00000 0.00172
1974 32.60000 535.77497 519.00000 0.00193
1975 32.61500 507.88861 515.00000 0.00194
1976 32.63000 473.36526 493.00000 0.00203
1977 32.64500 436.73087 452.00000 0.00221
1978 32.66000 401.49693 423.00000 0.00236
1979 32.67500 369.92998 380.00000 0.00263
1980 32.69000 343.04786 377.00000 0.00265
1981 32.70500 320.92432 382.00000 0.00262
1982 32.72000 303.11838 311.00000 0.00322
1983 32.73500 289.01315 289.00000 0.00346
1984 32.75000 278.00451 297.00000 0.00337
1985 32.76500 269.57928 266.00000 0.00376
1986 32.78000 263.36310 248.00000 0.00403
1987 32.79500 259.07831 258.00000 0.00388
1988 32.81000 256.52179 247.00000 0.00405
1989 32.82500 255.56442 252.00000 0.00397
1990 32.84000 256.10049 260.00000 0.00385
1991 32.85500 257.99574 261.00000 0.00383
1992 32.87000 261.02249 261.00000 0.00383
1993 32.88500 264.81548 235.00000 0.00426
1994 32.90000 268.77974 248.00000 0.00403
1995 32.91500 272.08430 255.00000 0.00392
1996 32.93000 273.74624 256.00000 0.00391
1997 32.94500 272.96240 262.00000 0.00382
1998 32.96000 269.56941 259.00000 0.00386
1999 32.97500 264.23916 246.00000 0.00407
2000 32.99000 258.13684 255.00000 0.00392
2001 33.00500 252.35261 245.00000 0.00408
2002 33.02000 247.58797 236.00000 0.00424
2003 33.03500 244.17405 209.00000 0.00478
2004 33.05000 242.22437 227.00000 0.00441
2005 33.06500 241.77069 240.00000 0.00417
2006 33.08000 242.84278 253.00000 0.00395
2007 33.09500 245.50199 248.00000 0.00403
2008 33.11000 249.84163 254.00000 0.00394
2009 33.12500 255.95845 255.00000 0.00392
2010 33.14000 263.89420 276.00000 0.00362
2011 33.15500 273.54837 311.00000 0.00322
2012 33.17000 284.56828 320.00000 0.00312
2013 33.18500 296.22325 320.00000 0.00312
2014 33.20000 307.28556 342.00000 0.00292
2015 33.21500 316.01268 371.00000 0.00270
2016 33.23000 320.43460 390.00000 0.00256
2017 33.24500 319.10323 373.00000 0.00268
2018 33.26000 311.99000 319.00000 0.00313
2019 33.27500 300.69440 292.00000 0.00342
2020 33.29000 287.60346 328.00000 0.00305
2021 33.30500 274.77935 322.00000 0.00311
2022 33.32000 263.44067 292.00000 0.00342
2023 33.33500 254.05900 261.00000 0.00383
2024 33.35000 246.66460 258.00000 0.00388
2025 33.36500 241.09877 253.00000 0.00395
2026 33.38000 237.15921 242.00000 0.00413
2027 33.39500 234.66873 255.00000 0.00392
2028 33.41000 233.50312 266.00000 0.00376
2029 33.42500 233.60135 276.00000 0.00362
2030 33.44000 234.95644 254.00000 0.00394
2031 33.45500 237.62477 269.00000 0.00372
2032 33.47000 241.69969 266.00000 0.00376
2033 33.48500 247.28461 224.00000 0.00446
2034 33.50000 254.44251 217.00000 0.00461
2035 33.51500 263.12181 231.00000 0.00433
2036 33.53000 273.06208 259.00000 0.00386
2037 33.54500 283.68637 257.00000 0.00389
2038 33.56000 293.99827 248.00000 0.00403
2039 33.57500 302.55345 254.00000 0.00394
2040 33.59000 307.66647 285.00000 0.00351
2041 33.60500 308.00241 293.00000 0.00341
2042 33.62000 303.35672 295.00000 0.00339
2043 33.63500 294.94968 291.00000 0.00344
2044 33.65000 284.82094 284.00000 0.00352
2045 33.66500 274.86680 268.00000 0.00373
2046 33.68000 266.30787 261.00000 0.00383
2047 33.69500 259.71048 261.00000 0.00383
2048 33.71000 255.23841 244.00000 0.00410
2049 33.72500 252.88340 250.00000 0.00400
2050 33.74000 252.60633 217.00000 0.00461
2051 33.75500 254.40641 218.00000 0.00459
2052 33.77000 258.34603 236.00000 0.00424
2053 33.78500 264.54686 273.00000 0.00366
2054 33.80000 273.16077 278.00000 0.00360
2055 33.81500 284.31197 296.00000 0.00338
2056 33.83000 298.00332 295.00000 0.00339
2057 33.84500 313.98345 281.00000 0.00356
2058 33.86000 331.58936 336.00000 0.00298
2059 33.87500 349.61293 344.00000 0.00291
2060 33.89000 366.26398 363.00000 0.00275
2061 33.90500 379.30854 382.00000 0.00262
2062 33.92000 386.40516 363.00000 0.00275
2063 33.93500 385.68580 348.00000 0.00287
2064 33.95000 376.60568 343.00000 0.00292
2065 33.96500 360.56752 348.00000 0.00287
2066 33.98000 340.50871 316.00000 0.00316
2067 33.99500 319.58136 310.00000 0.00323
2068 34.01000 300.04975 289.00000 0.00346
2069 34.02500 283.03611 299.00000 0.00334
2070 34.04000 268.82342 266.00000 0.00376
2071 34.05500 257.24631 280.00000 0.00357
2072 34.07000 247.96318 269.00000 0.00372
2073 34.08500 240.60032 237.00000 0.00422
2074 34.10000 234.81497 246.00000 0.00407
2075 34.11500 230.31691 209.00000 0.00478
2076 34.13000 226.87159 229.00000 0.00437
2077 34.14500 224.29567 209.00000 0.00478
2078 34.16000 222.45010 218.00000 0.00459
2079 34.17500 221.23289 213.00000 0.00469
2080 34.19000 220.57256 241.00000 0.00415
2081 34.20500 220.42278 234.00000 0.00427
2082 34.22000 220.75868 224.00000 0.00446
2083 34.23500 221.57335 248.00000 0.00403
2084 34.25000 222.87657 264.00000 0.00379
2085 34.26500 224.69750 248.00000 0.00403
2086 34.28000 227.08512 262.00000 0.00382
2087 34.29500 230.10420 252.00000 0.00397
2088 34.31000 233.84640 249.00000 0.00402
2089 34.32500 238.44443 271.00000 0.00369
2090 34.34000 244.06934 268.00000 0.00373
2091 34.35500 250.94621 279.00000 0.00358
2092 34.37000 259.36787 284.00000 0.00352
2093 34.38500 269.71012 303.00000 0.00330
2094 34.40000 282.44632 327.00000 0.00306
2095 34.41500 298.15660 332.00000 0.00301
2096 34.43000 317.52387 337.00000 0.00297
2097 34.44500 341.30044 374.00000 0.00267
2098 34.46000 370.22247 387.00000 0.00258
2099 34.47500 404.83351 397.00000 0.00252
2100 34.49000 445.20395 388.00000 0.00258
2101 34.50500 490.54519 455.00000 0.00220
2102 34.52000 538.75399 489.00000 0.00204
2103 34.53500 585.97017 530.00000 0.00189
2104 34.55000 626.38249 583.00000 0.00172
2105 34.56500 652.83723 582.00000 0.00172
2106 34.58000 658.90881 642.00000 0.00156
2107 34.59500 642.08609 589.00000 0.00170
2108 34.61000 605.76989 566.00000 0.00177
2109 34.62500 557.78888 567.00000 0.00176
2110 34.64000 506.54289 509.00000 0.00196
2111 34.65500 458.07102 485.00000 0.00206
2112 34.67000 415.45265 443.00000 0.00226
2113 34.68500 379.60449 405.00000 0.00247
2114 34.70000 350.27107 351.00000 0.00285
2115 34.71500 326.71186 345.00000 0.00290
2116 34.73000 308.07070 343.00000 0.00292
2117 34.74500 293.54290 295.00000 0.00339
2118 34.76000 282.43575 296.00000 0.00338
2119 34.77500 274.17634 280.00000 0.00357
2120 34.79000 268.29214 305.00000 0.00328
2121 34.80500 264.37590 271.00000 0.00369
2122 34.82000 262.04221 263.00000 0.00380
2123 34.83500 260.89301 256.00000 0.00391
2124 34.85000 260.46219 275.00000 0.00364
2125 34.86500 260.23330 268.00000 0.00373
2126 34.88000 259.70884 253.00000 0.00395
2127 34.89500 258.57602 279.00000 0.00358
2128 34.91000 256.88158 262.00000 0.00382
2129 34.92500 255.03554 269.00000 0.00372
2130 34.94000 253.62833 257.00000 0.00389
2131 34.95500 253.21579 250.00000 0.00400
2132 34.97000 254.22653 250.00000 0.00400
2133 34.98500 256.98635 278.00000 0.00360
2134 35.00000 261.78167 261.00000 0.00383
2135 35.01500 268.90872 267.00000 0.00375
2136 35.03000 278.69002 274.00000 0.00365
2137 35.04500 291.45257 276.00000 0.00362
2138 35.06000 307.45990 322.00000 0.00311
2139 35.07500 326.77153 352.00000 0.00284
2140 35.09000 349.07197 363.00000 0.00275
2141 35.10500 373.42758 414.00000 0.00242
2142 35.12000 398.04647 444.00000 0.00225
2143 35.13500 420.13359 454.00000 0.00220
2144 35.15000 436.06912 503.00000 0.00199
2145 35.16500 442.24903 460.00000 0.00217
2146 35.18000 436.61083 469.00000 0.00213
2147 35.19500 419.95968 438.00000 0.00228
2148 35.21000 395.78163 395.00000 0.00253
2149 35.22500 368.51574 384.00000 0.00260
2150 35.24000 341.78617 344.00000 0.00291
2151 35.25500 317.71544 332.00000 0.00301
2152 35.27000 297.15699 326.00000 0.00307
2153 35.28500 280.18168 277.00000 0.00361
2154 35.30000 266.51654 254.00000 0.00394
2155 35.31500 255.76259 247.00000 0.00405
2156 35.33000 247.52291 250.00000 0.00400
2157 35.34500 241.45514 252.00000 0.00397
2158 35.36000 237.28903 224.00000 0.00446
2159 35.37500 234.82547 226.00000 0.00442
2160 35.39000 233.92268 246.00000 0.00407
2161 35.40500 234.46977 222.00000 0.00450
2162 35.42000 236.34632 215.00000 0.00465
2163 35.43500 239.36774 237.00000 0.00422
2164 35.45000 243.22089 228.00000 0.00439
2165 35.46500 247.40079 228.00000 0.00439
2166 35.48000 251.17313 252.00000 0.00397
2167 35.49500 253.61966 233.00000 0.00429
2168 35.51000 253.84358 234.00000 0.00427
2169 35.52500 251.33368 225.00000 0.00444
2170 35.54000 246.27282 209.00000 0.00478
2171 35.55500 239.48491 221.00000 0.00452
2172 35.57000 232.02186 212.00000 0.00472
2173 35.58500 224.74374 224.00000 0.00446
2174 35.60000 218.15120 230.00000 0.00435
2175 35.61500 212.45929 212.00000 0.00472
2176 35.63000 207.68445 196.00000 0.00510
2177 35.64500 203.74224 212.00000 0.00472
2178 35.66000 200.52437 172.00000 0.00581
2179 35.67500 197.91950 167.00000 0.00599
2180 35.69000 195.82619 187.00000 0.00535
2181 35.70500 194.15781 194.00000 0.00515
2182 35.72000 192.84349 174.00000 0.00575
2183 35.73500 191.82740 195.00000 0.00513
2184 35.75000 191.06719 189.00000 0.00529
2185 35.76500 190.53225 177.00000 0.00565
2186 35.78000 190.20208 178.00000 0.00562
2187 35.79500 190.06382 185.00000 0.00541
2188 35.81000 190.11360 191.00000 0.00524
2189 35.82500 190.35503 180.00000 0.00556
2190 35.84000 190.79625 167.00000 0.00599
2191 35.85500 191.45140 188.00000 0.00532
2192 35.87000 192.34987 196.00000 0.00510
2193 35.88500 193.52908 178.00000 0.00562
2194 35.90000 195.03983 192.00000 0.00521
2195 35.91500 196.94934 192.00000 0.00521
2196 35.93000 199.34449 177.00000 0.00565
2197 35.94500 202.33478 220.00000 0.00455
2198 35.96000 206.05418 230.00000 0.00435
2199 35.97500 210.66055 205.00000 0.00488
2200 35.99000 216.33022 199.00000 0.00503
2201 36.00500 223.24124 203.00000 0.00493
2202 36.02000 231.54139 219.00000 0.00457
2203 36.03500 241.30753 223.00000 0.00448
2204 36.05000 252.44652 228.00000 0.00439
2205 36.06500 264.59373 218.00000 0.00459
2206 36.08000 277.01228 252.00000 0.00397
2207 36.09500 288.51889 267.00000 0.00375
2208 36.11000 297.54170 289.00000 0.00346
2209 36.12500 302.44315 267.00000 0.00375
2210 36.14000 302.14735 282.00000 0.00355
2211 36.15500 296.76697 281.00000 0.00356
2212 36.17000 287.67333 268.00000 0.00373
2213 36.18500 276.85786 261.00000 0.00383
2214 36.20000 266.12535 253.00000 0.00395
2215 36.21500 256.68008 262.00000 0.00382
2216 36.23000 249.14583 254.00000 0.00394
2217 36.24500 243.76756 245.00000 0.00408
2218 36.26000 240.60324 260.00000 0.00385
2219 36.27500 239.64638 240.00000 0.00417
2220 36.29000 240.88612 248.00000 0.00403
2221 36.30500 244.32404 276.00000 0.00362
2222 36.32000 249.95903 269.00000 0.00372
2223 36.33500 257.74198 287.00000 0.00348
2224 36.35000 267.50105 290.00000 0.00345
2225 36.36500 278.84183 303.00000 0.00330
2226 36.38000 291.04779 323.00000 0.00310
2227 36.39500 302.99598 369.00000 0.00271
2228 36.41000 313.18351 357.00000 0.00280
2229 36.42500 319.97204 346.00000 0.00289
2230 36.44000 321.85143 326.00000 0.00307
2231 36.45500 317.96796 337.00000 0.00297
2232 36.47000 308.65226 320.00000 0.00312
2233 36.48500 295.40569 307.00000 0.00326
2234 36.50000 280.28724 293.00000 0.00341
2235 36.51500 265.13137 278.00000 0.00360
2236 36.53000 251.12836 261.00000 0.00383
2237 36.54500 238.83412 235.00000 0.00426
2238 36.56000 228.37292 229.00000 0.00437
2239 36.57500 219.63754 234.00000 0.00427
2240 36.59000 212.42217 211.00000 0.00474
2241 36.60500 206.49513 214.00000 0.00467
2242 36.62000 201.63396 208.00000 0.00481
2243 36.63500 197.64058 207.00000 0.00483
2244 36.65000 194.34644 205.00000 0.00488
2245 36.66500 191.61255 207.00000 0.00483
2246 36.68000 189.32706 207.00000 0.00483
2247 36.69500 187.40166 184.00000 0.00543
2248 36.71000 185.76750 210.00000 0.00476
2249 36.72500 184.37129 183.00000 0.00546
2250 36.74000 183.17198 184.00000 0.00543
2251 36.75500 182.13731 179.00000 0.00559
2252 36.77000 181.24209 182.00000 0.00549
2253 36.78500 180.46679 179.00000 0.00559
2254 36.80000 179.79565 188.00000 0.00532
2255 36.81500 179.21593 158.00000 0.00633
2256 36.83000 178.71730 180.00000 0.00556
2257 36.84500 178.29132 201.00000 0.00498
2258 36.86000 177.93109 195.00000 0.00513
2259 36.87500 177.63100 178.00000 0.00562
2260 36.89000 177.38647 166.00000 0.00602
2261 36.90500 177.19393 180.00000 0.00556
2262 36.92000 177.05059 187.00000 0.00535
2263 36.93500 176.95444 199.00000 0.00503
2264 36.95000 176.90476 184.00000 0.00543
2265 36.96500 176.89930 200.00000 0.00500
2266 36.98000 176.93595 180.00000 0.00556
2267 36.99500 177.01648 172.00000 0.00581
2268 37.01000 177.14142 177.00000 0.00565
2269 37.02500 177.31183 180.00000 0.00556
2270 37.04000 177.52928 169.00000 0.00592
2271 37.05500 177.79589 161.00000 0.00621
2272 37.07000 178.11443 173.00000 0.00578
2273 37.08500 178.48835 149.00000 0.00671
2274 37.10000 178.92187 161.00000 0.00621
2275 37.11500 179.42110 177.00000 0.00565
2276 37.13000 179.98831 162.00000 0.00617
2277 37.14500 180.63225 174.00000 0.00575
2278 37.16000 181.36120 185.00000 0.00541
2279 37.17500 182.18477 186.00000 0.00538
2280 37.19000 183.11435 169.00000 0.00592
2281 37.20500 184.16348 191.00000 0.00524
2282 37.22000 185.34826 190.00000 0.00526
2283 37.23500 186.68801 167.00000 0.00599
2284 37.25000 188.20605 153.00000 0.00654
2285 37.26500 189.93083 189.00000 0.00529
2286 37.28000 191.89741 194.00000 0.00515
2287 37.29500 194.14949 200.00000 0.00500
2288 37.31000 196.74235 203.00000 0.00493
2289 37.32500 199.74614 227.00000 0.00441
2290 37.34000 203.25077 200.00000 0.00500
2291 37.35500 207.37320 193.00000 0.00518
2292 37.37000 212.26350 189.00000 0.00529
2293 37.38500 218.11311 223.00000 0.00448
2294 37.40000 225.16354 210.00000 0.00476
2295 37.41500 233.71345 227.00000 0.00441
2296 37.43000 244.12254 234.00000 0.00427
2297 37.44500 256.80937 249.00000 0.00402
2298 37.46000 272.23777 257.00000 0.00389
2299 37.47500 290.88316 275.00000 0.00364
2300 37.49000 313.16157 295.00000 0.00339
2301 37.50500 339.33054 346.00000 0.00289
2302 37.52000 369.29504 383.00000 0.00261
2303 37.53500 402.30075 405.00000 0.00247
2304 37.55000 436.69162 483.00000 0.00207
2305 37.56500 469.65396 483.00000 0.00207
2306 37.58000 497.22974 469.00000 0.00213
2307 37.59500 514.88524 510.00000 0.00196
2308 37.61000 518.85069 496.00000 0.00202
2309 37.62500 507.83841 492.00000 0.00203
2310 37.64000 483.93754 491.00000 0.00204
2311 37.65500 451.74163 474.00000 0.00211
2312 37.67000 416.33529 428.00000 0.00234
2313 37.68500 381.67212 381.00000 0.00262
2314 37.70000 350.07904 342.00000 0.00292
2315 37.71500 322.54708 339.00000 0.00295
2316 37.73000 299.23118 311.00000 0.00322
2317 37.74500 279.85318 266.00000 0.00376
2318 37.76000 263.95121 251.00000 0.00398
2319 37.77500 251.01490 234.00000 0.00427
2320 37.79000 240.55265 253.00000 0.00395
2321 37.80500 232.12258 222.00000 0.00450
2322 37.82000 225.34758 218.00000 0.00459
2323 37.83500 219.92766 221.00000 0.00452
2324 37.85000 215.60668 209.00000 0.00478
2325 37.86500 212.18635 219.00000 0.00457
2326 37.88000 209.55225 205.00000 0.00488
2327 37.89500 207.58771 199.00000 0.00503
2328 37.91000 206.22771 201.00000 0.00498
2329 37.92500 205.43773 215.00000 0.00465
2330 37.94000 205.21113 205.00000 0.00488
2331 37.95500 205.56829 205.00000 0.00488
2332 37.97000 206.55697 200.00000 0.00500
2333 37.98500 208.25516 197.00000 0.00508
2334 38.00000 210.76625 218.00000 0.00459
2335 38.01500 214.22414 223.00000 0.00448
2336 38.03000 218.79866 221.00000 0.00452
2337 38.04500 224.67999 240.00000 0.00417
2338 38.06000 232.06529 254.00000 0.00394
2339 38.07500 241.13915 270.00000 0.00370
2340 38.09000 252.02219 255.00000 0.00392
2341 38.10500 264.69702 255.00000 0.00392
2342 38.12000 278.90053 288.00000 0.00347
2343 38.13500 293.99415 307.00000 0.00326
2344 38.15000 308.84773 335.00000 0.00299
2345 38.16500 321.81175 378.00000 0.00265
2346 38.18000 330.89941 367.00000 0.00272
2347 38.19500 334.28958 371.00000 0.00270
2348 38.21000 331.07391 374.00000 0.00267
2349 38.22500 321.78728 368.00000 0.00272
2350 38.24000 308.20928 358.00000 0.00279
2351 38.25500 292.61216 307.00000 0.00326
2352 38.27000 276.94626 310.00000 0.00323
2353 38.28500 262.48451 275.00000 0.00364
2354 38.30000 249.86933 247.00000 0.00405
2355 38.31500 239.31663 255.00000 0.00392
2356 38.33000 230.80732 239.00000 0.00418
2357 38.34500 224.21540 223.00000 0.00448
2358 38.36000 219.37983 208.00000 0.00481
2359 38.37500 216.13998 217.00000 0.00461
2360 38.39000 214.34870 240.00000 0.00417
2361 38.40500 213.86995 226.00000 0.00442
2362 38.42000 214.56344 195.00000 0.00513
2363 38.43500 216.25585 207.00000 0.00483
2364 38.45000 218.70142 228.00000 0.00439
2365 38.46500 221.53999 231.00000 0.00433
2366 38.48000 224.27048 226.00000 0.00442
2367 38.49500 226.27091 229.00000 0.00437
2368 38.51000 226.90066 235.00000 0.00426
2369 38.52500 225.74049 220.00000 0.00455
2370 38.54000 222.71369 213.00000 0.00469
2371 38.55500 218.19592 224.00000 0.00446
2372 38.57000 212.81977 206.00000 0.00485
2373 38.58500 207.22181 185.00000 0.00541
2374 38.60000 201.86657 204.00000 0.00490
2375 38.61500 197.01393 207.00000 0.00483
2376 38.63000 192.76602 186.00000 0.00538
2377 38.64500 189.12843 182.00000 0.00549
2378 38.66000 186.05711 189.00000 0.00529
2379 38.67500 183.48684 183.00000 0.00546
2380 38.69000 181.34691 175.00000 0.00571
2381 38.70500 179.57094 188.00000 0.00532
2382 38.72000 178.09093 163.00000 0.00613
2383 38.73500 176.85645 161.00000 0.00621
2384 38.75000 175.82275 185.00000 0.00541
2385 38.76500 174.95311 168.00000 0.00595
2386 38.78000 174.21659 175.00000 0.00571
2387 38.79500 173.59114 158.00000 0.00633
2388 38.81000 173.05882 174.00000 0.00575
2389 38.82500 172.60577 172.00000 0.00581
2390 38.84000 172.22131 154.00000 0.00649
2391 38.85500 171.89721 167.00000 0.00599
2392 38.87000 171.62739 182.00000 0.00549
2393 38.88500 171.40724 151.00000 0.00662
2394 38.90000 171.23388 140.00000 0.00714
2395 38.91500 171.10634 154.00000 0.00649
2396 38.93000 171.01258 162.00000 0.00617
2397 38.94500 170.95736 171.00000 0.00585
2398 38.96000 170.93976 163.00000 0.00613
2399 38.97500 170.95943 159.00000 0.00629
2400 38.99000 171.01652 159.00000 0.00629
2401 39.00500 171.11176 164.00000 0.00610
2402 39.02000 171.24647 161.00000 0.00621
2403 39.03500 171.42258 165.00000 0.00606
2404 39.05000 171.64281 162.00000 0.00617
2405 39.06500 171.91074 151.00000 0.00662
2406 39.08000 172.23060 170.00000 0.00588
2407 39.09500 172.60817 174.00000 0.00575
2408 39.11000 173.05114 187.00000 0.00535
2409 39.12500 173.56938 177.00000 0.00565
2410 39.14000 174.17535 180.00000 0.00556
2411 39.15500 174.88436 175.00000 0.00571
2412 39.17000 175.71317 154.00000 0.00649
2413 39.18500 176.66710 170.00000 0.00588
2414 39.20000 177.85051 180.00000 0.00556
2415 39.21500 179.25388 183.00000 0.00546
2416 39.23000 180.91779 178.00000 0.00562
2417 39.24500 182.88564 168.00000 0.00595
2418 39.26000 185.20031 179.00000 0.00559
2419 39.27500 187.89796 191.00000 0.00524
2420 39.29000 190.99764 212.00000 0.00472
2421 39.30500 194.48527 195.00000 0.00513
2422 39.32000 198.29209 185.00000 0.00541
2423 39.33500 202.27132 178.00000 0.00562
2424 39.35000 206.18277 194.00000 0.00515
2425 39.36500 209.70315 216.00000 0.00463
2426 39.38000 212.48476 200.00000 0.00500
2427 39.39500 214.27046 221.00000 0.00452
2428 39.41000 215.02341 249.00000 0.00402
2429 39.42500 214.98186 261.00000 0.00383
2430 39.44000 214.58419 246.00000 0.00407
2431 39.45500 214.31949 216.00000 0.00463
2432 39.47000 214.60605 208.00000 0.00481
2433 39.48500 215.75833 229.00000 0.00437
2434 39.50000 217.99883 218.00000 0.00459
2435 39.51500 221.49040 225.00000 0.00444
2436 39.53000 226.35743 222.00000 0.00450
2437 39.54500 232.68859 221.00000 0.00452
2438 39.56000 240.51890 233.00000 0.00429
2439 39.57500 249.78926 223.00000 0.00448
2440 39.59000 260.28383 243.00000 0.00412
2441 39.60500 271.55580 263.00000 0.00380
2442 39.62000 282.85999 278.00000 0.00360
2443 39.63500 293.16059 296.00000 0.00338
2444 39.65000 301.26999 292.00000 0.00342
2445 39.66500 306.17166 299.00000 0.00334
2446 39.68000 307.45000 303.00000 0.00330
2447 39.69500 305.57002 302.00000 0.00331
2448 39.71000 301.75910 296.00000 0.00338
2449 39.72500 297.55975 292.00000 0.00342
2450 39.74000 294.38481 281.00000 0.00356
2451 39.75500 293.30977 307.00000 0.00326
2452 39.77000 295.08441 299.00000 0.00334
2453 39.78500 300.23331 325.00000 0.00308
2454 39.80000 309.14676 298.00000 0.00336
2455 39.81500 322.12279 337.00000 0.00297
2456 39.83000 339.35678 310.00000 0.00323
2457 39.84500 360.87158 326.00000 0.00307
2458 39.86000 386.39122 374.00000 0.00267
2459 39.87500 415.16113 431.00000 0.00232
2460 39.89000 445.74510 471.00000 0.00212
2461 39.90500 475.87483 474.00000 0.00211
2462 39.92000 502.47683 411.00000 0.00243
2463 39.93500 522.01973 433.00000 0.00231
2464 39.95000 531.26998 463.00000 0.00216
2465 39.96500 528.35139 496.00000 0.00202
2466 39.98000 513.64264 473.00000 0.00211
2467 39.99500 489.83176 487.00000 0.00205
2468 40.01000 460.92053 434.00000 0.00230
2469 40.02500 430.83717 443.00000 0.00226
2470 40.04000 402.50709 409.00000 0.00244
2471 40.05500 377.63129 399.00000 0.00251
2472 40.07000 356.89222 413.00000 0.00242
2473 40.08500 340.25205 335.00000 0.00299
2474 40.10000 327.18430 328.00000 0.00305
2475 40.11500 316.82826 326.00000 0.00307
2476 40.13000 308.12984 325.00000 0.00308
2477 40.14500 300.02294 296.00000 0.00338
2478 40.16000 291.67320 329.00000 0.00304
2479 40.17500 282.69746 290.00000 0.00345
2480 40.19000 273.20803 277.00000 0.00361
2481 40.20500 263.63962 256.00000 0.00391
2482 40.22000 254.48973 279.00000 0.00358
2483 40.23500 246.14289 219.00000 0.00457
2484 40.25000 238.82911 237.00000 0.00422
2485 40.26500 232.66000 220.00000 0.00455
2486 40.28000 227.67679 234.00000 0.00427
2487 40.29500 223.88391 236.00000 0.00424
2488 40.31000 221.26150 201.00000 0.00498
2489 40.32500 219.78799 233.00000 0.00429
2490 40.34000 219.43619 220.00000 0.00455
2491 40.35500 220.17820 213.00000 0.00469
2492 40.37000 221.97513 205.00000 0.00488
2493 40.38500 224.76043 236.00000 0.00424
2494 40.40000 228.41215 222.00000 0.00450
2495 40.41500 232.71692 222.00000 0.00450
2496 40.43000 237.34012 214.00000 0.00467
2497 40.44500 241.82105 229.00000 0.00437
2498 40.46000 245.60033 212.00000 0.00472
2499 40.47500 248.16714 213.00000 0.00469
2500 40.49000 249.24761 220.00000 0.00455
2501 40.50500 248.96446 235.00000 0.00426
2502 40.52000 247.83679 239.00000 0.00418
2503 40.53500 246.60374 224.00000 0.00446
2504 40.55000 245.99845 229.00000 0.00437
2505 40.56500 246.60386 232.00000 0.00431
2506 40.58000 248.81491 253.00000 0.00395
2507 40.59500 252.85479 246.00000 0.00407
2508 40.61000 258.78986 253.00000 0.00395
2509 40.62500 266.51494 264.00000 0.00379
2510 40.64000 275.70598 298.00000 0.00336
2511 40.65500 285.75670 320.00000 0.00312
2512 40.67000 295.73702 313.00000 0.00319
2513 40.68500 304.43749 327.00000 0.00306
2514 40.70000 310.56515 351.00000 0.00285
2515 40.71500 313.10193 333.00000 0.00300
2516 40.73000 311.68308 341.00000 0.00293
2517 40.74500 306.73259 318.00000 0.00314
2518 40.76000 299.22264 323.00000 0.00310
2519 40.77500 290.24375 326.00000 0.00307
2520 40.79000 280.72427 303.00000 0.00330
2521 40.80500 271.36080 300.00000 0.00333
2522 40.82000 262.69544 269.00000 0.00372
2523 40.83500 255.18069 261.00000 0.00383
2524 40.85000 249.19630 263.00000 0.00380
2525 40.86500 245.00707 241.00000 0.00415
2526 40.88000 242.78523 239.00000 0.00418
2527 40.89500 242.63269 235.00000 0.00426
2528 40.91000 244.60613 254.00000 0.00394
2529 40.92500 248.72729 287.00000 0.00348
2530 40.94000 254.97213 269.00000 0.00372
2531 40.95500 263.23658 273.00000 0.00366
2532 40.97000 273.27886 282.00000 0.00355
2533 40.98500 284.64457 317.00000 0.00315
2534 41.00000 296.59340 335.00000 0.00299
2535 41.01500 308.06532 355.00000 0.00282
2536 41.03000 317.73832 300.00000 0.00333
2537 41.04500 324.21531 289.00000 0.00346
2538 41.06000 326.32532 345.00000 0.00290
2539 41.07500 323.45985 336.00000 0.00298
2540 41.09000 315.81280 329.00000 0.00304
2541 41.10500 304.37485 312.00000 0.00321
2542 41.12000 290.61645 298.00000 0.00336
2543 41.13500 276.03339 262.00000 0.00382
2544 41.15000 261.80971 254.00000 0.00394
2545 41.16500 248.69009 252.00000 0.00397
2546 41.18000 237.04176 233.00000 0.00429
2547 41.19500 226.97189 228.00000 0.00439
2548 41.21000 218.43304 208.00000 0.00481
2549 41.22500 211.30137 204.00000 0.00490
2550 41.24000 205.41620 199.00000 0.00503
2551 41.25500 200.60688 186.00000 0.00538
2552 41.27000 196.71093 186.00000 0.00538
2553 41.28500 193.58107 176.00000 0.00568
2554 41.30000 191.08972 167.00000 0.00599
2555 41.31500 189.12917 165.00000 0.00606
2556 41.33000 187.61235 175.00000 0.00571
2557 41.34500 186.47200 193.00000 0.00518
2558 41.36000 185.65686 170.00000 0.00588
2559 41.37500 185.12970 177.00000 0.00565
2560 41.39000 184.86513 190.00000 0.00526
2561 41.40500 184.84762 180.00000 0.00556
2562 41.42000 185.07012 175.00000 0.00571
2563 41.43500 185.53324 183.00000 0.00546
2564 41.45000 186.24501 168.00000 0.00595
2565 41.46500 187.22120 171.00000 0.00585
2566 41.48000 188.48639 166.00000 0.00602
2567 41.49500 190.07586 179.00000 0.00559
2568 41.51000 192.03804 189.00000 0.00529
2569 41.52500 194.43791 196.00000 0.00510
2570 41.54000 197.36097 184.00000 0.00543
2571 41.55500 200.91753 172.00000 0.00581
2572 41.57000 205.24595 183.00000 0.00546
2573 41.58500 210.53139 190.00000 0.00526
2574 41.60000 216.97978 187.00000 0.00535
2575 41.61500 224.84094 195.00000 0.00513
2576 41.63000 234.39888 208.00000 0.00481
2577 41.64500 245.96365 229.00000 0.00437
2578 41.66000 259.84821 245.00000 0.00408
2579 41.67500 276.35021 288.00000 0.00347
2580 41.69000 295.69340 320.00000 0.00312
2581 41.70500 317.95360 369.00000 0.00271
2582 41.72000 342.93786 376.00000 0.00266
2583 41.73500 370.02536 442.00000 0.00226
2584 41.75000 397.99220 519.00000 0.00193
2585 41.76500 424.89256 535.00000 0.00187
2586 41.78000 448.12347 558.00000 0.00179
2587 41.79500 464.81906 591.00000 0.00169
2588 41.81000 472.60824 589.00000 0.00170
2589 41.82500 470.46995 518.00000 0.00193
2590 41.84000 459.14377 503.00000 0.00199
2591 41.85500 440.74203 490.00000 0.00204
2592 41.87000 417.84742 441.00000 0.00227
2593 41.88500 392.75026 404.00000 0.00248
2594 41.90000 367.17867 372.00000 0.00269
2595 41.91500 342.37702 337.00000 0.00297
2596 41.93000 319.23761 320.00000 0.00312
2597 41.94500 298.35327 266.00000 0.00376
2598 41.96000 280.03383 264.00000 0.00379
2599 41.97500 264.34524 269.00000 0.00372
2600 41.99000 251.17625 237.00000 0.00422
2601 42.00500 240.31261 251.00000 0.00398
2602 42.02000 231.49770 250.00000 0.00400
2603 42.03500 224.45702 226.00000 0.00442
2604 42.05000 218.93424 215.00000 0.00465
2605 42.06500 214.69824 203.00000 0.00493
2606 42.08000 211.54779 205.00000 0.00488
2607 42.09500 209.31491 203.00000 0.00493
2608 42.11000 207.86599 210.00000 0.00476
2609 42.12500 207.11274 203.00000 0.00493
2610 42.14000 207.02509 190.00000 0.00526
2611 42.15500 207.62981 215.00000 0.00465
2612 42.17000 209.00192 204.00000 0.00490
2613 42.18500 211.25731 204.00000 0.00490
2614 42.20000 214.52845 220.00000 0.00455
2615 42.21500 218.95278 218.00000 0.00459
2616 42.23000 224.65824 226.00000 0.00442
2617 42.24500 231.74858 252.00000 0.00397
2618 42.26000 240.27850 260.00000 0.00385
2619 42.27500 250.21436 252.00000 0.00397
2620 42.29000 261.39073 281.00000 0.00356
2621 42.30500 273.46286 302.00000 0.00331
2622 42.32000 285.89957 309.00000 0.00324
2623 42.33500 298.01448 319.00000 0.00313
2624 42.35000 309.05505 332.00000 0.00301
2625 42.36500 318.30908 322.00000 0.00311
2626 42.38000 325.14620 316.00000 0.00316
2627 42.39500 328.99240 327.00000 0.00306
2628 42.41000 329.34938 331.00000 0.00302
2629 42.42500 325.91047 335.00000 0.00299
2630 42.44000 318.84885 316.00000 0.00316
2631 42.45500 308.94217 293.00000 0.00341
2632 42.47000 297.41776 302.00000 0.00331
2633 42.48500 285.58760 287.00000 0.00348
2634 42.50000 274.55598 274.00000 0.00365
2635 42.51500 265.07310 280.00000 0.00357
2636 42.53000 257.55435 295.00000 0.00339
2637 42.54500 252.15744 250.00000 0.00400
2638 42.56000 248.85176 226.00000 0.00442
2639 42.57500 247.45485 242.00000 0.00413
2640 42.59000 247.63610 251.00000 0.00398
2641 42.60500 248.90252 248.00000 0.00403
2642 42.62000 250.59219 256.00000 0.00391
2643 42.63500 251.91191 248.00000 0.00403
2644 42.65000 252.05423 252.00000 0.00397
2645 42.66500 250.39407 235.00000 0.00426
2646 42.68000 246.69143 240.00000 0.00417
2647 42.69500 241.17134 220.00000 0.00455
2648 42.71000 234.40999 232.00000 0.00431
2649 42.72500 227.10055 212.00000 0.00472
2650 42.74000 219.84704 196.00000 0.00510
2651 42.75500 213.07012 188.00000 0.00532
2652 42.77000 207.01002 170.00000 0.00588
2653 42.78500 201.77256 191.00000 0.00524
2654 42.80000 197.37855 191.00000 0.00524
2655 42.81500 193.79907 200.00000 0.00500
2656 42.83000 190.98489 189.00000 0.00529
2657 42.84500 188.87797 188.00000 0.00532
2658 42.86000 187.42255 176.00000 0.00568
2659 42.87500 186.57202 177.00000 0.00565
2660 42.89000 186.29348 196.00000 0.00510
2661 42.90500 186.57361 211.00000 0.00474
2662 42.92000 187.42083 198.00000 0.00505
2663 42.93500 188.86890 177.00000 0.00565
2664 42.95000 190.97879 190.00000 0.00526
2665 42.96500 193.84092 193.00000 0.00518
2666 42.98000 197.57770 201.00000 0.00498
2667 42.99500 202.34141 212.00000 0.00472
2668 43.01000 208.31219 185.00000 0.00541
2669 43.02500 215.69226 203.00000 0.00493
2670 43.04000 224.69589 204.00000 0.00490
2671 43.05500 235.53278 220.00000 0.00455
2672 43.07000 248.38162 241.00000 0.00415
2673 43.08500 263.34966 251.00000 0.00398
2674 43.10000 280.41114 260.00000 0.00385
2675 43.11500 299.32025 294.00000 0.00340
2676 43.13000 319.50332 292.00000 0.00342
2677 43.14500 339.95442 334.00000 0.00299
2678 43.16000 359.17961 359.00000 0.00279
2679 43.17500 375.36586 354.00000 0.00282
2680 43.19000 386.54339 378.00000 0.00265
2681 43.20500 391.15379 389.00000 0.00257
2682 43.22000 388.47917 357.00000 0.00280
2683 43.23500 378.86225 328.00000 0.00305
2684 43.25000 363.58885 336.00000 0.00298
2685 43.26500 344.51293 336.00000 0.00298
2686 43.28000 323.59058 323.00000 0.00310
2687 43.29500 302.49529 273.00000 0.00366
2688 43.31000 282.42345 247.00000 0.00405
2689 43.32500 264.08773 250.00000 0.00400
2690 43.34000 247.81688 231.00000 0.00433
2691 43.35500 233.67927 249.00000 0.00402
2692 43.37000 221.58561 223.00000 0.00448
2693 43.38500 211.36073 196.00000 0.00510
2694 43.40000 202.78980 205.00000 0.00488
2695 43.41500 195.64710 184.00000 0.00543
2696 43.43000 189.71386 185.00000 0.00541
2697 43.44500 184.78898 193.00000 0.00518
2698 43.46000 180.69494 195.00000 0.00513
2699 43.47500 177.28017 194.00000 0.00515
2700 43.49000 174.41920 184.00000 0.00543
2701 43.50500 172.01076 159.00000 0.00629
2702 43.52000 169.97460 173.00000 0.00578
2703 43.53500 168.24327 169.00000 0.00592
2704 43.55000 166.77340 167.00000 0.00599
2705 43.56500 165.52800 155.00000 0.00645
2706 43.58000 164.48119 151.00000 0.00662
2707 43.59500 163.61412 154.00000 0.00649
2708 43.61000 162.91512 149.00000 0.00671
2709 43.62500 162.37623 153.00000 0.00654
2710 43.64000 161.99896 157.00000 0.00637
2711 43.65500 161.78895 157.00000 0.00637
2712 43.67000 161.75801 159.00000 0.00629
2713 43.68500 161.92454 178.00000 0.00562
2714 43.70000 162.31400 162.00000 0.00617
2715 43.71500 162.95900 156.00000 0.00641
2716 43.73000 163.89714 181.00000 0.00552
2717 43.74500 165.17506 161.00000 0.00621
2718 43.76000 166.84337 169.00000 0.00592
2719 43.77500 168.94806 152.00000 0.00658
2720 43.79000 171.53926 167.00000 0.00599
2721 43.80500 174.65452 168.00000 0.00595
2722 43.82000 178.31083 179.00000 0.00559
2723 43.83500 182.48864 164.00000 0.00610
2724 43.85000 187.10861 211.00000 0.00474
2725 43.86500 192.00197 192.00000 0.00521
2726 43.88000 196.89432 224.00000 0.00446
2727 43.89500 201.37817 257.00000 0.00389
2728 43.91000 204.93597 250.00000 0.00400
2729 43.92500 207.04960 238.00000 0.00420
2730 43.94000 207.33931 205.00000 0.00488
2731 43.95500 205.70811 225.00000 0.00444
2732 43.97000 202.39205 221.00000 0.00452
2733 43.98500 197.87328 229.00000 0.00437
2734 44.00000 192.71209 215.00000 0.00465
2735 44.01500 187.40042 226.00000 0.00442
2736 44.03000 182.28680 192.00000 0.00521
2737 44.04500 177.57723 178.00000 0.00562
2738 44.06000 173.38173 189.00000 0.00529
2739 44.07500 169.73355 168.00000 0.00595
2740 44.09000 166.61900 174.00000 0.00575
2741 44.10500 164.00585 185.00000 0.00541
2742 44.12000 161.84739 183.00000 0.00546
2743 44.13500 160.09303 152.00000 0.00658
2744 44.15000 158.68952 165.00000 0.00606
2745 44.16500 157.59058 169.00000 0.00592
2746 44.18000 156.75546 173.00000 0.00578
2747 44.19500 156.15062 171.00000 0.00585
2748 44.21000 155.75117 181.00000 0.00552
2749 44.22500 155.53809 174.00000 0.00575
2750 44.24000 155.50417 172.00000 0.00581
2751 44.25500 155.64936 167.00000 0.00599
2752 44.27000 155.98106 180.00000 0.00556
2753 44.28500 156.51835 175.00000 0.00571
2754 44.30000 157.28630 155.00000 0.00645
2755 44.31500 158.31483 165.00000 0.00606
2756 44.33000 159.64154 190.00000 0.00526
2757 44.34500 161.30846 175.00000 0.00571
2758 44.36000 163.35953 171.00000 0.00585
2759 44.37500 165.83695 181.00000 0.00552
2760 44.39000 168.77574 187.00000 0.00535
2761 44.40500 172.19561 178.00000 0.00562
2762 44.42000 176.08876 178.00000 0.00562
2763 44.43500 180.40243 181.00000 0.00552
2764 44.45000 185.01570 191.00000 0.00524
2765 44.46500 189.71412 194.00000 0.00515
2766 44.48000 194.16967 218.00000 0.00459
2767 44.49500 197.96521 222.00000 0.00450
2768 44.51000 200.64652 227.00000 0.00441
2769 44.52500 201.83912 217.00000 0.00461
2770 44.54000 201.37831 214.00000 0.00467
2771 44.55500 199.38236 223.00000 0.00448
2772 44.57000 196.21435 214.00000 0.00467
2773 44.58500 192.35421 200.00000 0.00500
2774 44.60000 188.26102 189.00000 0.00529
2775 44.61500 184.29091 194.00000 0.00515
2776 44.63000 180.67938 189.00000 0.00529
2777 44.64500 177.56192 189.00000 0.00529
2778 44.66000 175.00189 150.00000 0.00667
2779 44.67500 173.02060 158.00000 0.00633
2780 44.69000 171.61968 161.00000 0.00621
2781 44.70500 170.78912 181.00000 0.00552
2782 44.72000 170.51787 188.00000 0.00532
2783 44.73500 170.80421 205.00000 0.00488
2784 44.75000 171.65704 215.00000 0.00465
2785 44.76500 173.10087 194.00000 0.00515
2786 44.78000 175.17592 191.00000 0.00524
2787 44.79500 177.94484 178.00000 0.00562
2788 44.81000 181.48829 191.00000 0.00524
2789 44.82500 185.90435 183.00000 0.00546
2790 44.84000 191.29979 176.00000 0.00568
2791 44.85500 197.78548 208.00000 0.00481
2792 44.87000 205.46642 219.00000 0.00457
2793 44.88500 214.41892 208.00000 0.00481
2794 44.90000 224.66831 225.00000 0.00444
2795 44.91500 236.15985 263.00000 0.00380
2796 44.93000 248.72819 260.00000 0.00385
2797 44.94500 262.07134 266.00000 0.00376
2798 44.96000 275.73526 270.00000 0.00370
2799 44.97500 289.11039 281.00000 0.00356
2800 44.99000 301.43858 286.00000 0.00350
2801 45.00500 311.84064 269.00000 0.00372
2802 45.02000 319.40531 322.00000 0.00311
2803 45.03500 323.40109 297.00000 0.00337
2804 45.05000 323.52613 282.00000 0.00355
2805 45.06500 320.13943 281.00000 0.00356
2806 45.08000 314.22833 299.00000 0.00334
2807 45.09500 307.13458 287.00000 0.00348
2808 45.11000 300.19935 299.00000 0.00334
2809 45.12500 294.50828 296.00000 0.00338
2810 45.14000 290.79345 273.00000 0.00366
2811 45.15500 289.44037 265.00000 0.00377
2812 45.17000 290.52444 258.00000 0.00388
2813 45.18500 293.82949 276.00000 0.00362
2814 45.20000 298.83711 308.00000 0.00325
2815 45.21500 304.70634 311.00000 0.00322
2816 45.23000 310.28898 324.00000 0.00309
2817 45.24500 314.24040 306.00000 0.00327
2818 45.26000 315.26648 294.00000 0.00340
2819 45.27500 312.46894 297.00000 0.00337
2820 45.29000 305.64038 315.00000 0.00317
2821 45.30500 295.32443 303.00000 0.00330
2822 45.32000 282.58635 279.00000 0.00358
2823 45.33500 268.64142 275.00000 0.00364
2824 45.35000 254.54745 265.00000 0.00377
2825 45.36500 241.06598 232.00000 0.00431
2826 45.38000 228.65714 226.00000 0.00442
2827 45.39500 217.54757 230.00000 0.00435
2828 45.41000 207.82117 224.00000 0.00446
2829 45.42500 199.44634 196.00000 0.00510
2830 45.44000 192.34168 173.00000 0.00578
2831 45.45500 186.39596 191.00000 0.00524
2832 45.47000 181.48569 189.00000 0.00529
2833 45.48500 177.48644 180.00000 0.00556
2834 45.50000 174.28223 202.00000 0.00495
2835 45.51500 171.77033 196.00000 0.00510
2836 45.53000 169.86512 177.00000 0.00565
2837 45.54500 168.49996 172.00000 0.00581
2838 45.56000 167.62766 173.00000 0.00578
2839 45.57500 167.21983 164.00000 0.00610
2840 45.59000 167.26534 151.00000 0.00662
2841 45.60500 167.76804 168.00000 0.00595
2842 45.62000 168.74389 174.00000 0.00575
2843 45.63500 170.21754 165.00000 0.00606
2844 45.65000 172.21823 195.00000 0.00513
2845 45.66500 174.77463 195.00000 0.00513
2846 45.68000 177.90818 180.00000 0.00556
2847 45.69500 181.62376 177.00000 0.00565
2848 45.71000 185.89649 201.00000 0.00498
2849 45.72500 190.65373 212.00000 0.00472
2850 45.74000 195.75350 186.00000 0.00538
2851 45.75500 200.96535 180.00000 0.00556
2852 45.77000 205.96677 178.00000 0.00562
2853 45.78500 210.37388 213.00000 0.00469
2854 45.80000 213.82001 212.00000 0.00472
2855 45.81500 216.07151 212.00000 0.00472
2856 45.83000 217.13272 222.00000 0.00450
2857 45.84500 217.27623 224.00000 0.00446
2858 45.86000 216.97272 204.00000 0.00490
2859 45.87500 216.76321 223.00000 0.00448
2860 45.89000 217.13566 209.00000 0.00478
2861 45.90500 218.47444 212.00000 0.00472
2862 45.92000 221.03472 223.00000 0.00448
2863 45.93500 224.94937 226.00000 0.00442
2864 45.95000 230.23389 232.00000 0.00431
2865 45.96500 236.77484 243.00000 0.00412
2866 45.98000 244.30541 224.00000 0.00446
2867 45.99500 252.37618 240.00000 0.00417
2868 46.01000 260.34681 257.00000 0.00389
2869 46.02500 267.43376 255.00000 0.00392
2870 46.04000 272.84504 258.00000 0.00388
2871 46.05500 275.99617 266.00000 0.00376
2872 46.07000 276.72389 300.00000 0.00333
2873 46.08500 275.39013 277.00000 0.00361
2874 46.10000 272.78265 270.00000 0.00370
2875 46.11500 269.88923 250.00000 0.00400
2876 46.13000 267.65532 278.00000 0.00360
2877 46.14500 266.84032 275.00000 0.00364
2878 46.16000 267.97141 276.00000 0.00362
2879 46.17500 271.35239 262.00000 0.00382
2880 46.19000 277.08103 274.00000 0.00365
2881 46.20500 285.04850 257.00000 0.00389
2882 46.22000 294.91375 283.00000 0.00353
2883 46.23500 306.06086 276.00000 0.00362
2884 46.25000 317.56302 299.00000 0.00334
2885 46.26500 328.19268 307.00000 0.00326
2886 46.28000 336.52462 314.00000 0.00318
2887 46.29500 341.16015 315.00000 0.00317
2888 46.31000 341.04627 321.00000 0.00312
2889 46.32500 335.78415 331.00000 0.00302
2890 46.34000 325.77188 296.00000 0.00338
2891 46.35500 312.08021 308.00000 0.00325
2892 46.37000 296.10647 271.00000 0.00369
2893 46.38500 279.21889 287.00000 0.00348
2894 46.40000 262.50645 281.00000 0.00356
2895 46.41500 246.70803 264.00000 0.00379
2896 46.43000 232.25059 220.00000 0.00455
2897 46.44500 219.32829 199.00000 0.00503
2898 46.46000 207.97927 200.00000 0.00500
2899 46.47500 198.14499 213.00000 0.00469
2900 46.49000 189.71209 202.00000 0.00495
2901 46.50500 182.54064 190.00000 0.00526
2902 46.52000 176.48260 183.00000 0.00546
2903 46.53500 171.39275 156.00000 0.00641
2904 46.55000 167.13479 175.00000 0.00571
2905 46.56500 163.58487 198.00000 0.00505
2906 46.58000 160.63372 186.00000 0.00538
2907 46.59500 158.18750 154.00000 0.00649
2908 46.61000 156.16442 148.00000 0.00676
2909 46.62500 154.50274 153.00000 0.00654
2910 46.64000 153.15268 164.00000 0.00610
2911 46.65500 152.07755 171.00000 0.00585
2912 46.67000 151.24563 162.00000 0.00617
2913 46.68500 150.63916 158.00000 0.00633
2914 46.70000 150.24619 162.00000 0.00617
2915 46.71500 150.06023 164.00000 0.00610
2916 46.73000 150.08058 180.00000 0.00556
2917 46.74500 150.31247 174.00000 0.00575
2918 46.76000 150.76820 173.00000 0.00578
2919 46.77500 151.46878 160.00000 0.00625
2920 46.79000 152.43892 164.00000 0.00610
2921 46.80500 153.76024 166.00000 0.00602
2922 46.82000 155.47366 170.00000 0.00588
2923 46.83500 157.64873 166.00000 0.00602
2924 46.85000 160.35852 167.00000 0.00599
2925 46.86500 163.67377 164.00000 0.00610
2926 46.88000 167.65616 163.00000 0.00613
2927 46.89500 172.34949 172.00000 0.00581
2928 46.91000 177.76786 185.00000 0.00541
2929 46.92500 183.88463 193.00000 0.00518
2930 46.94000 190.61380 200.00000 0.00500
2931 46.95500 197.79443 168.00000 0.00595
2932 46.97000 205.17650 204.00000 0.00490
2933 46.98500 212.41094 236.00000 0.00424
2934 47.00000 219.04942 228.00000 0.00439
2935 47.01500 224.56578 236.00000 0.00424
2936 47.03000 228.41163 226.00000 0.00442
2937 47.04500 230.12817 241.00000 0.00415
2938 47.06000 229.49018 223.00000 0.00448
2939 47.07500 226.61269 241.00000 0.00415
2940 47.09000 221.94515 239.00000 0.00418
2941 47.10500 216.14435 229.00000 0.00437
2942 47.12000 209.89596 222.00000 0.00450
2943 47.13500 203.77750 213.00000 0.00469
2944 47.15000 198.20338 208.00000 0.00481
2945 47.16500 193.41540 190.00000 0.00526
2946 47.18000 189.50862 189.00000 0.00529
2947 47.19500 186.45649 193.00000 0.00518
2948 47.21000 184.12894 180.00000 0.00556
2949 47.22500 182.30727 190.00000 0.00526
2950 47.24000 180.70665 166.00000 0.00602
2951 47.25500 179.01760 169.00000 0.00592
2952 47.27000 176.96832 179.00000 0.00559
2953 47.28500 174.39161 167.00000 0.00599
2954 47.30000 171.26489 167.00000 0.00599
2955 47.31500 167.69933 160.00000 0.00625
2956 47.33000 163.88471 152.00000 0.00658
2957 47.34500 160.02332 150.00000 0.00667
2958 47.36000 156.28345 139.00000 0.00719
2959 47.37500 152.78083 146.00000 0.00685
2960 47.39000 149.58163 141.00000 0.00709
2961 47.40500 146.71707 149.00000 0.00671
2962 47.42000 144.19190 151.00000 0.00662
2963 47.43500 141.99523 166.00000 0.00602
2964 47.45000 140.10822 159.00000 0.00629
2965 47.46500 138.50711 148.00000 0.00676
2966 47.48000 137.16655 130.00000 0.00769
2967 47.49500 136.05980 137.00000 0.00730
2968 47.51000 135.17194 132.00000 0.00758
2969 47.52500 134.48660 132.00000 0.00758
2970 47.54000 133.98747 143.00000 0.00699
2971 47.55500 133.66364 150.00000 0.00667
2972 47.57000 133.51283 144.00000 0.00694
2973 47.58500 133.53572 134.00000 0.00746
2974 47.60000 133.73663 134.00000 0.00746
2975 47.61500 134.12235 128.00000 0.00781
2976 47.63000 134.70095 153.00000 0.00654
2977 47.64500 135.48029 144.00000 0.00694
2978 47.66000 136.46498 131.00000 0.00763
2979 47.67500 137.64651 136.00000 0.00735
2980 47.69000 139.01481 141.00000 0.00709
2981 47.70500 140.53848 159.00000 0.00629
2982 47.72000 142.15732 160.00000 0.00625
2983 47.73500 143.78411 143.00000 0.00699
2984 47.75000 145.29344 140.00000 0.00714
2985 47.76500 146.53067 135.00000 0.00741
2986 47.78000 147.33444 165.00000 0.00606
2987 47.79500 147.57227 171.00000 0.00585
2988 47.81000 147.18470 149.00000 0.00671
2989 47.82500 146.20491 123.00000 0.00813
2990 47.84000 144.74955 131.00000 0.00763
2991 47.85500 142.97864 136.00000 0.00735
2992 47.87000 141.05605 140.00000 0.00714
2993 47.88500 139.11749 134.00000 0.00746
2994 47.90000 137.26254 133.00000 0.00752
2995 47.91500 135.55374 146.00000 0.00685
2996 47.93000 134.02448 129.00000 0.00775
2997 47.94500 132.69030 144.00000 0.00694
2998 47.96000 131.55452 140.00000 0.00714
2999 47.97500 130.61303 132.00000 0.00758
3000 47.99000 129.85760 131.00000 0.00763
3001 48.00500 129.27817 127.00000 0.00787
3002 48.02000 128.86435 129.00000 0.00775
3003 48.03500 128.60656 136.00000 0.00735
3004 48.05000 128.49671 123.00000 0.00813
3005 48.06500 128.52844 128.00000 0.00781
3006 48.08000 128.69691 133.00000 0.00752
3007 48.09500 128.99896 111.00000 0.00901
3008 48.11000 129.43202 134.00000 0.00746
3009 48.12500 129.99318 133.00000 0.00752
3010 48.14000 130.67766 110.00000 0.00909
3011 48.15500 131.47670 125.00000 0.00800
3012 48.17000 132.37502 134.00000 0.00746
3013 48.18500 133.34811 134.00000 0.00746
3014 48.20000 134.36087 132.00000 0.00758
3015 48.21500 135.36944 139.00000 0.00719
3016 48.23000 136.32866 161.00000 0.00621
3017 48.24500 137.20537 149.00000 0.00671
3018 48.26000 137.99413 136.00000 0.00735
3019 48.27500 138.72782 148.00000 0.00676
3020 48.29000 139.47652 146.00000 0.00685
3021 48.30500 140.33471 139.00000 0.00719
3022 48.32000 141.40371 138.00000 0.00725
3023 48.33500 142.77721 139.00000 0.00719
3024 48.35000 144.53362 137.00000 0.00730
3025 48.36500 146.72727 148.00000 0.00676
3026 48.38000 149.39495 151.00000 0.00662
3027 48.39500 152.54675 158.00000 0.00633
3028 48.41000 156.16055 154.00000 0.00649
3029 48.42500 160.17077 147.00000 0.00680
3030 48.44000 164.45435 145.00000 0.00690
3031 48.45500 168.81816 164.00000 0.00610
3032 48.47000 172.99233 166.00000 0.00602
3033 48.48500 176.64682 173.00000 0.00578
3034 48.50000 179.44067 193.00000 0.00518
3035 48.51500 181.10315 205.00000 0.00488
3036 48.53000 181.52108 169.00000 0.00592
3037 48.54500 180.78151 145.00000 0.00690
3038 48.56000 179.16022 170.00000 0.00588
3039 48.57500 177.03257 169.00000 0.00592
3040 48.59000 174.77810 161.00000 0.00621
3041 48.60500 172.70957 164.00000 0.00610
3042 48.62000 171.04019 162.00000 0.00617
3043 48.63500 169.87874 168.00000 0.00595
3044 48.65000 169.23562 148.00000 0.00676
3045 48.66500 169.02972 151.00000 0.00662
3046 48.68000 169.09517 157.00000 0.00637
3047 48.69500 169.19531 149.00000 0.00671
3048 48.71000 169.05392 157.00000 0.00637
3049 48.72500 168.40896 154.00000 0.00649
3050 48.74000 167.07899 159.00000 0.00629
3051 48.75500 165.01568 166.00000 0.00602
3052 48.77000 162.31371 141.00000 0.00709
3053 48.78500 159.17179 174.00000 0.00575
3054 48.80000 155.82793 153.00000 0.00654
3055 48.81500 152.50200 151.00000 0.00662
3056 48.83000 149.36441 138.00000 0.00725
3057 48.84500 146.52937 137.00000 0.00730
3058 48.86000 144.06210 145.00000 0.00690
3059 48.87500 141.98934 164.00000 0.00610
3060 48.89000 140.30948 159.00000 0.00629
3061 48.90500 138.99751 143.00000 0.00699
3062 48.92000 138.00764 131.00000 0.00763
3063 48.93500 137.27395 149.00000 0.00671
3064 48.95000 136.71181 127.00000 0.00787
3065 48.96500 136.22487 151.00000 0.00662
3066 48.98000 135.71042 148.00000 0.00676
3067 48.99500 135.08119 143.00000 0.00699
3068 49.01000 134.28200 128.00000 0.00781
3069 49.02500 133.30092 135.00000 0.00741
3070 49.04000 132.16875 132.00000 0.00758
3071 49.05500 130.94170 140.00000 0.00714
3072 49.07000 129.68291 131.00000 0.00763
3073 49.08500 128.44774 104.00000 0.00962
3074 49.10000 127.27711 109.00000 0.00917
3075 49.11500 126.19709 111.00000 0.00901
3076 49.13000 125.22171 137.00000 0.00730
3077 49.14500 124.35626 115.00000 0.00870
3078 49.16000 123.60027 135.00000 0.00741
3079 49.17500 122.94953 118.00000 0.00847
3080 49.19000 122.39773 120.00000 0.00833
3081 49.20500 121.93757 137.00000 0.00730
3082 49.22000 121.55983 120.00000 0.00833
3083 49.23500 121.25624 117.00000 0.00855
3084 49.25000 121.01926 132.00000 0.00758
3085 49.26500 120.84110 128.00000 0.00781
3086 49.28000 120.71478 120.00000 0.00833
3087 49.29500 120.64249 128.00000 0.00781
3088 49.31000 120.61533 123.00000 0.00813
3089 49.32500 120.63036 130.00000 0.00769
3090 49.34000 120.68558 105.00000 0.00952
3091 49.35500 120.77995 117.00000 0.00855
3092 49.37000 120.91321 123.00000 0.00813
3093 49.38500 121.08592 112.00000 0.00893
3094 49.40000 121.29940 119.00000 0.00840
3095 49.41500 121.55570 127.00000 0.00787
3096 49.43000 121.85770 122.00000 0.00820
3097 49.44500 122.20919 120.00000 0.00833
3098 49.46000 122.61503 108.00000 0.00926
3099 49.47500 123.08154 119.00000 0.00840
3100 49.49000 123.61735 126.00000 0.00794
3101 49.50500 124.23037 122.00000 0.00820
3102 49.52000 124.93406 135.00000 0.00741
3103 49.53500 125.74457 140.00000 0.00714
3104 49.55000 126.68220 127.00000 0.00787
3105 49.56500 127.77168 140.00000 0.00714
3106 49.58000 129.04359 128.00000 0.00781
3107 49.59500 130.53835 130.00000 0.00769
3108 49.61000 132.30268 110.00000 0.00909
3109 49.62500 134.38609 133.00000 0.00752
3110 49.64000 136.86546 152.00000 0.00658
3111 49.65500 139.81591 157.00000 0.00637
3112 49.67000 143.30970 131.00000 0.00763
3113 49.68500 147.43072 124.00000 0.00806
3114 49.70000 152.26414 138.00000 0.00725
3115 49.71500 157.88844 148.00000 0.00676
3116 49.73000 164.37046 164.00000 0.00610
3117 49.74500 171.75861 166.00000 0.00602
3118 49.76000 180.06600 179.00000 0.00559
3119 49.77500 189.25340 188.00000 0.00532
3120 49.79000 199.20444 190.00000 0.00526
3121 49.80500 209.69476 215.00000 0.00465
3122 49.82000 220.36037 239.00000 0.00418
3123 49.83500 230.67864 251.00000 0.00398
3124 49.85000 239.98413 257.00000 0.00389
3125 49.86500 247.54211 261.00000 0.00383
3126 49.88000 252.68799 269.00000 0.00372
3127 49.89500 254.98645 296.00000 0.00338
3128 49.91000 254.34993 255.00000 0.00392
3129 49.92500 251.05413 258.00000 0.00388
3130 49.94000 245.64081 240.00000 0.00417
3131 49.95500 238.77609 220.00000 0.00455
3132 49.97000 231.13205 205.00000 0.00488
3133 49.98500 223.31632 223.00000 0.00448
3134 50.00000 215.83814 207.00000 0.00483
3135 50.01500 209.09597 205.00000 0.00488
3136 50.03000 203.37343 177.00000 0.00565
3137 50.04500 198.84439 178.00000 0.00562
3138 50.06000 195.58342 174.00000 0.00575
3139 50.07500 193.57615 167.00000 0.00599
3140 50.09000 192.72530 185.00000 0.00541
3141 50.10500 192.85128 178.00000 0.00562
3142 50.12000 193.69011 181.00000 0.00552
3143 50.13500 194.89537 160.00000 0.00625
3144 50.15000 196.05437 179.00000 0.00559
3145 50.16500 196.72828 184.00000 0.00543
3146 50.18000 196.51829 185.00000 0.00541
3147 50.19500 195.14516 169.00000 0.00592
3148 50.21000 192.51353 159.00000 0.00629
3149 50.22500 188.72931 180.00000 0.00556
3150 50.24000 184.05831 183.00000 0.00546
3151 50.25500 178.84521 177.00000 0.00565
3152 50.27000 173.43377 170.00000 0.00588
3153 50.28500 168.11263 159.00000 0.00629
3154 50.30000 163.09039 160.00000 0.00625
3155 50.31500 158.50597 158.00000 0.00633
3156 50.33000 154.44184 150.00000 0.00667
3157 50.34500 150.94038 167.00000 0.00599
3158 50.36000 148.01753 152.00000 0.00658
3159 50.37500 145.67267 134.00000 0.00746
3160 50.39000 143.89562 151.00000 0.00662
3161 50.40500 142.67140 151.00000 0.00662
3162 50.42000 141.98351 151.00000 0.00662
3163 50.43500 141.81602 131.00000 0.00763
3164 50.45000 142.15476 130.00000 0.00769
3165 50.46500 142.98754 126.00000 0.00794
3166 50.48000 144.30331 157.00000 0.00637
3167 50.49500 146.09057 151.00000 0.00662
3168 50.51000 148.33402 169.00000 0.00592
3169 50.52500 151.00944 171.00000 0.00585
3170 50.54000 154.07542 152.00000 0.00658
3171 50.55500 157.47209 166.00000 0.00602
3172 50.57000 161.10523 168.00000 0.00595
3173 50.58500 164.84183 159.00000 0.00629
3174 50.60000 168.52630 167.00000 0.00599
3175 50.61500 172.00421 189.00000 0.00529
3176 50.63000 175.15993 192.00000 0.00521
3177 50.64500 177.96607 211.00000 0.00474
3178 50.66000 180.50090 179.00000 0.00559
3179 50.67500 182.93263 181.00000 0.00552
3180 50.69000 185.47943 202.00000 0.00495
3181 50.70500 188.35186 206.00000 0.00485
3182 50.72000 191.70487 193.00000 0.00518
3183 50.73500 195.60609 200.00000 0.00500
3184 50.75000 200.01835 207.00000 0.00483
3185 50.76500 204.79179 208.00000 0.00481
3186 50.78000 209.66811 222.00000 0.00450
3187 50.79500 214.30540 223.00000 0.00448
3188 50.81000 218.33178 220.00000 0.00455
3189 50.82500 221.42449 246.00000 0.00407
3190 50.84000 223.39095 240.00000 0.00417
3191 50.85500 224.21766 237.00000 0.00422
3192 50.87000 224.06606 232.00000 0.00431
3193 50.88500 223.22671 226.00000 0.00442
3194 50.90000 222.06148 214.00000 0.00467
3195 50.91500 220.95570 202.00000 0.00495
3196 50.93000 220.28122 201.00000 0.00498
3197 50.94500 220.36581 205.00000 0.00488
3198 50.96000 221.46008 213.00000 0.00469
3199 50.97500 223.70977 204.00000 0.00490
3200 50.99000 227.14734 220.00000 0.00455
3201 51.00500 231.66319 226.00000 0.00442
3202 51.02000 236.98780 241.00000 0.00415
3203 51.03500 242.68222 245.00000 0.00408
3204 51.05000 248.13691 262.00000 0.00382
3205 51.06500 252.60521 264.00000 0.00379
3206 51.08000 255.31143 250.00000 0.00400
3207 51.09500 255.60053 265.00000 0.00377
3208 51.11000 253.10383 283.00000 0.00353
3209 51.12500 247.84656 264.00000 0.00379
3210 51.14000 240.22846 241.00000 0.00415
3211 51.15500 230.89465 246.00000 0.00407
3212 51.17000 220.56232 250.00000 0.00400
3213 51.18500 209.87991 228.00000 0.00439
3214 51.20000 199.35433 187.00000 0.00535
3215 51.21500 189.33840 185.00000 0.00541
3216 51.23000 180.05220 185.00000 0.00541
3217 51.24500 171.61236 157.00000 0.00637
3218 51.26000 164.06546 158.00000 0.00633
3219 51.27500 157.40775 164.00000 0.00610
3220 51.29000 151.60239 159.00000 0.00629
3221 51.30500 146.59119 150.00000 0.00667
3222 51.32000 142.30319 149.00000 0.00671
3223 51.33500 138.66116 147.00000 0.00680
3224 51.35000 135.58669 134.00000 0.00746
3225 51.36500 133.00398 125.00000 0.00800
3226 51.38000 130.84268 137.00000 0.00730
3227 51.39500 129.03968 155.00000 0.00645
3228 51.41000 127.54020 139.00000 0.00719
3229 51.42500 126.29809 129.00000 0.00775
3230 51.44000 125.27565 128.00000 0.00781
3231 51.45500 124.44309 127.00000 0.00787
3232 51.47000 123.77795 137.00000 0.00730
3233 51.48500 123.26420 130.00000 0.00769
3234 51.50000 122.89166 122.00000 0.00820
3235 51.51500 122.65547 134.00000 0.00746
3236 51.53000 122.55389 133.00000 0.00752
3237 51.54500 122.59071 124.00000 0.00806
3238 51.56000 122.77271 127.00000 0.00787
3239 51.57500 123.10975 135.00000 0.00741
3240 51.59000 123.61442 121.00000 0.00826
3241 51.60500 124.30153 136.00000 0.00735
3242 51.62000 125.18707 135.00000 0.00741
3243 51.63500 126.28858 137.00000 0.00730
3244 51.65000 127.62360 129.00000 0.00775
3245 51.66500 129.20871 132.00000 0.00758
3246 51.68000 131.05854 129.00000 0.00775
3247 51.69500 133.18338 137.00000 0.00730
3248 51.71000 135.58637 142.00000 0.00704
3249 51.72500 138.25934 165.00000 0.00606
3250 51.74000 141.17805 143.00000 0.00699
3251 51.75500 144.29805 151.00000 0.00662
3252 51.77000 147.55401 137.00000 0.00730
3253 51.78500 150.86650 142.00000 0.00704
3254 51.80000 154.15918 154.00000 0.00649
3255 51.81500 157.38419 148.00000 0.00676
3256 51.83000 160.54771 177.00000 0.00565
3257 51.84500 163.72143 168.00000 0.00595
3258 51.86000 167.03114 166.00000 0.00602
3259 51.87500 170.62307 166.00000 0.00602
3260 51.89000 174.64527 190.00000 0.00526
3261 51.90500 179.18940 225.00000 0.00444
3262 51.92000 184.26368 196.00000 0.00510
3263 51.93500 189.78866 172.00000 0.00581
3264 51.95000 195.57615 198.00000 0.00505
3265 51.96500 201.31663 198.00000 0.00505
3266 51.98000 206.59129 203.00000 0.00493
3267 51.99500 210.89532 219.00000 0.00457
3268 52.01000 213.72104 202.00000 0.00495
3269 52.02500 214.66014 212.00000 0.00472
3270 52.04000 213.50627 197.00000 0.00508
3271 52.05500 210.31092 208.00000 0.00481
3272 52.07000 205.36551 192.00000 0.00521
3273 52.08500 199.11997 184.00000 0.00543
3274 52.10000 192.07774 196.00000 0.00510
3275 52.11500 184.70720 178.00000 0.00562
3276 52.13000 177.38964 197.00000 0.00508
3277 52.14500 170.40298 176.00000 0.00568
3278 52.16000 163.92857 172.00000 0.00581
3279 52.17500 158.06802 173.00000 0.00578
3280 52.19000 152.86110 164.00000 0.00610
3281 52.20500 148.30067 161.00000 0.00621
3282 52.22000 144.34441 152.00000 0.00658
3283 52.23500 140.92505 149.00000 0.00671
3284 52.25000 137.96027 144.00000 0.00694
3285 52.26500 135.36263 154.00000 0.00649
3286 52.28000 133.05557 141.00000 0.00709
3287 52.29500 130.97962 149.00000 0.00671
3288 52.31000 129.09810 116.00000 0.00862
3289 52.32500 127.39313 133.00000 0.00752
3290 52.34000 125.86203 126.00000 0.00794
3291 52.35500 124.50826 141.00000 0.00709
3292 52.37000 123.33643 142.00000 0.00704
3293 52.38500 122.35014 145.00000 0.00690
3294 52.40000 121.55179 147.00000 0.00680
3295 52.41500 120.94316 129.00000 0.00775
3296 52.43000 120.52622 121.00000 0.00826
3297 52.44500 120.30360 121.00000 0.00826
3298 52.46000 120.27862 119.00000 0.00840
3299 52.47500 120.45514 125.00000 0.00800
3300 52.49000 120.83715 110.00000 0.00909
3301 52.50500 121.42838 145.00000 0.00690
3302 52.52000 122.23018 148.00000 0.00676
3303 52.53500 123.23960 123.00000 0.00813
3304 52.55000 124.45725 144.00000 0.00694
3305 52.56500 125.86782 133.00000 0.00752
3306 52.58000 127.44947 124.00000 0.00806
3307 52.59500 129.16717 140.00000 0.00714
3308 52.61000 130.96939 144.00000 0.00694
3309 52.62500 132.78958 144.00000 0.00694
3310 52.64000 134.55751 138.00000 0.00725
3311 52.65500 136.19117 129.00000 0.00775
3312 52.67000 137.63021 142.00000 0.00704
3313 52.68500 138.84658 148.00000 0.00676
3314 52.70000 139.85335 140.00000 0.00714
3315 52.71500 140.70532 142.00000 0.00704
3316 52.73000 141.48356 149.00000 0.00671
3317 52.74500 142.28892 159.00000 0.00629
3318 52.76000 143.22680 149.00000 0.00671
3319 52.77500 144.39642 128.00000 0.00781
3320 52.79000 145.88107 147.00000 0.00680
3321 52.80500 147.73862 153.00000 0.00654
3322 52.82000 149.99296 138.00000 0.00725
3323 52.83500 152.62610 142.00000 0.00704
3324 52.85000 155.57028 154.00000 0.00649
3325 52.86500 158.70034 176.00000 0.00568
3326 52.88000 161.82903 175.00000 0.00571
3327 52.89500 164.71132 188.00000 0.00532
3328 52.91000 167.06378 178.00000 0.00562
3329 52.92500 168.60505 175.00000 0.00571
3330 52.94000 169.11454 170.00000 0.00588
3331 52.95500 168.47183 186.00000 0.00538
3332 52.97000 166.69554 182.00000 0.00549
3333 52.98500 163.93213 171.00000 0.00585
3334 53.00000 160.41593 154.00000 0.00649
3335 53.01500 156.41648 171.00000 0.00585
3336 53.03000 152.19142 147.00000 0.00680
3337 53.04500 147.95687 161.00000 0.00621
3338 53.06000 143.87631 157.00000 0.00637
3339 53.07500 140.06264 161.00000 0.00621
3340 53.09000 136.58702 153.00000 0.00654
3341 53.10500 133.48783 135.00000 0.00741
3342 53.12000 130.78000 147.00000 0.00680
3343 53.13500 128.46366 142.00000 0.00704
3344 53.15000 126.52766 142.00000 0.00704
3345 53.16500 124.95431 130.00000 0.00769
3346 53.18000 123.72251 125.00000 0.00800
3347 53.19500 122.81023 127.00000 0.00787
3348 53.21000 122.19656 115.00000 0.00870
3349 53.22500 121.86343 122.00000 0.00820
3350 53.24000 121.79700 129.00000 0.00775
3351 53.25500 121.98780 133.00000 0.00752
3352 53.27000 122.43238 131.00000 0.00763
3353 53.28500 123.13320 135.00000 0.00741
3354 53.30000 124.09837 135.00000 0.00741
3355 53.31500 125.34146 136.00000 0.00735
3356 53.33000 126.87885 130.00000 0.00769
3357 53.34500 128.73131 130.00000 0.00769
3358 53.36000 130.92063 149.00000 0.00671
3359 53.37500 133.46921 148.00000 0.00676
3360 53.39000 136.39888 161.00000 0.00621
3361 53.40500 139.73373 159.00000 0.00629
3362 53.42000 143.50027 148.00000 0.00676
3363 53.43500 147.72778 141.00000 0.00709
3364 53.45000 152.44497 141.00000 0.00709
3365 53.46500 157.67169 154.00000 0.00649
3366 53.48000 163.40643 185.00000 0.00541
3367 53.49500 169.61148 194.00000 0.00515
3368 53.51000 176.19834 199.00000 0.00503
3369 53.52500 183.01654 184.00000 0.00543
3370 53.54000 189.84816 185.00000 0.00541
3371 53.55500 196.41146 187.00000 0.00535
3372 53.57000 202.37539 190.00000 0.00526
3373 53.58500 207.40040 197.00000 0.00508
3374 53.60000 211.14023 205.00000 0.00488
3375 53.61500 213.31104 217.00000 0.00461
3376 53.63000 213.73696 217.00000 0.00461
3377 53.64500 212.38247 195.00000 0.00513
3378 53.66000 209.39310 219.00000 0.00457
3379 53.67500 205.07832 225.00000 0.00444
3380 53.69000 199.85655 203.00000 0.00493
3381 53.70500 194.18255 204.00000 0.00490
3382 53.72000 188.48149 184.00000 0.00543
3383 53.73500 183.11108 180.00000 0.00556
3384 53.75000 178.35062 194.00000 0.00515
3385 53.76500 174.40834 171.00000 0.00585
3386 53.78000 171.43230 174.00000 0.00575
3387 53.79500 169.52789 180.00000 0.00556
3388 53.81000 168.76673 187.00000 0.00535
3389 53.82500 169.19339 164.00000 0.00610
3390 53.84000 170.82953 174.00000 0.00575
3391 53.85500 173.67012 163.00000 0.00613
3392 53.87000 177.68827 180.00000 0.00556
3393 53.88500 182.82486 178.00000 0.00562
3394 53.90000 188.98109 181.00000 0.00552
3395 53.91500 196.00351 201.00000 0.00498
3396 53.93000 203.66858 205.00000 0.00488
3397 53.94500 211.66073 231.00000 0.00433
3398 53.96000 219.55771 231.00000 0.00433
3399 53.97500 226.83105 222.00000 0.00450
3400 53.99000 232.87972 248.00000 0.00403
3401 54.00500 237.10728 268.00000 0.00373
3402 54.02000 239.03542 246.00000 0.00407
3403 54.03500 238.41991 233.00000 0.00429
3404 54.05000 235.31798 240.00000 0.00417
3405 54.06500 230.07277 238.00000 0.00420
3406 54.08000 223.22104 240.00000 0.00417
3407 54.09500 215.36773 228.00000 0.00439
3408 54.11000 207.07894 220.00000 0.00455
3409 54.12500 198.81908 213.00000 0.00469
3410 54.14000 190.93101 191.00000 0.00524
3411 54.15500 183.64340 176.00000 0.00568
3412 54.17000 177.08918 166.00000 0.00602
3413 54.18500 171.32438 164.00000 0.00610
3414 54.20000 166.34217 159.00000 0.00629
3415 54.21500 162.08553 158.00000 0.00633
3416 54.23000 158.45511 163.00000 0.00613
3417 54.24500 155.32029 151.00000 0.00662
3418 54.26000 152.53462 135.00000 0.00741
3419 54.27500 149.95517 135.00000 0.00741
3420 54.29000 147.46730 155.00000 0.00645
3421 54.30500 145.00105 167.00000 0.00599
3422 54.32000 142.53753 152.00000 0.00658
3423 54.33500 140.10112 135.00000 0.00741
3424 54.35000 137.74306 128.00000 0.00781
3425 54.36500 135.52086 129.00000 0.00775
3426 54.38000 133.49064 131.00000 0.00763
3427 54.39500 131.69802 124.00000 0.00806
3428 54.41000 130.17844 126.00000 0.00794
3429 54.42500 128.95996 135.00000 0.00741
3430 54.44000 128.06242 137.00000 0.00730
3431 54.45500 127.50550 124.00000 0.00806
3432 54.47000 127.30524 124.00000 0.00806
3433 54.48500 127.48034 116.00000 0.00862
3434 54.50000 128.04646 126.00000 0.00794
3435 54.51500 129.01573 127.00000 0.00787
3436 54.53000 130.39878 122.00000 0.00820
3437 54.54500 132.20156 130.00000 0.00769
3438 54.56000 134.42301 131.00000 0.00763
3439 54.57500 137.05219 134.00000 0.00746
3440 54.59000 140.06498 135.00000 0.00741
3441 54.60500 143.42046 141.00000 0.00709
3442 54.62000 147.05666 140.00000 0.00714
3443 54.63500 150.88571 137.00000 0.00730
3444 54.65000 154.78797 142.00000 0.00704
3445 54.66500 158.60628 167.00000 0.00599
3446 54.68000 162.14360 151.00000 0.00662
3447 54.69500 165.16874 147.00000 0.00680
3448 54.71000 167.43932 152.00000 0.00658
3449 54.72500 168.74057 161.00000 0.00621
3450 54.74000 168.92972 152.00000 0.00658
3451 54.75500 167.97219 157.00000 0.00637
3452 54.77000 165.95217 154.00000 0.00649
3453 54.78500 163.05290 157.00000 0.00637
3454 54.80000 159.51603 158.00000 0.00633
3455 54.81500 155.59641 176.00000 0.00568
3456 54.83000 151.52692 145.00000 0.00690
3457 54.84500 147.49827 132.00000 0.00758
3458 54.86000 143.65465 143.00000 0.00699
3459 54.87500 140.09312 134.00000 0.00746
3460 54.89000 136.87790 129.00000 0.00775
3461 54.90500 134.04509 125.00000 0.00800
3462 54.92000 131.61086 120.00000 0.00833
3463 54.93500 129.57594 130.00000 0.00769
3464 54.95000 127.93259 131.00000 0.00763
3465 54.96500 126.66608 153.00000 0.00654
3466 54.98000 125.75831 123.00000 0.00813
3467 54.99500 125.18957 108.00000 0.00926
3468 55.01000 124.94046 127.00000 0.00787
3469 55.02500 124.99359 129.00000 0.00775
3470 55.04000 125.33461 117.00000 0.00855
3471 55.05500 125.95561 121.00000 0.00826
3472 55.07000 126.85663 132.00000 0.00758
3473 55.08500 128.04838 133.00000 0.00752
3474 55.10000 129.55380 131.00000 0.00763
3475 55.11500 131.40794 138.00000 0.00725
3476 55.13000 133.65577 131.00000 0.00763
3477 55.14500 136.34841 119.00000 0.00840
3478 55.16000 139.53892 127.00000 0.00787
3479 55.17500 143.27798 145.00000 0.00690
3480 55.19000 147.60902 145.00000 0.00690
3481 55.20500 152.56557 168.00000 0.00595
3482 55.22000 158.16848 154.00000 0.00649
3483 55.23500 164.41067 156.00000 0.00641
3484 55.25000 171.25670 165.00000 0.00606
3485 55.26500 178.62976 188.00000 0.00532
3486 55.28000 186.40075 197.00000 0.00508
3487 55.29500 194.37987 184.00000 0.00543
3488 55.31000 202.31639 201.00000 0.00498
3489 55.32500 209.91256 207.00000 0.00483
3490 55.34000 216.85582 195.00000 0.00513
3491 55.35500 222.86397 220.00000 0.00455
3492 55.37000 227.73125 216.00000 0.00463
3493 55.38500 231.35933 223.00000 0.00448
3494 55.40000 233.76484 230.00000 0.00435
3495 55.41500 235.06625 228.00000 0.00439
3496 55.43000 235.45827 254.00000 0.00394
3497 55.44500 235.17867 242.00000 0.00413
3498 55.46000 234.47007 219.00000 0.00457
3499 55.47500 233.54195 223.00000 0.00448
3500 55.49000 232.54244 244.00000 0.00410
3501 55.50500 231.54787 256.00000 0.00391
3502 55.52000 230.56970 226.00000 0.00442
3503 55.53500 229.57049 226.00000 0.00442
3504 55.55000 228.47841 254.00000 0.00394
3505 55.56500 227.19625 229.00000 0.00437
3506 55.58000 225.61090 228.00000 0.00439
3507 55.59500 223.61344 245.00000 0.00408
3508 55.61000 221.13342 217.00000 0.00461
3509 55.62500 218.17666 196.00000 0.00510
3510 55.64000 214.84679 213.00000 0.00469
3511 55.65500 211.33706 211.00000 0.00474
3512 55.67000 207.89385 217.00000 0.00461
3513 55.68500 204.76873 207.00000 0.00483
3514 55.70000 202.17684 195.00000 0.00513
3515 55.71500 200.27007 188.00000 0.00532
3516 55.73000 199.12476 187.00000 0.00535
3517 55.74500 198.73860 199.00000 0.00503
3518 55.76000 199.03067 187.00000 0.00535
3519 55.77500 199.83541 171.00000 0.00585
3520 55.79000 200.90790 181.00000 0.00552
3521 55.80500 201.93158 181.00000 0.00552
3522 55.82000 202.54491 190.00000 0.00526
3523 55.83500 202.39386 198.00000 0.00505
3524 55.85000 201.18895 194.00000 0.00515
3525 55.86500 198.76355 167.00000 0.00599
3526 55.88000 195.11751 180.00000 0.00556
3527 55.89500 190.40588 177.00000 0.00565
3528 55.91000 184.89207 170.00000 0.00588
3529 55.92500 178.88455 154.00000 0.00649
3530 55.94000 172.67898 159.00000 0.00629
3531 55.95500 166.52646 162.00000 0.00617
3532 55.97000 160.61963 147.00000 0.00680
3533 55.98500 155.09590 148.00000 0.00676
3534 56.00000 150.04642 146.00000 0.00685
3535 56.01500 145.52697 120.00000 0.00833
3536 56.03000 141.56731 117.00000 0.00855
3537 56.04500 138.17831 128.00000 0.00781
3538 56.06000 135.35707 124.00000 0.00806
3539 56.07500 133.09096 135.00000 0.00741
3540 56.09000 131.36013 142.00000 0.00704
3541 56.10500 130.13767 125.00000 0.00800
3542 56.12000 129.39975 122.00000 0.00820
3543 56.13500 129.11861 133.00000 0.00752
3544 56.15000 129.25565 122.00000 0.00820
3545 56.16500 129.77269 120.00000 0.00833
3546 56.18000 130.62583 126.00000 0.00794
3547 56.19500 131.76234 128.00000 0.00781
3548 56.21000 133.11829 121.00000 0.00826
3549 56.22500 134.61550 140.00000 0.00714
3550 56.24000 136.16134 132.00000 0.00758
3551 56.25500 137.65417 123.00000 0.00813
3552 56.27000 138.99325 130.00000 0.00769
3553 56.28500 140.09408 132.00000 0.00758
3554 56.30000 140.90141 127.00000 0.00787
3555 56.31500 141.40191 127.00000 0.00787
3556 56.33000 141.61378 147.00000 0.00680
3557 56.34500 141.58022 157.00000 0.00637
3558 56.36000 141.34886 137.00000 0.00730
3559 56.37500 140.95871 138.00000 0.00725
3560 56.39000 140.43423 163.00000 0.00613
3561 56.40500 139.78397 154.00000 0.00649
3562 56.42000 139.00682 129.00000 0.00775
3563 56.43500 138.09253 128.00000 0.00781
3564 56.45000 137.02465 147.00000 0.00680
3565 56.46500 135.78497 136.00000 0.00735
3566 56.48000 134.36134 132.00000 0.00758
3567 56.49500 132.75642 122.00000 0.00820
3568 56.51000 130.99426 142.00000 0.00704
3569 56.52500 129.12039 132.00000 0.00758
3570 56.54000 127.19498 135.00000 0.00741
3571 56.55500 125.28260 126.00000 0.00794
3572 56.57000 123.44268 132.00000 0.00758
3573 56.58500 121.72360 131.00000 0.00763
3574 56.60000 120.16065 119.00000 0.00840
3575 56.61500 118.77682 117.00000 0.00855
3576 56.63000 117.58486 119.00000 0.00840
3577 56.64500 116.58957 114.00000 0.00877
3578 56.66000 115.78978 101.00000 0.00990
3579 56.67500 115.17976 103.00000 0.00971
3580 56.69000 114.75016 121.00000 0.00826
3581 56.70500 114.48882 128.00000 0.00781
3582 56.72000 114.38021 106.00000 0.00943
3583 56.73500 114.40452 111.00000 0.00901
3584 56.75000 114.54025 126.00000 0.00794
3585 56.76500 114.76146 109.00000 0.00917
3586 56.78000 115.03887 95.00000 0.01053
3587 56.79500 115.34718 105.00000 0.00952
3588 56.81000 115.65671 114.00000 0.00877
3589 56.82500 115.94673 132.00000 0.00758
3590 56.84000 116.20824 128.00000 0.00781
3591 56.85500 116.44593 120.00000 0.00833
3592 56.87000 116.67865 118.00000 0.00847
3593 56.88500 116.93481 107.00000 0.00935
3594 56.90000 117.25023 108.00000 0.00926
3595 56.91500 117.66367 109.00000 0.00917
3596 56.93000 118.21431 107.00000 0.00935
3597 56.94500 118.94057 105.00000 0.00952
3598 56.96000 119.88088 116.00000 0.00862
3599 56.97500 121.07338 128.00000 0.00781
3600 56.99000 122.55790 106.00000 0.00943
3601 57.00500 124.37501 116.00000 0.00862
3602 57.02000 126.56676 133.00000 0.00752
3603 57.03500 129.17432 126.00000 0.00794
3604 57.05000 132.23707 148.00000 0.00676
3605 57.06500 135.79329 130.00000 0.00769
3606 57.08000 139.87884 129.00000 0.00775
3607 57.09500 144.52495 149.00000 0.00671
3608 57.11000 149.74416 156.00000 0.00641
3609 57.12500 155.53722 159.00000 0.00629
3610 57.14000 161.88308 164.00000 0.00610
3611 57.15500 168.73106 164.00000 0.00610
3612 57.17000 175.99237 193.00000 0.00518
3613 57.18500 183.52857 216.00000 0.00463
3614 57.20000 191.15117 209.00000 0.00478
3615 57.21500 198.62251 225.00000 0.00444
3616 57.23000 205.67441 232.00000 0.00431
3617 57.24500 212.04138 209.00000 0.00478
3618 57.26000 217.50291 206.00000 0.00485
3619 57.27500 221.92018 216.00000 0.00463
3620 57.29000 225.25113 239.00000 0.00418
3621 57.30500 227.53718 251.00000 0.00398
3622 57.32000 228.87057 235.00000 0.00426
3623 57.33500 229.36137 234.00000 0.00427
3624 57.35000 229.12070 215.00000 0.00465
3625 57.36500 228.26968 212.00000 0.00472
3626 57.38000 226.94095 225.00000 0.00444
3627 57.39500 225.30056 228.00000 0.00439
3628 57.41000 223.54865 231.00000 0.00433
3629 57.42500 221.87207 222.00000 0.00450
3630 57.44000 220.43976 208.00000 0.00481
3631 57.45500 219.36842 241.00000 0.00415
3632 57.47000 218.70413 217.00000 0.00461
3633 57.48500 218.41606 209.00000 0.00478
3634 57.50000 218.40235 203.00000 0.00493
3635 57.51500 218.50639 210.00000 0.00476
3636 57.53000 218.54088 199.00000 0.00503
3637 57.54500 218.31630 197.00000 0.00508
3638 57.56000 217.67089 224.00000 0.00446
3639 57.57500 216.49930 230.00000 0.00435
3640 57.59000 214.77636 231.00000 0.00433
3641 57.60500 212.56951 208.00000 0.00481
3642 57.62000 210.03483 212.00000 0.00472
3643 57.63500 207.39346 203.00000 0.00493
3644 57.65000 204.89777 200.00000 0.00500
3645 57.66500 202.79712 187.00000 0.00535
3646 57.68000 201.31252 183.00000 0.00546
3647 57.69500 200.62236 187.00000 0.00535
3648 57.71000 200.85939 187.00000 0.00535
3649 57.72500 202.11294 202.00000 0.00495
3650 57.74000 204.43600 180.00000 0.00556
3651 57.75500 207.85427 194.00000 0.00515
3652 57.77000 212.37635 203.00000 0.00493
3653 57.78500 218.00216 220.00000 0.00455
3654 57.80000 224.72566 213.00000 0.00469
3655 57.81500 232.52844 236.00000 0.00424
3656 57.83000 241.36466 224.00000 0.00446
3657 57.84500 251.13758 228.00000 0.00439
3658 57.86000 261.67381 239.00000 0.00418
3659 57.87500 272.69915 279.00000 0.00358
3660 57.89000 283.82458 320.00000 0.00312
3661 57.90500 294.54698 301.00000 0.00332
3662 57.92000 304.27831 306.00000 0.00327
3663 57.93500 312.40786 334.00000 0.00299
3664 57.95000 318.38737 316.00000 0.00316
3665 57.96500 321.82308 300.00000 0.00333
3666 57.98000 322.54055 295.00000 0.00339
3667 57.99500 320.60106 328.00000 0.00305
3668 58.01000 316.26909 346.00000 0.00289
3669 58.02500 309.94811 333.00000 0.00300
3670 58.04000 302.10787 281.00000 0.00356
3671 58.05500 293.21742 283.00000 0.00353
3672 58.07000 283.69583 279.00000 0.00358
3673 58.08500 273.88146 238.00000 0.00420
3674 58.10000 264.02356 264.00000 0.00379
3675 58.11500 254.29287 236.00000 0.00424
3676 58.13000 244.80201 269.00000 0.00372
3677 58.14500 235.62558 230.00000 0.00435
3678 58.16000 226.81350 201.00000 0.00498
3679 58.17500 218.39814 198.00000 0.00505
3680 58.19000 210.39956 206.00000 0.00485
3681 58.20500 202.83421 203.00000 0.00493
3682 58.22000 195.72448 194.00000 0.00515
3683 58.23500 189.10787 210.00000 0.00476
3684 58.25000 183.03468 193.00000 0.00518
3685 58.26500 177.56480 190.00000 0.00526
3686 58.28000 172.75704 175.00000 0.00571
3687 58.29500 168.66060 178.00000 0.00562
3688 58.31000 165.31482 137.00000 0.00730
3689 58.32500 162.74178 166.00000 0.00602
3690 58.34000 160.94634 164.00000 0.00610
3691 58.35500 159.91961 152.00000 0.00658
3692 58.37000 159.64379 158.00000 0.00633
3693 58.38500 160.08853 163.00000 0.00613
3694 58.40000 161.21111 173.00000 0.00578
3695 58.41500 162.95382 172.00000 0.00581
3696 58.43000 165.23917 175.00000 0.00571
3697 58.44500 167.96710 188.00000 0.00532
3698 58.46000 171.00798 204.00000 0.00490
3699 58.47500 174.19987 214.00000 0.00467
3700 58.49000 177.35096 215.00000 0.00465
3701 58.50500 180.25152 241.00000 0.00415
3702 58.52000 182.69809 237.00000 0.00422
3703 58.53500 184.52777 210.00000 0.00476
3704 58.55000 185.65362 226.00000 0.00442
3705 58.56500 186.08795 214.00000 0.00467
3706 58.58000 185.94325 227.00000 0.00441
3707 58.59500 185.41219 203.00000 0.00493
3708 58.61000 184.72409 179.00000 0.00559
3709 58.62500 184.11263 176.00000 0.00568
3710 58.64000 183.78586 196.00000 0.00510
3711 58.65500 183.91022 207.00000 0.00483
3712 58.67000 184.60414 187.00000 0.00535
3713 58.68500 185.93698 173.00000 0.00578
3714 58.70000 187.92902 180.00000 0.00556
3715 58.71500 190.55065 195.00000 0.00513
3716 58.73000 193.72170 189.00000 0.00529
3717 58.74500 197.30743 191.00000 0.00524
3718 58.76000 201.13001 199.00000 0.00503
3719 58.77500 204.97442 209.00000 0.00478
3720 58.79000 208.61558 230.00000 0.00435
3721 58.80500 211.84673 220.00000 0.00455
3722 58.82000 214.50789 217.00000 0.00461
3723 58.83500 216.50646 246.00000 0.00407
3724 58.85000 217.82319 243.00000 0.00412
3725 58.86500 218.50417 223.00000 0.00448
3726 58.88000 218.64223 240.00000 0.00417
3727 58.89500 218.35385 226.00000 0.00442
3728 58.91000 217.75229 228.00000 0.00439
3729 58.92500 216.92589 237.00000 0.00422
3730 58.94000 215.92200 216.00000 0.00463
3731 58.95500 214.74209 226.00000 0.00442
3732 58.97000 213.34557 221.00000 0.00452
3733 58.98500 211.65818 223.00000 0.00448
3734 59.00000 209.58148 209.00000 0.00478
3735 59.01500 207.00367 234.00000 0.00427
3736 59.03000 203.81543 218.00000 0.00459
3737 59.04500 199.93286 192.00000 0.00521
3738 59.06000 195.32351 201.00000 0.00498
3739 59.07500 190.02535 208.00000 0.00481
3740 59.09000 184.14886 192.00000 0.00521
3741 59.10500 177.85997 188.00000 0.00532
3742 59.12000 171.35103 177.00000 0.00565
3743 59.13500 164.81117 179.00000 0.00559
3744 59.15000 158.40316 180.00000 0.00556
3745 59.16500 152.25525 151.00000 0.00662
3746 59.18000 146.45812 152.00000 0.00658
3747 59.19500 141.06954 135.00000 0.00741
3748 59.21000 136.12049 140.00000 0.00714
3749 59.22500 131.62176 134.00000 0.00746
3750 59.24000 127.57056 125.00000 0.00800
3751 59.25500 123.95144 125.00000 0.00800
3752 59.27000 120.74248 129.00000 0.00775
3753 59.28500 117.91704 123.00000 0.00813
3754 59.30000 115.44543 121.00000 0.00826
3755 59.31500 113.29700 134.00000 0.00746
3756 59.33000 111.44125 110.00000 0.00909
3757 59.34500 109.84952 112.00000 0.00893
3758 59.36000 108.49294 98.00000 0.01020
3759 59.37500 107.34763 111.00000 0.00901
3760 59.39000 106.39194 122.00000 0.00820
3761 59.40500 105.60744 101.00000 0.00990
3762 59.42000 104.97892 109.00000 0.00917
3763 59.43500 104.49420 108.00000 0.00926
3764 59.45000 104.14385 112.00000 0.00893
3765 59.46500 103.92081 113.00000 0.00885
3766 59.48000 103.81985 114.00000 0.00877
3767 59.49500 103.83707 103.00000 0.00971
3768 59.51000 103.96942 106.00000 0.00943
3769 59.52500 104.21476 98.00000 0.01020
3770 59.54000 104.56717 94.00000 0.01064
3771 59.55500 105.02277 115.00000 0.00870
3772 59.57000 105.57416 115.00000 0.00870
3773 59.58500 106.21057 95.00000 0.01053
3774 59.60000 106.91656 98.00000 0.01020
3775 59.61500 107.67072 108.00000 0.00926
3776 59.63000 108.44457 111.00000 0.00901
3777 59.64500 109.20238 117.00000 0.00855
3778 59.66000 109.90237 103.00000 0.00971
3779 59.67500 110.50029 102.00000 0.00980
3780 59.69000 110.95517 116.00000 0.00862
3781 59.70500 111.23618 117.00000 0.00855
3782 59.72000 111.32848 112.00000 0.00893
3783 59.73500 111.23558 113.00000 0.00885
3784 59.75000 110.97732 128.00000 0.00781
3785 59.76500 110.58411 111.00000 0.00901
3786 59.78000 110.09010 111.00000 0.00901
3787 59.79500 109.52837 105.00000 0.00952
3788 59.81000 108.92715 111.00000 0.00901
3789 59.82500 108.30790 112.00000 0.00893
3790 59.84000 107.68603 93.00000 0.01075
3791 59.85500 107.07166 116.00000 0.00862
3792 59.87000 106.46914 117.00000 0.00855
3793 59.88500 105.87800 119.00000 0.00840
3794 59.90000 105.29471 107.00000 0.00935
3795 59.91500 104.71509 101.00000 0.00990
3796 59.93000 104.13732 104.00000 0.00962
3797 59.94500 103.56290 100.00000 0.01000
3798 59.96000 102.99881 116.00000 0.00862
3799 59.97500 102.45572 109.00000 0.00917
3800 59.99000 101.94632 93.00000 0.01075
3801 60.00500 101.48343 92.00000 0.01087
3802 60.02000 101.07871 97.00000 0.01031
3803 60.03500 100.74204 90.00000 0.01111
3804 60.05000 100.48154 87.00000 0.01149
3805 60.06500 100.30429 98.00000 0.01020
3806 60.08000 100.21612 108.00000 0.00926
3807 60.09500 100.22286 105.00000 0.00952
3808 60.11000 100.33130 99.00000 0.01010
3809 60.12500 100.55275 94.00000 0.01064
3810 60.14000 100.89439 107.00000 0.00935
3811 60.15500 101.36636 115.00000 0.00870
3812 60.17000 101.98138 102.00000 0.00980
3813 60.18500 102.75347 91.00000 0.01099
3814 60.20000 103.69812 103.00000 0.00971
3815 60.21500 104.83204 107.00000 0.00935
3816 60.23000 106.17276 101.00000 0.00990
3817 60.24500 107.73804 92.00000 0.01087
3818 60.26000 109.54522 96.00000 0.01042
3819 60.27500 111.61039 102.00000 0.00980
3820 60.29000 113.94739 115.00000 0.00870
3821 60.30500 116.56669 109.00000 0.00917
3822 60.32000 119.47385 118.00000 0.00847
3823 60.33500 122.66767 132.00000 0.00758
3824 60.35000 126.13786 123.00000 0.00813
3825 60.36500 129.86192 123.00000 0.00813
3826 60.38000 133.80108 126.00000 0.00794
3827 60.39500 137.90109 145.00000 0.00690
3828 60.41000 142.08039 137.00000 0.00730
3829 60.42500 146.23709 143.00000 0.00699
3830 60.44000 150.25219 149.00000 0.00671
3831 60.45500 154.00216 146.00000 0.00685
3832 60.47000 157.37559 149.00000 0.00671
3833 60.48500 160.29803 158.00000 0.00633
3834 60.50000 162.74755 166.00000 0.00602
3835 60.51500 164.76213 182.00000 0.00549
3836 60.53000 166.43265 166.00000 0.00602
3837 60.54500 167.88478 146.00000 0.00685
3838 60.56000 169.25525 146.00000 0.00685
3839 60.57500 170.67098 157.00000 0.00637
3840 60.59000 172.23183 164.00000 0.00610
3841 60.60500 173.99994 159.00000 0.00629
3842 60.62000 175.99382 167.00000 0.00599
3843 60.63500 178.18570 177.00000 0.00565
3844 60.65000 180.50006 180.00000 0.00556
3845 60.66500 182.81529 172.00000 0.00581
3846 60.68000 184.96647 176.00000 0.00568
3847 60.69500 186.75503 154.00000 0.00649
3848 60.71000 187.96572 160.00000 0.00625
3849 60.72500 188.39767 174.00000 0.00575
3850 60.74000 187.89354 165.00000 0.00606
3851 60.75500 186.37439 169.00000 0.00592
3852 60.77000 183.85662 175.00000 0.00571
3853 60.78500 180.45095 170.00000 0.00588
3854 60.80000 176.34217 172.00000 0.00581
3855 60.81500 171.75698 164.00000 0.00610
3856 60.83000 166.93128 145.00000 0.00690
3857 60.84500 162.08252 150.00000 0.00667
3858 60.86000 157.39717 149.00000 0.00671
3859 60.87500 153.02367 129.00000 0.00775
3860 60.89000 149.07411 152.00000 0.00658
3861 60.90500 145.62873 142.00000 0.00704
3862 60.92000 142.74098 146.00000 0.00685
3863 60.93500 140.44213 131.00000 0.00763
3864 60.95000 138.74485 130.00000 0.00769
3865 60.96500 137.64568 136.00000 0.00735
3866 60.98000 137.12566 102.00000 0.00980
3867 60.99500 137.15232 126.00000 0.00794
3868 61.01000 137.67794 124.00000 0.00806
3869 61.02500 138.63923 123.00000 0.00813
3870 61.04000 139.95515 127.00000 0.00787
3871 61.05500 141.52527 129.00000 0.00775
3872 61.07000 143.22914 140.00000 0.00714
3873 61.08500 144.93019 138.00000 0.00725
3874 61.10000 146.47801 129.00000 0.00775
3875 61.11500 147.73068 119.00000 0.00840
3876 61.13000 148.56917 119.00000 0.00840
3877 61.14500 148.92002 145.00000 0.00690
3878 61.16000 148.76881 156.00000 0.00641
3879 61.17500 148.16639 150.00000 0.00667
3880 61.19000 147.21747 129.00000 0.00775
3881 61.20500 146.06135 108.00000 0.00926
3882 61.22000 144.85063 134.00000 0.00746
3883 61.23500 143.73248 132.00000 0.00758
3884 61.25000 142.83675 144.00000 0.00694
3885 61.26500 142.27038 142.00000 0.00704
3886 61.28000 142.11609 137.00000 0.00730
3887 61.29500 142.43322 131.00000 0.00763
3888 61.31000 143.25894 136.00000 0.00735
3889 61.32500 144.60893 128.00000 0.00781
3890 61.34000 146.47695 154.00000 0.00649
3891 61.35500 148.83334 146.00000 0.00685
3892 61.37000 151.62270 152.00000 0.00658
3893 61.38500 154.76130 168.00000 0.00595
3894 61.40000 158.13552 177.00000 0.00565
3895 61.41500 161.60288 193.00000 0.00518
3896 61.43000 164.99768 179.00000 0.00559
3897 61.44500 168.14199 189.00000 0.00529
3898 61.46000 170.86116 172.00000 0.00581
3899 61.47500 173.00036 177.00000 0.00565
3900 61.49000 174.43750 185.00000 0.00541
3901 61.50500 175.08936 199.00000 0.00503
3902 61.52000 174.91265 178.00000 0.00562
3903 61.53500 173.89975 200.00000 0.00500
3904 61.55000 172.08309 181.00000 0.00552
3905 61.56500 169.53527 176.00000 0.00568
3906 61.58000 166.36930 175.00000 0.00571
3907 61.59500 162.73259 182.00000 0.00549
3908 61.61000 158.79352 138.00000 0.00725
3909 61.62500 154.72490 143.00000 0.00699
3910 61.64000 150.68818 164.00000 0.00610
3911 61.65500 146.82273 169.00000 0.00592
3912 61.67000 143.23994 144.00000 0.00694
3913 61.68500 140.02485 153.00000 0.00654
3914 61.70000 137.23651 147.00000 0.00680
3915 61.71500 134.91278 145.00000 0.00690
3916 61.73000 133.07296 139.00000 0.00719
3917 61.74500 131.72068 137.00000 0.00730
3918 61.76000 130.84555 121.00000 0.00826
3919 61.77500 130.42437 132.00000 0.00758
3920 61.79000 130.42157 154.00000 0.00649
3921 61.80500 130.78899 151.00000 0.00662
3922 61.82000 131.47346 141.00000 0.00709
3923 61.83500 132.41166 134.00000 0.00746
3924 61.85000 133.53283 143.00000 0.00699
3925 61.86500 134.77209 149.00000 0.00671
3926 61.88000 136.07433 137.00000 0.00730
3927 61.89500 137.40082 142.00000 0.00704
3928 61.91000 138.72901 138.00000 0.00725
3929 61.92500 140.04931 131.00000 0.00763
3930 61.94000 141.36097 129.00000 0.00775
3931 61.95500 142.66623 135.00000 0.00741
3932 61.97000 143.96811 143.00000 0.00699
3933 61.98500 145.27209 145.00000 0.00690
3934 62.00000 146.58979 141.00000 0.00709
3935 62.01500 147.94169 164.00000 0.00610
3936 62.03000 149.35591 145.00000 0.00690
3937 62.04500 150.86225 131.00000 0.00763
3938 62.06000 152.48233 151.00000 0.00662
3939 62.07500 154.21933 159.00000 0.00629
3940 62.09000 156.04828 155.00000 0.00645
3941 62.10500 157.90924 148.00000 0.00676
3942 62.12000 159.70542 157.00000 0.00637
3943 62.13500 161.30656 151.00000 0.00662
3944 62.15000 162.55994 167.00000 0.00599
3945 62.16500 163.31053 153.00000 0.00654
3946 62.18000 163.42581 157.00000 0.00637
3947 62.19500 162.82279 152.00000 0.00658
3948 62.21000 161.49039 150.00000 0.00667
3949 62.22500 159.48534 169.00000 0.00592
3950 62.24000 156.92850 173.00000 0.00578
3951 62.25500 153.98027 142.00000 0.00704
3952 62.27000 150.81502 142.00000 0.00704
3953 62.28500 147.59978 133.00000 0.00752
3954 62.30000 144.48064 146.00000 0.00685
3955 62.31500 141.57685 141.00000 0.00709
3956 62.33000 138.98048 145.00000 0.00690
3957 62.34500 136.75846 150.00000 0.00667
3958 62.36000 134.95660 132.00000 0.00758
3959 62.37500 133.60241 138.00000 0.00725
3960 62.39000 132.70761 140.00000 0.00714
3961 62.40500 132.26961 125.00000 0.00800
3962 62.42000 132.27222 134.00000 0.00746
3963 62.43500 132.68565 142.00000 0.00704
3964 62.45000 133.46637 126.00000 0.00794
3965 62.46500 134.55590 146.00000 0.00685
3966 62.48000 135.88291 152.00000 0.00658
3967 62.49500 137.36478 147.00000 0.00680
3968 62.51000 138.91314 155.00000 0.00645
3969 62.52500 140.44226 141.00000 0.00709
3970 62.54000 141.87942 134.00000 0.00746
3971 62.55500 143.17521 143.00000 0.00699
3972 62.57000 144.31099 136.00000 0.00735
3973 62.58500 145.30136 128.00000 0.00781
3974 62.60000 146.19189 148.00000 0.00676
3975 62.61500 147.05245 157.00000 0.00637
3976 62.63000 147.96834 143.00000 0.00699
3977 62.64500 149.03038 160.00000 0.00625
3978 62.66000 150.32560 151.00000 0.00662
3979 62.67500 151.92895 157.00000 0.00637
3980 62.69000 153.89709 157.00000 0.00637
3981 62.70500 156.26461 151.00000 0.00662
3982 62.72000 159.04296 150.00000 0.00667
3983 62.73500 162.22192 155.00000 0.00645
3984 62.75000 165.77950 169.00000 0.00592
3985 62.76500 169.68070 171.00000 0.00585
3986 62.78000 173.89321 180.00000 0.00556
3987 62.79500 178.39234 178.00000 0.00562
3988 62.81000 183.15985 187.00000 0.00535
3989 62.82500 188.18084 182.00000 0.00549
3990 62.84000 193.42939 178.00000 0.00562
3991 62.85500 198.85286 212.00000 0.00472
3992 62.87000 204.35769 224.00000 0.00446
3993 62.88500 209.80173 208.00000 0.00481
3994 62.90000 214.98968 213.00000 0.00469
3995 62.91500 219.68867 217.00000 0.00461
3996 62.93000 223.64663 219.00000 0.00457
3997 62.94500 226.62382 240.00000 0.00417
3998 62.96000 228.42381 232.00000 0.00431
3999 62.97500 228.92202 227.00000 0.00441
4000 62.99000 228.08667 222.00000 0.00450
4001 63.00500 225.96377 233.00000 0.00429
4002 63.02000 222.67772 237.00000 0.00422
4003 63.03500 218.40565 209.00000 0.00478
4004 63.05000 213.35171 213.00000 0.00469
4005 63.06500 207.72437 212.00000 0.00472
4006 63.08000 201.71085 202.00000 0.00495
4007 63.09500 195.46925 208.00000 0.00481
4008 63.11000 189.12329 221.00000 0.00452
4009 63.12500 182.76435 193.00000 0.00518
4010 63.14000 176.45666 182.00000 0.00549
4011 63.15500 170.24396 180.00000 0.00556
4012 63.17000 164.15609 164.00000 0.00610
4013 63.18500 158.21674 150.00000 0.00667
4014 63.20000 152.44954 137.00000 0.00730
4015 63.21500 146.88300 154.00000 0.00649
4016 63.23000 141.54844 158.00000 0.00633
4017 63.24500 136.48148 139.00000 0.00719
4018 63.26000 131.71527 127.00000 0.00787
4019 63.27500 127.27628 126.00000 0.00794
4020 63.29000 123.18429 146.00000 0.00685
4021 63.30500 119.44076 154.00000 0.00649
4022 63.32000 116.04793 123.00000 0.00813
4023 63.33500 113.00246 112.00000 0.00893
4024 63.35000 110.28471 112.00000 0.00893
4025 63.36500 107.87627 116.00000 0.00862
4026 63.38000 105.75475 124.00000 0.00806
4027 63.39500 103.89776 125.00000 0.00800
4028 63.41000 102.28201 117.00000 0.00855
4029 63.42500 100.88330 103.00000 0.00971
4030 63.44000 99.67850 92.00000 0.01087
4031 63.45500 98.64498 112.00000 0.00893
4032 63.47000 97.76152 109.00000 0.00917
4033 63.48500 97.00912 100.00000 0.01000
4034 63.50000 96.37277 107.00000 0.00935
4035 63.51500 95.83957 99.00000 0.01010
4036 63.53000 95.40322 102.00000 0.00980
4037 63.54500 95.06161 97.00000 0.01031
4038 63.56000 94.81768 97.00000 0.01031
4039 63.57500 94.67787 97.00000 0.01031
4040 63.59000 94.65127 108.00000 0.00926
4041 63.60500 94.74867 107.00000 0.00935
4042 63.62000 94.98182 98.00000 0.01020
4043 63.63500 95.36292 101.00000 0.00990
4044 63.65000 95.90400 101.00000 0.00990
4045 63.66500 96.61737 105.00000 0.00952
4046 63.68000 97.51291 101.00000 0.00990
4047 63.69500 98.60083 105.00000 0.00952
4048 63.71000 99.88900 105.00000 0.00952
4049 63.72500 101.38283 93.00000 0.01075
4050 63.74000 103.08521 86.00000 0.01163
4051 63.75500 104.99278 106.00000 0.00943
4052 63.77000 107.09814 110.00000 0.00909
4053 63.78500 109.38611 104.00000 0.00962
4054 63.80000 111.83308 101.00000 0.00990
4055 63.81500 114.40419 119.00000 0.00840
4056 63.83000 117.05192 135.00000 0.00741
4057 63.84500 119.71602 137.00000 0.00730
4058 63.86000 122.32292 119.00000 0.00840
4059 63.87500 124.79220 130.00000 0.00769
4060 63.89000 127.04368 130.00000 0.00769
4061 63.90500 129.00677 121.00000 0.00826
4062 63.92000 130.63075 143.00000 0.00699
4063 63.93500 131.89169 140.00000 0.00714
4064 63.95000 132.79414 146.00000 0.00685
4065 63.96500 133.36738 146.00000 0.00685
4066 63.98000 133.65806 123.00000 0.00813
4067 63.99500 133.72217 130.00000 0.00769
4068 64.01000 133.61790 128.00000 0.00781
4069 64.02500 133.39960 122.00000 0.00820
4070 64.04000 133.11243 122.00000 0.00820
4071 64.05500 132.78755 142.00000 0.00704
4072 64.07000 132.43718 131.00000 0.00763
4073 64.08500 132.05149 139.00000 0.00719
4074 64.10000 131.59797 138.00000 0.00725
4075 64.11500 131.02461 140.00000 0.00714
4076 64.13000 130.26744 126.00000 0.00794
4077 64.14500 129.26179 130.00000 0.00769
4078 64.16000 127.95619 137.00000 0.00730
4079 64.17500 126.32177 139.00000 0.00719
4080 64.19000 124.36268 129.00000 0.00775
4081 64.20500 122.11344 142.00000 0.00704
4082 64.22000 119.63420 121.00000 0.00826
4083 64.23500 116.99838 143.00000 0.00699
4084 64.25000 114.28214 129.00000 0.00775
4085 64.26500 111.55720 136.00000 0.00735
4086 64.28000 108.88517 122.00000 0.00820
4087 64.29500 106.31536 111.00000 0.00901
4088 64.31000 103.88598 90.00000 0.01111
4089 64.32500 101.62278 114.00000 0.00877
4090 64.34000 99.54451 105.00000 0.00952
4091 64.35500 97.66234 87.00000 0.01149
4092 64.37000 95.98217 97.00000 0.01031
4093 64.38500 94.50525 102.00000 0.00980
4094 64.40000 93.22986 90.00000 0.01111
4095 64.41500 92.15164 91.00000 0.01099
4096 64.43000 91.26456 92.00000 0.01087
4097 64.44500 90.56103 97.00000 0.01031
4098 64.46000 90.03190 100.00000 0.01000
4099 64.47500 89.67078 94.00000 0.01064
4100 64.49000 89.46943 92.00000 0.01087
4101 64.50500 89.41574 99.00000 0.01010
4102 64.52000 89.50061 92.00000 0.01087
4103 64.53500 89.71148 87.00000 0.01149
4104 64.55000 90.03655 97.00000 0.01031
4105 64.56500 90.46301 91.00000 0.01099
4106 64.58000 90.97816 98.00000 0.01020
4107 64.59500 91.56819 87.00000 0.01149
4108 64.61000 92.22210 89.00000 0.01124
4109 64.62500 92.93060 96.00000 0.01042
4110 64.64000 93.68703 105.00000 0.00952
4111 64.65500 94.48697 110.00000 0.00909
4112 64.67000 95.32705 101.00000 0.00990
4113 64.68500 96.20307 106.00000 0.00943
4114 64.70000 97.10798 92.00000 0.01087
4115 64.71500 98.03001 96.00000 0.01042
4116 64.73000 98.95120 96.00000 0.01042
4117 64.74500 99.84662 97.00000 0.01031
4118 64.76000 100.68468 93.00000 0.01075
4119 64.77500 101.42867 92.00000 0.01087
4120 64.79000 102.04074 107.00000 0.00935
4121 64.80500 102.48659 95.00000 0.01053
4122 64.82000 102.74148 97.00000 0.01031
4123 64.83500 102.79617 100.00000 0.01000
4124 64.85000 102.65970 95.00000 0.01053
4125 64.86500 102.35941 109.00000 0.00917
4126 64.88000 101.93467 101.00000 0.00990
4127 64.89500 101.43399 91.00000 0.01099
4128 64.91000 100.90639 89.00000 0.01124
4129 64.92500 100.39666 89.00000 0.01124
4130 64.94000 99.94201 86.00000 0.01163
4131 64.95500 99.56954 106.00000 0.00943
4132 64.97000 99.29696 105.00000 0.00952
4133 64.98500 99.13169 94.00000 0.01064
4134 65.00000 99.07140 109.00000 0.00917
4135 65.01500 99.10402 103.00000 0.00971
4136 65.03000 99.20880 93.00000 0.01075
4137 65.04500 99.35402 98.00000 0.01020
4138 65.06000 99.50327 110.00000 0.00909
4139 65.07500 99.61507 119.00000 0.00840
4140 65.09000 99.64807 128.00000 0.00781
4141 65.10500 99.56703 124.00000 0.00806
4142 65.12000 99.34849 110.00000 0.00909
4143 65.13500 98.98513 91.00000 0.01099
4144 65.15000 98.48724 107.00000 0.00935
4145 65.16500 97.88079 104.00000 0.00962
4146 65.18000 97.20300 113.00000 0.00885
4147 65.19500 96.49680 85.00000 0.01176
4148 65.21000 95.80574 92.00000 0.01087
4149 65.22500 95.17040 91.00000 0.01099
4150 65.24000 94.62625 88.00000 0.01136
4151 65.25500 94.20297 86.00000 0.01163
4152 65.27000 93.92415 101.00000 0.00990
4153 65.28500 93.81012 94.00000 0.01064
4154 65.30000 93.87395 98.00000 0.01020
4155 65.31500 94.12525 95.00000 0.01053
4156 65.33000 94.56935 98.00000 0.01020
4157 65.34500 95.20727 91.00000 0.01099
4158 65.36000 96.03632 101.00000 0.00990
4159 65.37500 97.04801 111.00000 0.00901
4160 65.39000 98.22871 116.00000 0.00862
4161 65.40500 99.55852 114.00000 0.00877
4162 65.42000 101.01050 110.00000 0.00909
4163 65.43500 102.55019 105.00000 0.00952
4164 65.45000 104.13583 112.00000 0.00893
4165 65.46500 105.71989 121.00000 0.00826
4166 65.48000 107.25221 130.00000 0.00769
4167 65.49500 108.68479 120.00000 0.00833
4168 65.51000 109.97753 123.00000 0.00813
4169 65.52500 111.10349 114.00000 0.00877
4170 65.54000 112.05220 121.00000 0.00826
4171 65.55500 112.83003 104.00000 0.00962
4172 65.57000 113.45783 104.00000 0.00962
4173 65.58500 113.96705 117.00000 0.00855
4174 65.60000 114.39517 126.00000 0.00794
4175 65.61500 114.78460 109.00000 0.00917
4176 65.63000 115.17609 104.00000 0.00962
4177 65.64500 115.60502 112.00000 0.00893
4178 65.66000 116.10166 112.00000 0.00893
4179 65.67500 116.68396 119.00000 0.00840
4180 65.69000 117.35665 120.00000 0.00833
4181 65.70500 118.10789 105.00000 0.00952
4182 65.72000 118.90741 103.00000 0.00971
4183 65.73500 119.70592 129.00000 0.00775
4184 65.75000 120.43647 124.00000 0.00806
4185 65.76500 121.01856 102.00000 0.00980
4186 65.78000 121.36565 109.00000 0.00917
4187 65.79500 121.39588 115.00000 0.00870
4188 65.81000 121.04460 107.00000 0.00935
4189 65.82500 120.27550 113.00000 0.00885
4190 65.84000 119.08746 117.00000 0.00855
4191 65.85500 117.51450 107.00000 0.00935
4192 65.87000 115.61929 99.00000 0.01010
4193 65.88500 113.48240 104.00000 0.00962
4194 65.90000 111.19068 108.00000 0.00926
4195 65.91500 108.82770 94.00000 0.01064
4196 65.93000 106.46744 97.00000 0.01031
4197 65.94500 104.17126 102.00000 0.00980
4198 65.96000 101.98745 87.00000 0.01149
4199 65.97500 99.95208 88.00000 0.01136
4200 65.99000 98.09056 90.00000 0.01111
4201 66.00500 96.41919 81.00000 0.01235
4202 66.02000 94.94651 85.00000 0.01176
4203 66.03500 93.67435 78.00000 0.01282
4204 66.05000 92.59861 82.00000 0.01220
4205 66.06500 91.70976 73.00000 0.01370
4206 66.08000 90.99317 73.00000 0.01370
4207 66.09500 90.42935 81.00000 0.01235
4208 66.11000 89.99412 93.00000 0.01075
4209 66.12500 89.65902 88.00000 0.01136
4210 66.14000 89.39200 75.00000 0.01333
4211 66.15500 89.15858 87.00000 0.01149
4212 66.17000 88.92383 89.00000 0.01124
4213 66.18500 88.65494 85.00000 0.01176
4214 66.20000 88.32424 91.00000 0.01099
4215 66.21500 87.91232 90.00000 0.01111
4216 66.23000 87.40979 93.00000 0.01075
4217 66.24500 86.81743 96.00000 0.01042
4218 66.26000 86.14529 95.00000 0.01053
4219 66.27500 85.40991 86.00000 0.01163
4220 66.29000 84.63123 90.00000 0.01111
4221 66.30500 83.82973 85.00000 0.01176
4222 66.32000 83.02436 83.00000 0.01205
4223 66.33500 82.23142 87.00000 0.01149
4224 66.35000 81.46408 80.00000 0.01250
4225 66.36500 80.73245 76.00000 0.01316
4226 66.38000 80.04393 80.00000 0.01250
4227 66.39500 79.40345 93.00000 0.01075
4228 66.41000 78.81440 85.00000 0.01176
4229 66.42500 78.28029 80.00000 0.01250
4230 66.44000 77.80044 82.00000 0.01220
4231 66.45500 77.37435 80.00000 0.01250
4232 66.47000 76.99970 87.00000 0.01149
4233 66.48500 76.67752 80.00000 0.01250
4234 66.50000 76.40763 78.00000 0.01282
4235 66.51500 76.18594 79.00000 0.01266
4236 66.53000 76.01051 74.00000 0.01351
4237 66.54500 75.87955 67.00000 0.01493
4238 66.56000 75.79153 77.00000 0.01299
4239 66.57500 75.74537 78.00000 0.01282
4240 66.59000 75.74047 78.00000 0.01282
4241 66.60500 75.77688 83.00000 0.01205
4242 66.62000 75.85534 85.00000 0.01176
4243 66.63500 75.97738 83.00000 0.01205
4244 66.65000 76.14535 73.00000 0.01370
4245 66.66500 76.36253 84.00000 0.01190
4246 66.68000 76.63307 78.00000 0.01282
4247 66.69500 76.96211 87.00000 0.01149
4248 66.71000 77.35567 78.00000 0.01282
4249 66.72500 77.82071 69.00000 0.01449
4250 66.74000 78.36505 86.00000 0.01163
4251 66.75500 78.99723 92.00000 0.01087
4252 66.77000 79.72646 89.00000 0.01124
4253 66.78500 80.56241 72.00000 0.01389
4254 66.80000 81.51493 83.00000 0.01205
4255 66.81500 82.59384 101.00000 0.00990
4256 66.83000 83.80847 96.00000 0.01042
4257 66.84500 85.16720 108.00000 0.00926
4258 66.86000 86.67694 105.00000 0.00952
4259 66.87500 88.34239 89.00000 0.01124
4260 66.89000 90.16535 99.00000 0.01010
4261 66.90500 92.14383 90.00000 0.01111
4262 66.92000 94.27107 81.00000 0.01235
4263 66.93500 96.53489 94.00000 0.01064
4264 66.95000 98.91681 106.00000 0.00943
4265 66.96500 101.39234 117.00000 0.00855
4266 66.98000 103.94183 97.00000 0.01031
4267 66.99500 106.52556 103.00000 0.00971
4268 67.01000 109.10489 108.00000 0.00926
4269 67.02500 111.63655 115.00000 0.00870
4270 67.04000 114.07261 106.00000 0.00943
4271 67.05500 116.36073 133.00000 0.00752
4272 67.07000 118.44518 111.00000 0.00901
4273 67.08500 120.26884 116.00000 0.00862
4274 67.10000 121.77608 119.00000 0.00840
4275 67.11500 122.91600 121.00000 0.00826
4276 67.13000 123.64557 142.00000 0.00704
4277 67.14500 123.93272 145.00000 0.00690
4278 67.16000 123.75946 127.00000 0.00787
4279 67.17500 123.12525 136.00000 0.00735
4280 67.19000 122.04982 142.00000 0.00704
4281 67.20500 120.57420 111.00000 0.00901
4282 67.22000 118.75893 116.00000 0.00862
4283 67.23500 116.67933 110.00000 0.00909
4284 67.25000 114.41868 113.00000 0.00885
4285 67.26500 112.06123 121.00000 0.00826
4286 67.28000 109.68616 95.00000 0.01053
4287 67.29500 107.36394 114.00000 0.00877
4288 67.31000 105.15559 105.00000 0.00952
4289 67.32500 103.10908 106.00000 0.00943
4290 67.34000 101.26311 85.00000 0.01176
4291 67.35500 99.64750 92.00000 0.01087
4292 67.37000 98.28465 91.00000 0.01099
4293 67.38500 97.19071 110.00000 0.00909
4294 67.40000 96.37665 88.00000 0.01136
4295 67.41500 95.84894 96.00000 0.01042
4296 67.43000 95.61008 99.00000 0.01010
4297 67.44500 95.65879 86.00000 0.01163
4298 67.46000 95.99015 99.00000 0.01010
4299 67.47500 96.59551 91.00000 0.01099
4300 67.49000 97.46249 96.00000 0.01042
4301 67.50500 98.57505 82.00000 0.01220
4302 67.52000 99.91380 89.00000 0.01124
4303 67.53500 101.45660 103.00000 0.00971
4304 67.55000 103.17944 121.00000 0.00826
4305 67.56500 105.05720 103.00000 0.00971
4306 67.58000 107.06409 91.00000 0.01099
4307 67.59500 109.17306 93.00000 0.01075
4308 67.61000 111.35425 104.00000 0.00962
4309 67.62500 113.57248 120.00000 0.00833
4310 67.64000 115.78439 127.00000 0.00787
4311 67.65500 117.93625 124.00000 0.00806
4312 67.67000 119.96346 128.00000 0.00781
4313 67.68500 121.79256 129.00000 0.00775
4314 67.70000 123.34640 120.00000 0.00833
4315 67.71500 124.55187 138.00000 0.00725
4316 67.73000 125.34912 144.00000 0.00694
4317 67.74500 125.70016 127.00000 0.00787
4318 67.76000 125.59413 126.00000 0.00794
4319 67.77500 125.04827 116.00000 0.00862
4320 67.79000 124.10483 123.00000 0.00813
4321 67.80500 122.82402 126.00000 0.00794
4322 67.82000 121.27580 127.00000 0.00787
4323 67.83500 119.53086 130.00000 0.00769
4324 67.85000 117.65688 119.00000 0.00840
4325 67.86500 115.70975 104.00000 0.00962
4326 67.88000 113.72997 109.00000 0.00917
4327 67.89500 111.74636 126.00000 0.00794
4328 67.91000 109.77305 111.00000 0.00901
4329 67.92500 107.81492 104.00000 0.00962
4330 67.94000 105.87103 100.00000 0.01000
4331 67.95500 103.93907 116.00000 0.00862
4332 67.97000 102.01950 112.00000 0.00893
4333 67.98500 100.11820 109.00000 0.00917
4334 68.00000 98.24731 105.00000 0.00952
4335 68.01500 96.42420 91.00000 0.01099
4336 68.03000 94.66925 91.00000 0.01099
4337 68.04500 93.00326 97.00000 0.01031
4338 68.06000 91.44513 95.00000 0.01053
4339 68.07500 90.01052 102.00000 0.00980
4340 68.09000 88.71113 89.00000 0.01124
4341 68.10500 87.55476 83.00000 0.01205
4342 68.12000 86.54562 83.00000 0.01205
4343 68.13500 85.68489 80.00000 0.01250
4344 68.15000 84.97124 87.00000 0.01149
4345 68.16500 84.40121 89.00000 0.01124
4346 68.18000 83.96952 98.00000 0.01020
4347 68.19500 83.66925 99.00000 0.01010
4348 68.21000 83.49190 93.00000 0.01075
4349 68.22500 83.42737 100.00000 0.01000
4350 68.24000 83.46393 80.00000 0.01250
4351 68.25500 83.58808 86.00000 0.01163
4352 68.27000 83.78441 93.00000 0.01075
4353 68.28500 84.03553 86.00000 0.01163
4354 68.30000 84.32221 91.00000 0.01099
4355 68.31500 84.62353 92.00000 0.01087
4356 68.33000 84.91754 94.00000 0.01064
4357 68.34500 85.18274 90.00000 0.01111
4358 68.36000 85.39973 86.00000 0.01163
4359 68.37500 85.55313 89.00000 0.01124
4360 68.39000 85.63308 96.00000 0.01042
4361 68.40500 85.63589 93.00000 0.01075
4362 68.42000 85.56354 81.00000 0.01235
4363 68.43500 85.42220 86.00000 0.01163
4364 68.45000 85.22028 96.00000 0.01042
4365 68.46500 84.96657 76.00000 0.01316
4366 68.48000 84.66910 81.00000 0.01235
4367 68.49500 84.33470 93.00000 0.01075
4368 68.51000 83.96938 104.00000 0.00962
4369 68.52500 83.57904 97.00000 0.01031
4370 68.54000 83.17027 79.00000 0.01266
4371 68.55500 82.75089 73.00000 0.01370
4372 68.57000 82.33004 70.00000 0.01429
4373 68.58500 81.91798 78.00000 0.01282
4374 68.60000 81.52540 81.00000 0.01235
4375 68.61500 81.16299 76.00000 0.01316
4376 68.63000 80.84049 93.00000 0.01075
4377 68.64500 80.56951 73.00000 0.01370
4378 68.66000 80.35960 87.00000 0.01149
4379 68.67500 80.21670 95.00000 0.01053
4380 68.69000 80.14698 90.00000 0.01111
4381 68.70500 80.15466 79.00000 0.01266
4382 68.72000 80.24741 75.00000 0.01333
4383 68.73500 80.42541 69.00000 0.01449
4384 68.75000 80.68934 76.00000 0.01316
4385 68.76500 81.03788 75.00000 0.01333
4386 68.78000 81.46750 82.00000 0.01220
4387 68.79500 81.97218 94.00000 0.01064
4388 68.81000 82.54300 78.00000 0.01282
4389 68.82500 83.16779 72.00000 0.01389
4390 68.84000 83.83058 82.00000 0.01220
4391 68.85500 84.51239 87.00000 0.01149
4392 68.87000 85.19098 89.00000 0.01124
4393 68.88500 85.83866 91.00000 0.01099
4394 68.90000 86.42636 106.00000 0.00943
4395 68.91500 86.92467 94.00000 0.01064
4396 68.93000 87.30662 81.00000 0.01235
4397 68.94500 87.55075 88.00000 0.01136
4398 68.96000 87.64543 90.00000 0.01111
4399 68.97500 87.59314 91.00000 0.01099
4400 68.99000 87.40169 87.00000 0.01149
4401 69.00500 87.09097 87.00000 0.01149
4402 69.02000 86.68764 83.00000 0.01205
4403 69.03500 86.22180 82.00000 0.01220
4404 69.05000 85.72402 91.00000 0.01099
4405 69.06500 85.22313 85.00000 0.01176
4406 69.08000 84.74500 98.00000 0.01020
4407 69.09500 84.31212 97.00000 0.01031
4408 69.11000 83.94384 82.00000 0.01220
4409 69.12500 83.65677 78.00000 0.01282
4410 69.14000 83.46534 90.00000 0.01111
4411 69.15500 83.38218 93.00000 0.01075
4412 69.17000 83.41835 80.00000 0.01250
4413 69.18500 83.58332 84.00000 0.01190
4414 69.20000 83.88486 89.00000 0.01124
4415 69.21500 84.32872 86.00000 0.01163
4416 69.23000 84.91814 83.00000 0.01205
4417 69.24500 85.65364 92.00000 0.01087
4418 69.26000 86.53147 79.00000 0.01266
4419 69.27500 87.55371 80.00000 0.01250
4420 69.29000 88.70755 101.00000 0.00990
4421 69.30500 89.98030 100.00000 0.01000
4422 69.32000 91.35463 89.00000 0.01124
4423 69.33500 92.80805 79.00000 0.01266
4424 69.35000 94.31257 87.00000 0.01149
4425 69.36500 95.83461 99.00000 0.01010
4426 69.38000 97.33567 98.00000 0.01020
4427 69.39500 98.77365 109.00000 0.00917
4428 69.41000 100.10512 124.00000 0.00806
4429 69.42500 101.28820 127.00000 0.00787
4430 69.44000 102.28555 111.00000 0.00901
4431 69.45500 103.06714 100.00000 0.01000
4432 69.47000 103.61213 106.00000 0.00943
4433 69.48500 103.91002 105.00000 0.00952
4434 69.50000 103.96111 104.00000 0.00962
4435 69.51500 103.77663 117.00000 0.00855
4436 69.53000 103.37845 104.00000 0.00962
4437 69.54500 102.79806 106.00000 0.00943
4438 69.56000 102.07475 98.00000 0.01020
4439 69.57500 101.25286 101.00000 0.00990
4440 69.59000 100.37852 99.00000 0.01010
4441 69.60500 99.49649 88.00000 0.01136
4442 69.62000 98.64752 95.00000 0.01053
4443 69.63500 97.86655 97.00000 0.01031
4444 69.65000 97.18172 85.00000 0.01176
4445 69.66500 96.61401 83.00000 0.01205
4446 69.68000 96.17727 91.00000 0.01099
4447 69.69500 95.87844 98.00000 0.01020
4448 69.71000 95.71785 95.00000 0.01053
4449 69.72500 95.68951 100.00000 0.01000
4450 69.74000 95.78163 92.00000 0.01087
4451 69.75500 95.97745 101.00000 0.00990
4452 69.77000 96.25659 89.00000 0.01124
4453 69.78500 96.59707 94.00000 0.01064
4454 69.80000 96.97781 107.00000 0.00935
4455 69.81500 97.38250 96.00000 0.01042
4456 69.83000 97.80179 110.00000 0.00909
4457 69.84500 98.23251 101.00000 0.00990
4458 69.86000 98.68001 95.00000 0.01053
4459 69.87500 99.15568 92.00000 0.01087
4460 69.89000 99.67413 97.00000 0.01031
4461 69.90500 100.25000 110.00000 0.00909
4462 69.92000 100.89488 91.00000 0.01099
4463 69.93500 101.61496 86.00000 0.01163
4464 69.95000 102.40924 103.00000 0.00971
4465 69.96500 103.26919 101.00000 0.00990
4466 69.98000 104.17634 101.00000 0.00990
4467 69.99500 105.10350 118.00000 0.00847
4468 70.01000 106.01471 99.00000 0.01010
4469 70.02500 106.86629 110.00000 0.00909
4470 70.04000 107.60888 99.00000 0.01010
4471 70.05500 108.19061 104.00000 0.00962
4472 70.07000 108.56293 96.00000 0.01042
4473 70.08500 108.68215 91.00000 0.01099
4474 70.10000 108.51731 105.00000 0.00952
4475 70.11500 108.05356 101.00000 0.00990
4476 70.13000 107.29446 105.00000 0.00952
4477 70.14500 106.26174 103.00000 0.00971
4478 70.16000 104.99251 105.00000 0.00952
4479 70.17500 103.53452 108.00000 0.00926
4480 70.19000 101.94073 112.00000 0.00893
4481 70.20500 100.26422 103.00000 0.00971
4482 70.22000 98.55435 104.00000 0.00962
4483 70.23500 96.85438 101.00000 0.00990
4484 70.25000 95.20044 96.00000 0.01042
4485 70.26500 93.62155 77.00000 0.01299
4486 70.28000 92.14014 78.00000 0.01282
4487 70.29500 90.77304 84.00000 0.01190
4488 70.31000 89.53240 89.00000 0.01124
4489 70.32500 88.42667 108.00000 0.00926
4490 70.34000 87.46142 87.00000 0.01149
4491 70.35500 86.63998 83.00000 0.01205
4492 70.37000 85.96390 70.00000 0.01429
4493 70.38500 85.43317 99.00000 0.01010
4494 70.40000 85.04631 98.00000 0.01020
4495 70.41500 84.80037 90.00000 0.01111
4496 70.43000 84.69090 93.00000 0.01075
4497 70.44500 84.71201 84.00000 0.01190
4498 70.46000 84.85649 71.00000 0.01408
4499 70.47500 85.11601 85.00000 0.01176
4500 70.49000 85.48136 97.00000 0.01031
4501 70.50500 85.94306 96.00000 0.01042
4502 70.52000 86.49013 84.00000 0.01190
4503 70.53500 87.11077 73.00000 0.01370
4504 70.55000 87.79164 80.00000 0.01250
4505 70.56500 88.51726 90.00000 0.01111
4506 70.58000 89.26952 84.00000 0.01190
4507 70.59500 90.02756 87.00000 0.01149
4508 70.61000 90.76823 95.00000 0.01053
4509 70.62500 91.46731 86.00000 0.01163
4510 70.64000 92.10156 88.00000 0.01136
4511 70.65500 92.65125 98.00000 0.01020
4512 70.67000 93.10288 95.00000 0.01053
4513 70.68500 93.45112 101.00000 0.00990
4514 70.70000 93.69957 107.00000 0.00935
4515 70.71500 93.86007 107.00000 0.00935
4516 70.73000 93.95060 99.00000 0.01010
4517 70.74500 93.99238 100.00000 0.01000
4518 70.76000 94.00686 98.00000 0.01020
4519 70.77500 94.01306 84.00000 0.01190
4520 70.79000 94.02572 94.00000 0.01064
4521 70.80500 94.05416 84.00000 0.01190
4522 70.82000 94.10194 85.00000 0.01176
4523 70.83500 94.16722 97.00000 0.01031
4524 70.85000 94.24356 97.00000 0.01031
4525 70.86500 94.32105 108.00000 0.00926
4526 70.88000 94.38755 100.00000 0.01000
4527 70.89500 94.42983 95.00000 0.01053
4528 70.91000 94.43441 95.00000 0.01053
4529 70.92500 94.38828 96.00000 0.01042
4530 70.94000 94.27932 100.00000 0.01000
4531 70.95500 94.09695 87.00000 0.01149
4532 70.97000 93.83280 92.00000 0.01087
4533 70.98500 93.48145 91.00000 0.01099
4534 71.00000 93.04087 100.00000 0.01000
4535 71.01500 92.51287 113.00000 0.00885
4536 71.03000 91.90179 105.00000 0.00952
4537 71.04500 91.22427 91.00000 0.01099
4538 71.06000 90.49003 96.00000 0.01042
4539 71.07500 89.71534 96.00000 0.01042
4540 71.09000 88.91852 99.00000 0.01010
4541 71.10500 88.11888 91.00000 0.01099
4542 71.12000 87.33580 109.00000 0.00917
4543 71.13500 86.58731 103.00000 0.00971
4544 71.15000 85.89270 98.00000 0.01020
4545 71.16500 85.26544 85.00000 0.01176
4546 71.18000 84.71964 80.00000 0.01250
4547 71.19500 84.26662 69.00000 0.01449
4548 71.21000 83.91457 87.00000 0.01149
4549 71.22500 83.67060 95.00000 0.01053
4550 71.24000 83.54030 88.00000 0.01136
4551 71.25500 83.52791 79.00000 0.01266
4552 71.27000 83.63652 101.00000 0.00990
4553 71.28500 83.86822 84.00000 0.01190
4554 71.30000 84.22424 75.00000 0.01333
4555 71.31500 84.70505 87.00000 0.01149
4556 71.33000 85.31047 98.00000 0.01020
4557 71.34500 86.03963 87.00000 0.01149
4558 71.36000 86.89083 85.00000 0.01176
4559 71.37500 87.86275 97.00000 0.01031
4560 71.39000 88.95334 95.00000 0.01053
4561 71.40500 90.15781 93.00000 0.01075
4562 71.42000 91.47075 102.00000 0.00980
4563 71.43500 92.88394 108.00000 0.00926
4564 71.45000 94.39524 92.00000 0.01087
4565 71.46500 95.99341 98.00000 0.01020
4566 71.48000 97.66994 100.00000 0.01000
4567 71.49500 99.41635 101.00000 0.00990
4568 71.51000 101.22401 100.00000 0.01000
4569 71.52500 103.08350 99.00000 0.01010
4570 71.54000 104.98339 88.00000 0.01136
4571 71.55500 106.90877 101.00000 0.00990
4572 71.57000 108.83997 125.00000 0.00800
4573 71.58500 110.75183 126.00000 0.00794
4574 71.60000 112.61379 105.00000 0.00952
4575 71.61500 114.39117 119.00000 0.00840
4576 71.63000 116.04707 110.00000 0.00909
4577 71.64500 117.54482 111.00000 0.00901
4578 71.66000 118.85022 118.00000 0.00847
4579 71.67500 119.93310 125.00000 0.00800
4580 71.69000 120.76950 118.00000 0.00847
4581 71.70500 121.34141 120.00000 0.00833
4582 71.72000 121.63672 117.00000 0.00855
4583 71.73500 121.65117 112.00000 0.00893
4584 71.75000 121.38834 143.00000 0.00699
4585 71.76500 120.85964 122.00000 0.00820
4586 71.78000 120.08339 117.00000 0.00855
4587 71.79500 119.08314 116.00000 0.00862
4588 71.81000 117.88574 130.00000 0.00769
4589 71.82500 116.51974 127.00000 0.00787
4590 71.84000 115.01444 108.00000 0.00926
4591 71.85500 113.39964 100.00000 0.01000
4592 71.87000 111.70561 116.00000 0.00862
4593 71.88500 109.96248 120.00000 0.00833
4594 71.90000 108.19960 110.00000 0.00909
4595 71.91500 106.44488 105.00000 0.00952
4596 71.93000 104.73591 106.00000 0.00943
4597 71.94500 103.08919 104.00000 0.00962
4598 71.96000 101.52328 104.00000 0.00962
4599 71.97500 100.05117 95.00000 0.01053
4600 71.99000 98.68477 98.00000 0.01020
4601 72.00500 97.43101 92.00000 0.01087
4602 72.02000 96.29258 92.00000 0.01087
4603 72.03500 95.27240 82.00000 0.01220
4604 72.05000 94.37318 83.00000 0.01205
4605 72.06500 93.59787 100.00000 0.01000
4606 72.08000 92.94967 103.00000 0.00971
4607 72.09500 92.43148 93.00000 0.01075
4608 72.11000 92.04534 78.00000 0.01282
4609 72.12500 91.79200 84.00000 0.01190
4610 72.14000 91.67241 106.00000 0.00943
4611 72.15500 91.68223 108.00000 0.00926
4612 72.17000 91.81605 101.00000 0.00990
4613 72.18500 92.06633 99.00000 0.01010
4614 72.20000 92.42363 99.00000 0.01010
4615 72.21500 92.87717 93.00000 0.01075
4616 72.23000 93.41592 97.00000 0.01031
4617 72.24500 94.03058 91.00000 0.01099
4618 72.26000 94.71037 94.00000 0.01064
4619 72.27500 95.44691 95.00000 0.01053
4620 72.29000 96.23292 105.00000 0.00952
4621 72.30500 97.06221 94.00000 0.01064
4622 72.32000 97.92913 91.00000 0.01099
4623 72.33500 98.82818 93.00000 0.01075
4624 72.35000 99.75363 95.00000 0.01053
4625 72.36500 100.69916 89.00000 0.01124
4626 72.38000 101.65740 112.00000 0.00893
4627 72.39500 102.61924 134.00000 0.00746
4628 72.41000 103.57305 119.00000 0.00840
4629 72.42500 104.50397 105.00000 0.00952
4630 72.44000 105.39353 106.00000 0.00943
4631 72.45500 106.22003 114.00000 0.00877
4632 72.47000 106.95956 108.00000 0.00926
4633 72.48500 107.58763 108.00000 0.00926
4634 72.50000 108.08120 120.00000 0.00833
4635 72.51500 108.42032 111.00000 0.00901
4636 72.53000 108.58940 103.00000 0.00971
4637 72.54500 108.57783 104.00000 0.00962
4638 72.56000 108.38023 105.00000 0.00952
4639 72.57500 107.99677 118.00000 0.00847
4640 72.59000 107.43362 115.00000 0.00870
4641 72.60500 106.70364 110.00000 0.00909
4642 72.62000 105.82657 110.00000 0.00909
4643 72.63500 104.82886 98.00000 0.01020
4644 72.65000 103.74165 96.00000 0.01042
4645 72.66500 102.60693 102.00000 0.00980
4646 72.68000 101.45937 101.00000 0.00990
4647 72.69500 100.33597 99.00000 0.01010
4648 72.71000 99.27084 120.00000 0.00833
4649 72.72500 98.29396 118.00000 0.00847
4650 72.74000 97.43048 92.00000 0.01087
4651 72.75500 96.70055 89.00000 0.01124
4652 72.77000 96.11945 89.00000 0.01124
4653 72.78500 95.69789 101.00000 0.00990
4654 72.80000 95.44236 103.00000 0.00971
4655 72.81500 95.35530 78.00000 0.01282
4656 72.83000 95.43528 83.00000 0.01205
4657 72.84500 95.67706 89.00000 0.01124
4658 72.86000 96.07156 92.00000 0.01087
4659 72.87500 96.60571 94.00000 0.01064
4660 72.89000 97.26246 87.00000 0.01149
4661 72.90500 98.02088 90.00000 0.01111
4662 72.92000 98.85659 101.00000 0.00990
4663 72.93500 99.74274 99.00000 0.01010
4664 72.95000 100.65133 102.00000 0.00980
4665 72.96500 101.55523 94.00000 0.01064
4666 72.98000 102.43040 96.00000 0.01042
4667 72.99500 103.26059 113.00000 0.00885
4668 73.01000 104.03612 107.00000 0.00935
4669 73.02500 104.75284 115.00000 0.00870
4670 73.04000 105.41487 101.00000 0.00990
4671 73.05500 106.03148 99.00000 0.01010
4672 73.07000 106.61766 110.00000 0.00909
4673 73.08500 107.18451 95.00000 0.01053
4674 73.10000 107.74237 93.00000 0.01075
4675 73.11500 108.29741 99.00000 0.01010
4676 73.13000 108.85041 116.00000 0.00862
4677 73.14500 109.39614 122.00000 0.00820
4678 73.16000 109.92312 116.00000 0.00862
4679 73.17500 110.41393 106.00000 0.00943
4680 73.19000 110.84579 101.00000 0.00990
4681 73.20500 111.19342 109.00000 0.00917
4682 73.22000 111.42929 113.00000 0.00885
4683 73.23500 111.52571 100.00000 0.01000
4684 73.25000 111.45929 104.00000 0.00962
4685 73.26500 111.21282 128.00000 0.00781
4686 73.28000 110.77711 121.00000 0.00826
4687 73.29500 110.15163 124.00000 0.00806
4688 73.31000 109.34698 117.00000 0.00855
4689 73.32500 108.38017 111.00000 0.00901
4690 73.34000 107.27099 110.00000 0.00909
4691 73.35500 106.04408 95.00000 0.01053
4692 73.37000 104.72559 107.00000 0.00935
4693 73.38500 103.34158 103.00000 0.00971
4694 73.40000 101.91680 100.00000 0.01000
4695 73.41500 100.47368 88.00000 0.01136
4696 73.43000 99.03178 98.00000 0.01020
4697 73.44500 97.60752 100.00000 0.01000
4698 73.46000 96.21427 97.00000 0.01031
4699 73.47500 94.86285 90.00000 0.01111
4700 73.49000 93.56205 87.00000 0.01149
4701 73.50500 92.31931 100.00000 0.01000
4702 73.52000 91.14104 94.00000 0.01064
4703 73.53500 90.03289 80.00000 0.01250
4704 73.55000 88.99953 87.00000 0.01149
4705 73.56500 88.04439 97.00000 0.01031
4706 73.58000 87.16925 102.00000 0.00980
4707 73.59500 86.37386 78.00000 0.01282
4708 73.61000 85.65575 88.00000 0.01136
4709 73.62500 85.01013 88.00000 0.01136
4710 73.64000 84.43003 108.00000 0.00926
4711 73.65500 83.90654 107.00000 0.00935
4712 73.67000 83.42933 91.00000 0.01099
4713 73.68500 82.98721 74.00000 0.01351
4714 73.70000 82.56892 82.00000 0.01220
4715 73.71500 82.16386 85.00000 0.01176
4716 73.73000 81.76285 79.00000 0.01266
4717 73.74500 81.35873 91.00000 0.01099
4718 73.76000 80.94672 87.00000 0.01149
4719 73.77500 80.52450 83.00000 0.01205
4720 73.79000 80.09204 80.00000 0.01250
4721 73.80500 79.65119 88.00000 0.01136
4722 73.82000 79.20509 101.00000 0.00990
4723 73.83500 78.75759 84.00000 0.01190
4724 73.85000 78.31269 83.00000 0.01205
4725 73.86500 77.87416 81.00000 0.01235
4726 73.88000 77.44528 64.00000 0.01563
4727 73.89500 77.02881 72.00000 0.01389
4728 73.91000 76.62705 75.00000 0.01333
4729 73.92500 76.24198 81.00000 0.01235
4730 73.94000 75.87538 74.00000 0.01351
4731 73.95500 75.52897 82.00000 0.01220
4732 73.97000 75.20444 62.00000 0.01613
4733 73.98500 74.90344 69.00000 0.01449
4734 74.00000 74.62754 76.00000 0.01316
4735 74.01500 74.37821 72.00000 0.01389
4736 74.03000 74.15672 72.00000 0.01389
4737 74.04500 73.96422 86.00000 0.01163
4738 74.06000 73.80164 85.00000 0.01176
4739 74.07500 73.66983 78.00000 0.01282
4740 74.09000 73.56947 71.00000 0.01408
4741 74.10500 73.50118 72.00000 0.01389
4742 74.12000 73.46548 76.00000 0.01316
4743 74.13500 73.46348 78.00000 0.01282
4744 74.15000 73.49622 88.00000 0.01136
4745 74.16500 73.56424 72.00000 0.01389
4746 74.18000 73.66848 68.00000 0.01471
4747 74.19500 73.81000 64.00000 0.01563
4748 74.21000 73.98992 72.00000 0.01389
4749 74.22500 74.20938 79.00000 0.01266
4750 74.24000 74.46950 78.00000 0.01282
4751 74.25500 74.77149 81.00000 0.01235
4752 74.27000 75.11641 86.00000 0.01163
4753 74.28500 75.50505 78.00000 0.01282
4754 74.30000 75.93804 77.00000 0.01299
4755 74.31500 76.41570 81.00000 0.01235
4756 74.33000 76.93797 84.00000 0.01190
4757 74.34500 77.50435 78.00000 0.01282
4758 74.36000 78.11379 80.00000 0.01250
4759 74.37500 78.76462 86.00000 0.01163
4760 74.39000 79.45444 84.00000 0.01190
4761 74.40500 80.18007 88.00000 0.01136
4762 74.42000 80.93767 80.00000 0.01250
4763 74.43500 81.72191 91.00000 0.01099
4764 74.45000 82.52665 85.00000 0.01176
4765 74.46500 83.34481 79.00000 0.01266
4766 74.48000 84.16866 74.00000 0.01351
4767 74.49500 84.99022 89.00000 0.01124
4768 74.51000 85.80167 88.00000 0.01136
4769 74.52500 86.59580 76.00000 0.01316
4770 74.54000 87.36627 83.00000 0.01205
4771 74.55500 88.10766 87.00000 0.01149
4772 74.57000 88.81536 94.00000 0.01064
4773 74.58500 89.48545 81.00000 0.01235
4774 74.60000 90.11458 80.00000 0.01250
4775 74.61500 90.70004 94.00000 0.01064
4776 74.63000 91.23994 89.00000 0.01124
4777 74.64500 91.73344 90.00000 0.01111
4778 74.66000 92.18086 99.00000 0.01010
4779 74.67500 92.58365 94.00000 0.01064
4780 74.69000 92.94396 85.00000 0.01176
4781 74.70500 93.26401 85.00000 0.01176
4782 74.72000 93.54528 75.00000 0.01333
4783 74.73500 93.78766 86.00000 0.01163
4784 74.75000 93.98881 96.00000 0.01042
4785 74.76500 94.14380 101.00000 0.00990
4786 74.78000 94.24529 104.00000 0.00962
4787 74.79500 94.28431 97.00000 0.01031
4788 74.81000 94.25153 96.00000 0.01042
4789 74.82500 94.13898 95.00000 0.01053
4790 74.84000 93.94182 92.00000 0.01087
4791 74.85500 93.66000 85.00000 0.01176
4792 74.87000 93.29918 101.00000 0.00990
4793 74.88500 92.87093 91.00000 0.01099
4794 74.90000 92.39211 90.00000 0.01111
4795 74.91500 91.88358 98.00000 0.01020
4796 74.93000 91.36858 90.00000 0.01111
4797 74.94500 90.87112 77.00000 0.01299
4798 74.96000 90.41470 67.00000 0.01493
4799 74.97500 90.02130 85.00000 0.01176
4800 74.99000 89.71086 84.00000 0.01190
4801 75.00500 89.50100 84.00000 0.01190
4802 75.02000 89.40696 88.00000 0.01136
4803 75.03500 89.44171 82.00000 0.01220
4804 75.05000 89.61601 89.00000 0.01124
4805 75.06500 89.93849 77.00000 0.01299
4806 75.08000 90.41559 77.00000 0.01299
4807 75.09500 91.05134 93.00000 0.01075
4808 75.11000 91.84701 92.00000 0.01087
4809 75.12500 92.80393 88.00000 0.01136
4810 75.14000 93.91992 100.00000 0.01000
4811 75.15500 95.18823 103.00000 0.00971
4812 75.17000 96.60046 89.00000 0.01124
4813 75.18500 98.14533 87.00000 0.01149
4814 75.20000 99.80936 91.00000 0.01099
4815 75.21500 101.57552 96.00000 0.01042
4816 75.23000 103.42444 107.00000 0.00935
4817 75.24500 105.33411 108.00000 0.00926
4818 75.26000 107.27979 109.00000 0.00917
4819 75.27500 109.23393 114.00000 0.00877
4820 75.29000 111.16589 112.00000 0.00893
4821 75.30500 113.04188 105.00000 0.00952
4822 75.32000 114.82501 104.00000 0.00962
4823 75.33500 116.47668 117.00000 0.00855
4824 75.35000 117.95649 131.00000 0.00763
4825 75.36500 119.22525 126.00000 0.00794
4826 75.38000 120.24704 120.00000 0.00833
4827 75.39500 120.99174 128.00000 0.00781
4828 75.41000 121.43721 136.00000 0.00735
4829 75.42500 121.57085 133.00000 0.00752
4830 75.44000 121.39279 127.00000 0.00787
4831 75.45500 120.90815 119.00000 0.00840
4832 75.47000 120.13865 115.00000 0.00870
4833 75.48500 119.10507 129.00000 0.00775
4834 75.50000 117.83610 124.00000 0.00806
4835 75.51500 116.36395 131.00000 0.00763
4836 75.53000 114.72306 130.00000 0.00769
4837 75.54500 112.94919 121.00000 0.00826
4838 75.56000 111.07856 106.00000 0.00943
4839 75.57500 109.14704 98.00000 0.01020
4840 75.59000 107.18944 103.00000 0.00971
4841 75.60500 105.23876 104.00000 0.00962
4842 75.62000 103.32561 98.00000 0.01020
4843 75.63500 101.47777 102.00000 0.00980
4844 75.65000 99.71976 103.00000 0.00971
4845 75.66500 98.07271 102.00000 0.00980
4846 75.68000 96.55421 103.00000 0.00971
4847 75.69500 95.17840 99.00000 0.01010
4848 75.71000 93.95609 98.00000 0.01020
4849 75.72500 92.89501 102.00000 0.00980
4850 75.74000 92.00005 90.00000 0.01111
4851 75.75500 91.27356 82.00000 0.01220
4852 75.77000 90.71563 81.00000 0.01235
4853 75.78500 90.32434 83.00000 0.01205
4854 75.80000 90.09594 100.00000 0.01000
4855 75.81500 90.02503 100.00000 0.01000
4856 75.83000 90.10462 93.00000 0.01075
4857 75.84500 90.32619 83.00000 0.01205
4858 75.86000 90.67962 86.00000 0.01163
4859 75.87500 91.15313 97.00000 0.01031
4860 75.89000 91.73315 122.00000 0.00820
4861 75.90500 92.40427 101.00000 0.00990
4862 75.92000 93.14913 99.00000 0.01010
4863 75.93500 93.94849 91.00000 0.01099
4864 75.95000 94.78147 113.00000 0.00885
4865 75.96500 95.63206 110.00000 0.00909
4866 75.98000 96.47908 95.00000 0.01053
4867 75.99500 97.30637 104.00000 0.00962
4868 76.01000 98.10200 103.00000 0.00971
4869 76.02500 98.85949 102.00000 0.00980
4870 76.04000 99.57839 92.00000 0.01087
4871 76.05500 100.26403 93.00000 0.01075
4872 76.07000 100.92645 92.00000 0.01087
4873 76.08500 101.57879 97.00000 0.01031
4874 76.10000 102.23537 99.00000 0.01010
4875 76.11500 102.90991 101.00000 0.00990
4876 76.13000 103.61410 104.00000 0.00962
4877 76.14500 104.35661 92.00000 0.01087
4878 76.16000 105.14262 96.00000 0.01042
4879 76.17500 105.97371 92.00000 0.01087
4880 76.19000 106.84808 109.00000 0.00917
4881 76.20500 107.76097 114.00000 0.00877
4882 76.22000 108.70529 94.00000 0.01064
4883 76.23500 109.67233 93.00000 0.01075
4884 76.25000 110.65247 108.00000 0.00926
4885 76.26500 111.63584 111.00000 0.00901
4886 76.28000 112.61268 103.00000 0.00971
4887 76.29500 113.57342 114.00000 0.00877
4888 76.31000 114.50842 103.00000 0.00971
4889 76.32500 115.40751 107.00000 0.00935
4890 76.34000 116.25936 123.00000 0.00813
4891 76.35500 117.05095 122.00000 0.00820
4892 76.37000 117.76675 122.00000 0.00820
4893 76.38500 118.39478 110.00000 0.00909
4894 76.40000 118.91537 109.00000 0.00917
4895 76.41500 119.31021 118.00000 0.00847
4896 76.43000 119.56084 113.00000 0.00885
4897 76.44500 119.64967 107.00000 0.00935
4898 76.46000 119.56154 103.00000 0.00971
4899 76.47500 119.28588 123.00000 0.00813
4900 76.49000 118.82237 110.00000 0.00909
4901 76.50500 118.17333 123.00000 0.00813
4902 76.52000 117.35144 124.00000 0.00806
4903 76.53500 116.37685 98.00000 0.01020
4904 76.55000 115.27529 110.00000 0.00909
4905 76.56500 114.07537 100.00000 0.01000
4906 76.58000 112.80579 109.00000 0.00917
4907 76.59500 111.49273 115.00000 0.00870
4908 76.61000 110.15807 105.00000 0.00952
4909 76.62500 108.81828 103.00000 0.00971
4910 76.64000 107.48429 102.00000 0.00980
4911 76.65500 106.16212 102.00000 0.00980
4912 76.67000 104.85405 108.00000 0.00926
4913 76.68500 103.56025 119.00000 0.00840
4914 76.70000 102.28050 117.00000 0.00855
4915 76.71500 101.01565 98.00000 0.01020
4916 76.73000 99.76875 106.00000 0.00943
4917 76.74500 98.54538 102.00000 0.00980
4918 76.76000 97.35340 96.00000 0.01042
4919 76.77500 96.20220 83.00000 0.01205
4920 76.79000 95.10154 100.00000 0.01000
4921 76.80500 94.06050 103.00000 0.00971
4922 76.82000 93.08646 98.00000 0.01020
4923 76.83500 92.18443 96.00000 0.01042
4924 76.85000 91.35661 89.00000 0.01124
4925 76.86500 90.60215 99.00000 0.01010
4926 76.88000 89.91707 96.00000 0.01042
4927 76.89500 89.29427 96.00000 0.01042
4928 76.91000 88.72618 96.00000 0.01042
4929 76.92500 88.20050 87.00000 0.01149
4930 76.94000 87.70436 92.00000 0.01087
4931 76.95500 87.22419 88.00000 0.01136
4932 76.97000 86.74672 100.00000 0.01000
4933 76.98500 86.26006 105.00000 0.00952
4934 77.00000 85.75478 89.00000 0.01124
4935 77.01500 85.22466 97.00000 0.01031
4936 77.03000 84.66692 85.00000 0.01176
4937 77.04500 84.08481 84.00000 0.01190
4938 77.06000 83.48212 84.00000 0.01190
4939 77.07500 82.86610 93.00000 0.01075
4940 77.09000 82.24555 94.00000 0.01064
4941 77.10500 81.62984 77.00000 0.01299
4942 77.12000 81.02819 87.00000 0.01149
4943 77.13500 80.44916 74.00000 0.01351
4944 77.15000 79.90032 88.00000 0.01136
4945 77.16500 79.38813 87.00000 0.01149
4946 77.18000 78.91795 84.00000 0.01190
4947 77.19500 78.49413 89.00000 0.01124
4948 77.21000 78.12007 80.00000 0.01250
4949 77.22500 77.79834 87.00000 0.01149
4950 77.24000 77.53082 90.00000 0.01111
4951 77.25500 77.31863 83.00000 0.01205
4952 77.27000 77.16194 73.00000 0.01370
4953 77.28500 77.05961 75.00000 0.01333
4954 77.30000 77.01338 71.00000 0.01408
4955 77.31500 77.02320 76.00000 0.01316
4956 77.33000 77.08589 78.00000 0.01282
4957 77.34500 77.19937 80.00000 0.01250
4958 77.36000 77.36097 79.00000 0.01266
4959 77.37500 77.56754 87.00000 0.01149
4960 77.39000 77.81542 80.00000 0.01250
4961 77.40500 78.10052 89.00000 0.01124
4962 77.42000 78.41845 96.00000 0.01042
4963 77.43500 78.76475 84.00000 0.01190
4964 77.45000 79.13512 78.00000 0.01282
4965 77.46500 79.52574 75.00000 0.01333
4966 77.48000 79.93357 82.00000 0.01220
4967 77.49500 80.35657 89.00000 0.01124
4968 77.51000 80.79379 94.00000 0.01064
4969 77.52500 81.24527 87.00000 0.01149
4970 77.54000 81.71178 86.00000 0.01163
4971 77.55500 82.19439 79.00000 0.01266
4972 77.57000 82.69406 67.00000 0.01493
4973 77.58500 83.21119 67.00000 0.01493
4974 77.60000 83.74531 71.00000 0.01408
4975 77.61500 84.29488 75.00000 0.01333
4976 77.63000 84.85721 81.00000 0.01235
4977 77.64500 85.42855 83.00000 0.01205
4978 77.66000 86.00408 77.00000 0.01299
4979 77.67500 86.57803 90.00000 0.01111
4980 77.69000 87.14366 104.00000 0.00962
4981 77.70500 87.69321 110.00000 0.00909
4982 77.72000 88.21776 83.00000 0.01205
4983 77.73500 88.70710 80.00000 0.01250
4984 77.75000 89.15170 91.00000 0.01099
4985 77.76500 89.54118 90.00000 0.01111
4986 77.78000 89.86449 77.00000 0.01299
4987 77.79500 90.11235 83.00000 0.01205
4988 77.81000 90.27757 98.00000 0.01020
4989 77.82500 90.35712 81.00000 0.01235
4990 77.84000 90.35005 78.00000 0.01282
4991 77.85500 90.25970 85.00000 0.01176
4992 77.87000 90.09292 101.00000 0.00990
4993 77.88500 89.85924 101.00000 0.00990
4994 77.90000 89.56994 96.00000 0.01042
4995 77.91500 89.23696 83.00000 0.01205
4996 77.93000 88.87190 82.00000 0.01220
4997 77.94500 88.48537 82.00000 0.01220
4998 77.96000 88.08655 81.00000 0.01235
4999 77.97500 87.68318 74.00000 0.01351
5000 77.99000 87.28188 79.00000 0.01266
5001 78.00500 86.88860 68.00000 0.01471
5002 78.02000 86.50913 86.00000 0.01163
5003 78.03500 86.14954 76.00000 0.01316
5004 78.05000 85.81684 81.00000 0.01235
5005 78.06500 85.52101 79.00000 0.01266
5006 78.08000 85.26987 83.00000 0.01205
5007 78.09500 85.07282 92.00000 0.01087
5008 78.11000 84.93925 95.00000 0.01053
5009 78.12500 84.87798 89.00000 0.01124
5010 78.14000 84.89688 96.00000 0.01042
5011 78.15500 85.00252 88.00000 0.01136
5012 78.17000 85.19999 82.00000 0.01220
5013 78.18500 85.49279 78.00000 0.01282
5014 78.20000 85.88281 72.00000 0.01389
5015 78.21500 86.37041 84.00000 0.01190
5016 78.23000 86.95440 88.00000 0.01136
5017 78.24500 87.63168 77.00000 0.01299
5018 78.26000 88.39640 82.00000 0.01220
5019 78.27500 89.24568 80.00000 0.01250
5020 78.29000 90.17336 97.00000 0.01031
5021 78.30500 91.16783 97.00000 0.01031
5022 78.32000 92.21694 89.00000 0.01124
5023 78.33500 93.30555 95.00000 0.01053
5024 78.35000 94.42168 96.00000 0.01042
5025 78.36500 95.54407 89.00000 0.01124
5026 78.38000 96.65193 87.00000 0.01149
5027 78.39500 97.72275 94.00000 0.01064
5028 78.41000 98.73287 101.00000 0.00990
5029 78.42500 99.65819 108.00000 0.00926
5030 78.44000 100.47506 93.00000 0.01075
5031 78.45500 101.16132 92.00000 0.01087
5032 78.47000 101.69927 104.00000 0.00962
5033 78.48500 102.07323 110.00000 0.00909
5034 78.50000 102.27322 103.00000 0.00971
5035 78.51500 102.29470 107.00000 0.00935
5036 78.53000 102.13862 104.00000 0.00962
5037 78.54500 101.81104 98.00000 0.01020
5038 78.56000 101.32333 103.00000 0.00971
5039 78.57500 100.69187 93.00000 0.01075
5040 78.59000 99.93498 105.00000 0.00952
5041 78.60500 99.07480 103.00000 0.00971
5042 78.62000 98.13586 99.00000 0.01010
5043 78.63500 97.14431 91.00000 0.01099
5044 78.65000 96.12708 103.00000 0.00971
5045 78.66500 95.11096 106.00000 0.00943
5046 78.68000 94.12173 99.00000 0.01010
5047 78.69500 93.18347 91.00000 0.01099
5048 78.71000 92.31808 98.00000 0.01020
5049 78.72500 91.54490 98.00000 0.01020
5050 78.74000 90.88065 92.00000 0.01087
5051 78.75500 90.33941 98.00000 0.01020
5052 78.77000 89.93265 85.00000 0.01176
5053 78.78500 89.66937 106.00000 0.00943
5054 78.80000 89.55622 95.00000 0.01053
5055 78.81500 89.59752 84.00000 0.01190
5056 78.83000 89.79541 77.00000 0.01299
5057 78.84500 90.14977 92.00000 0.01087
5058 78.86000 90.65832 93.00000 0.01075
5059 78.87500 91.31647 90.00000 0.01111
5060 78.89000 92.11730 91.00000 0.01099
5061 78.90500 93.05136 97.00000 0.01031
5062 78.92000 94.10653 82.00000 0.01220
5063 78.93500 95.26779 93.00000 0.01075
5064 78.95000 96.51696 85.00000 0.01176
5065 78.96500 97.83249 104.00000 0.00962
5066 78.98000 99.18925 106.00000 0.00943
5067 78.99500 100.55897 83.00000 0.01205
5068 79.01000 101.90976 103.00000 0.00971
5069 79.02500 103.20735 113.00000 0.00885
5070 79.04000 104.41600 94.00000 0.01064
5071 79.05500 105.50015 107.00000 0.00935
5072 79.07000 106.42632 106.00000 0.00943
5073 79.08500 107.16535 107.00000 0.00935
5074 79.10000 107.69446 118.00000 0.00847
5075 79.11500 107.99899 100.00000 0.01000
5076 79.13000 108.07341 97.00000 0.01031
5077 79.14500 107.92147 92.00000 0.01087
5078 79.16000 107.55535 99.00000 0.01010
5079 79.17500 106.99437 100.00000 0.01000
5080 79.19000 106.26261 112.00000 0.00893
5081 79.20500 105.38673 110.00000 0.00909
5082 79.22000 104.39378 108.00000 0.00926
5083 79.23500 103.30947 100.00000 0.01000
5084 79.25000 102.15695 89.00000 0.01124
5085 79.26500 100.95628 108.00000 0.00926
5086 79.28000 99.72439 106.00000 0.00943
5087 79.29500 98.47549 95.00000 0.01053
5088 79.31000 97.22172 94.00000 0.01064
5089 79.32500 95.97393 107.00000 0.00935
5090 79.34000 94.74235 99.00000 0.01010
5091 79.35500 93.53708 94.00000 0.01064
5092 79.37000 92.36840 85.00000 0.01176
5093 79.38500 91.24674 106.00000 0.00943
5094 79.40000 90.18247 99.00000 0.01010
5095 79.41500 89.18561 95.00000 0.01053
5096 79.43000 88.26540 84.00000 0.01190
5097 79.44500 87.42995 81.00000 0.01235
5098 79.46000 86.68599 90.00000 0.01111
5099 79.47500 86.03850 90.00000 0.01111
5100 79.49000 85.49027 74.00000 0.01351
5101 79.50500 85.04446 73.00000 0.01370
5102 79.52000 84.70203 78.00000 0.01282
5103 79.53500 84.46102 84.00000 0.01190
5104 79.55000 84.31892 89.00000 0.01124
5105 79.56500 84.27189 88.00000 0.01136
5106 79.58000 84.31471 81.00000 0.01235
5107 79.59500 84.44056 77.00000 0.01299
5108 79.61000 84.64306 95.00000 0.01053
5109 79.62500 84.91281 85.00000 0.01176
5110 79.64000 85.24010 90.00000 0.01111
5111 79.65500 85.61448 98.00000 0.01020
5112 79.67000 86.02516 94.00000 0.01064
5113 79.68500 86.46144 92.00000 0.01087
5114 79.70000 86.91330 95.00000 0.01053
5115 79.71500 87.37190 92.00000 0.01087
5116 79.73000 87.83001 98.00000 0.01020
5117 79.74500 88.28223 99.00000 0.01010
5118 79.76000 88.72502 81.00000 0.01235
5119 79.77500 89.15647 77.00000 0.01299
5120 79.79000 89.57591 95.00000 0.01053
5121 79.80500 89.98323 95.00000 0.01053
5122 79.82000 90.37863 94.00000 0.01064
5123 79.83500 90.76609 92.00000 0.01087
5124 79.85000 91.14491 93.00000 0.01075
5125 79.86500 91.51588 96.00000 0.01042
5126 79.88000 91.87936 82.00000 0.01220
5127 79.89500 92.23507 101.00000 0.00990
5128 79.91000 92.58185 98.00000 0.01020
5129 79.92500 92.91743 87.00000 0.01149
5130 79.94000 93.23840 93.00000 0.01075
5131 79.95500 93.54026 110.00000 0.00909
5132 79.97000 93.81773 89.00000 0.01124
5133 79.98500 94.06523 98.00000 0.01020
5134 80.00000 94.27757 89.00000 0.01124
5135 80.01500 94.45080 87.00000 0.01149
5136 80.03000 94.58299 95.00000 0.01053
5137 80.04500 94.67479 100.00000 0.01000
5138 80.06000 94.72973 89.00000 0.01124
5139 80.07500 94.75403 105.00000 0.00952
5140 80.09000 94.75601 124.00000 0.00806
5141 80.10500 94.74522 109.00000 0.00917
5142 80.12000 94.73138 105.00000 0.00952
5143 80.13500 94.72325 101.00000 0.00990
5144 80.15000 94.72776 101.00000 0.00990
5145 80.16500 94.74921 79.00000 0.01266
5146 80.18000 94.78875 87.00000 0.01149
5147 80.19500 94.84406 106.00000 0.00943
5148 80.21000 94.90929 112.00000 0.00893
5149 80.22500 94.97515 103.00000 0.00971
5150 80.24000 95.02934 110.00000 0.00909
5151 80.25500 95.05716 94.00000 0.01064
5152 80.27000 95.04254 95.00000 0.01053
5153 80.28500 94.96934 99.00000 0.01010
5154 80.30000 94.82285 102.00000 0.00980
5155 80.31500 94.59134 106.00000 0.00943
5156 80.33000 94.26748 100.00000 0.01000
5157 80.34500 93.84927 91.00000 0.01099
5158 80.36000 93.34036 90.00000 0.01111
5159 80.37500 92.74977 95.00000 0.01053
5160 80.39000 92.09087 107.00000 0.00935
5161 80.40500 91.38006 96.00000 0.01042
5162 80.42000 90.63599 94.00000 0.01064
5163 80.43500 89.87695 91.00000 0.01099
5164 80.45000 89.12072 111.00000 0.00901
5165 80.46500 88.38353 108.00000 0.00926
5166 80.48000 87.67959 90.00000 0.01111
5167 80.49500 87.02085 93.00000 0.01075
5168 80.51000 86.41698 93.00000 0.01075
5169 80.52500 85.87539 102.00000 0.00980
5170 80.54000 85.40149 96.00000 0.01042
5171 80.55500 84.99856 103.00000 0.00971
5172 80.57000 84.66802 98.00000 0.01020
5173 80.58500 84.40953 89.00000 0.01124
5174 80.60000 84.22103 93.00000 0.01075
5175 80.61500 84.09882 90.00000 0.01111
5176 80.63000 84.03763 101.00000 0.00990
5177 80.64500 84.03077 98.00000 0.01020
5178 80.66000 84.07014 79.00000 0.01266
5179 80.67500 84.14639 72.00000 0.01389
5180 80.69000 84.25119 87.00000 0.01149
5181 80.70500 84.37337 70.00000 0.01429
5182 80.72000 84.50261 76.00000 0.01316
5183 80.73500 84.62902 89.00000 0.01124
5184 80.75000 84.74365 98.00000 0.01020
5185 80.76500 84.83902 83.00000 0.01205
5186 80.78000 84.90951 102.00000 0.00980
5187 80.79500 84.95171 96.00000 0.01042
5188 80.81000 84.96444 86.00000 0.01163
5189 80.82500 84.94866 80.00000 0.01250
5190 80.84000 84.90702 89.00000 0.01124
5191 80.85500 84.84333 85.00000 0.01176
5192 80.87000 84.76196 75.00000 0.01333
5193 80.88500 84.66725 70.00000 0.01429
5194 80.90000 84.56311 78.00000 0.01282
5195 80.91500 84.45275 80.00000 0.01250
5196 80.93000 84.33869 87.00000 0.01149
5197 80.94500 84.22283 77.00000 0.01299
5198 80.96000 84.10674 87.00000 0.01149
5199 80.97500 83.99188 87.00000 0.01149
5200 80.99000 83.87980 82.00000 0.01220
5201 81.00500 83.77217 70.00000 0.01429
5202 81.02000 83.67068 83.00000 0.01205
5203 81.03500 83.57664 83.00000 0.01205
5204 81.05000 83.49107 83.00000 0.01205
5205 81.06500 83.41544 78.00000 0.01282
5206 81.08000 83.34816 75.00000 0.01333
5207 81.09500 83.28713 79.00000 0.01266
5208 81.11000 83.22896 91.00000 0.01099
5209 81.12500 83.16903 88.00000 0.01136
5210 81.14000 83.10183 89.00000 0.01124
5211 81.15500 83.02130 90.00000 0.01111
5212 81.17000 82.92133 92.00000 0.01087
5213 81.18500 82.79625 80.00000 0.01250
5214 81.20000 82.64130 81.00000 0.01235
5215 81.21500 82.45294 83.00000 0.01205
5216 81.23000 82.22906 79.00000 0.01266
5217 81.24500 81.96913 84.00000 0.01190
5218 81.26000 81.67410 81.00000 0.01235
5219 81.27500 81.34643 69.00000 0.01449
5220 81.29000 80.98992 83.00000 0.01205
5221 81.30500 80.60961 67.00000 0.01493
5222 81.32000 80.21157 80.00000 0.01250
5223 81.33500 79.80267 87.00000 0.01149
5224 81.35000 79.39032 90.00000 0.01111
5225 81.36500 78.98212 87.00000 0.01149
5226 81.38000 78.58562 79.00000 0.01266
5227 81.39500 78.20801 84.00000 0.01190
5228 81.41000 77.85596 88.00000 0.01136
5229 81.42500 77.53545 94.00000 0.01064
5230 81.44000 77.25172 84.00000 0.01190
5231 81.45500 77.00922 79.00000 0.01266
5232 81.47000 76.81163 70.00000 0.01429
5233 81.48500 76.66191 78.00000 0.01282
5234 81.50000 76.56227 76.00000 0.01316
5235 81.51500 76.51428 76.00000 0.01316
5236 81.53000 76.51882 80.00000 0.01250
5237 81.54500 76.57595 67.00000 0.01493
5238 81.56000 76.68477 61.00000 0.01639
5239 81.57500 76.84630 75.00000 0.01333
5240 81.59000 77.05785 80.00000 0.01250
5241 81.60500 77.31720 77.00000 0.01299
5242 81.62000 77.62145 82.00000 0.01220
5243 81.63500 77.96694 85.00000 0.01176
5244 81.65000 78.34909 84.00000 0.01190
5245 81.66500 78.76285 83.00000 0.01205
5246 81.68000 79.20256 81.00000 0.01235
5247 81.69500 79.66113 77.00000 0.01299
5248 81.71000 80.13122 78.00000 0.01282
5249 81.72500 80.60496 77.00000 0.01299
5250 81.74000 81.07446 79.00000 0.01266
5251 81.75500 81.53216 82.00000 0.01220
5252 81.77000 81.97134 80.00000 0.01250
5253 81.78500 82.38659 79.00000 0.01266
5254 81.80000 82.77424 87.00000 0.01149
5255 81.81500 83.13255 86.00000 0.01163
5256 81.83000 83.46173 91.00000 0.01099
5257 81.84500 83.76380 94.00000 0.01064
5258 81.86000 84.04219 97.00000 0.01031
5259 81.87500 84.30129 93.00000 0.01075
5260 81.89000 84.54603 84.00000 0.01190
5261 81.90500 84.78141 95.00000 0.01053
5262 81.92000 85.01212 79.00000 0.01266
5263 81.93500 85.24185 82.00000 0.01220
5264 81.95000 85.47386 88.00000 0.01136
5265 81.96500 85.71390 95.00000 0.01053
5266 81.98000 85.96193 102.00000 0.00980
5267 81.99500 86.21875 93.00000 0.01075
5268 82.01000 86.48409 91.00000 0.01099
5269 82.02500 86.75665 80.00000 0.01250
5270 82.04000 87.03421 82.00000 0.01220
5271 82.05500 87.31375 94.00000 0.01064
5272 82.07000 87.59173 99.00000 0.01010
5273 82.08500 87.86428 86.00000 0.01163
5274 82.10000 88.12748 75.00000 0.01333
5275 82.11500 88.37759 99.00000 0.01010
5276 82.13000 88.61124 89.00000 0.01124
5277 82.14500 88.82569 87.00000 0.01149
5278 82.16000 89.01897 95.00000 0.01053
5279 82.17500 89.19001 93.00000 0.01075
5280 82.19000 89.33877 91.00000 0.01099
5281 82.20500 89.46624 92.00000 0.01087
5282 82.22000 89.57434 82.00000 0.01220
5283 82.23500 89.66583 74.00000 0.01351
5284 82.25000 89.74410 92.00000 0.01087
5285 82.26500 89.81292 85.00000 0.01176
5286 82.28000 89.87618 101.00000 0.00990
5287 82.29500 89.93767 101.00000 0.00990
5288 82.31000 90.00089 89.00000 0.01124
5289 82.32500 90.06905 113.00000 0.00885
5290 82.34000 90.14502 82.00000 0.01220
5291 82.35500 90.23161 91.00000 0.01099
5292 82.37000 90.33173 94.00000 0.01064
5293 82.38500 90.44868 96.00000 0.01042
5294 82.40000 90.58643 75.00000 0.01333
5295 82.41500 90.74957 81.00000 0.01235
5296 82.43000 90.94320 83.00000 0.01205
5297 82.44500 91.17265 86.00000 0.01163
5298 82.46000 91.44327 82.00000 0.01220
5299 82.47500 91.76076 88.00000 0.01136
5300 82.49000 92.12865 95.00000 0.01053
5301 82.50500 92.54969 92.00000 0.01087
5302 82.52000 93.02511 95.00000 0.01053
5303 82.53500 93.55447 74.00000 0.01351
5304 82.55000 94.13575 85.00000 0.01176
5305 82.56500 94.76542 82.00000 0.01220
5306 82.58000 95.43867 103.00000 0.00971
5307 82.59500 96.14965 93.00000 0.01075
5308 82.61000 96.89159 99.00000 0.01010
5309 82.62500 97.65689 84.00000 0.01190
5310 82.64000 98.43713 92.00000 0.01087
5311 82.65500 99.22283 107.00000 0.00935
5312 82.67000 100.00320 97.00000 0.01031
5313 82.68500 100.76594 97.00000 0.01031
5314 82.70000 101.49696 98.00000 0.01020
5315 82.71500 102.18044 94.00000 0.01064
5316 82.73000 102.79908 92.00000 0.01087
5317 82.74500 103.33463 108.00000 0.00926
5318 82.76000 103.76885 96.00000 0.01042
5319 82.77500 104.08459 93.00000 0.01075
5320 82.79000 104.26702 93.00000 0.01075
5321 82.80500 104.30478 100.00000 0.01000
5322 82.82000 104.19083 92.00000 0.01087
5323 82.83500 103.92294 81.00000 0.01235
5324 82.85000 103.50370 89.00000 0.01124
5325 82.86500 102.94013 93.00000 0.01075
5326 82.88000 102.24307 108.00000 0.00926
5327 82.89500 101.42635 107.00000 0.00935
5328 82.91000 100.50597 93.00000 0.01075
5329 82.92500 99.49931 102.00000 0.00980
5330 82.94000 98.42455 102.00000 0.00980
5331 82.95500 97.30001 89.00000 0.01124
5332 82.97000 96.14380 101.00000 0.00990
5333 82.98500 94.97343 114.00000 0.00877
5334 83.00000 93.80555 83.00000 0.01205
5335 83.01500 92.65576 93.00000 0.01075
5336 83.03000 91.53839 71.00000 0.01408
5337 83.04500 90.46646 79.00000 0.01266
5338 83.06000 89.45157 83.00000 0.01205
5339 83.07500 88.50383 81.00000 0.01235
5340 83.09000 87.63192 90.00000 0.01111
5341 83.10500 86.84306 82.00000 0.01220
5342 83.12000 86.14311 88.00000 0.01136
5343 83.13500 85.53660 88.00000 0.01136
5344 83.15000 85.02682 75.00000 0.01333
5345 83.16500 84.61590 73.00000 0.01370
5346 83.18000 84.30490 86.00000 0.01163
5347 83.19500 84.09383 82.00000 0.01220
5348 83.21000 83.98177 71.00000 0.01408
5349 83.22500 83.96685 100.00000 0.01000
5350 83.24000 84.04632 103.00000 0.00971
5351 83.25500 84.21653 90.00000 0.01111
5352 83.27000 84.47292 94.00000 0.01064
5353 83.28500 84.81001 86.00000 0.01163
5354 83.30000 85.22134 80.00000 0.01250
5355 83.31500 85.69939 82.00000 0.01220
5356 83.33000 86.23553 74.00000 0.01351
5357 83.34500 86.81999 82.00000 0.01220
5358 83.36000 87.44177 84.00000 0.01190
5359 83.37500 88.08872 72.00000 0.01389
5360 83.39000 88.74763 77.00000 0.01299
5361 83.40500 89.40450 85.00000 0.01176
5362 83.42000 90.04489 94.00000 0.01064
5363 83.43500 90.65447 99.00000 0.01010
5364 83.45000 91.21963 104.00000 0.00962
5365 83.46500 91.72816 93.00000 0.01075
5366 83.48000 92.16974 105.00000 0.00952
5367 83.49500 92.53747 93.00000 0.01075
5368 83.51000 92.82622 101.00000 0.00990
5369 83.52500 93.03397 101.00000 0.00990
5370 83.54000 93.16109 87.00000 0.01149
5371 83.55500 93.20974 95.00000 0.01053
5372 83.57000 93.18319 103.00000 0.00971
5373 83.58500 93.08493 90.00000 0.01111
5374 83.60000 92.91822 93.00000 0.01075
5375 83.61500 92.68759 98.00000 0.01020
5376 83.63000 92.39437 105.00000 0.00952
5377 83.64500 92.04013 106.00000 0.00943
5378 83.66000 91.62599 100.00000 0.01000
5379 83.67500 91.15302 108.00000 0.00926
5380 83.69000 90.62256 98.00000 0.01020
5381 83.70500 90.03634 94.00000 0.01064
5382 83.72000 89.39885 84.00000 0.01190
5383 83.73500 88.71539 86.00000 0.01163
5384 83.75000 87.99150 92.00000 0.01087
5385 83.76500 87.23469 76.00000 0.01316
5386 83.78000 86.45289 83.00000 0.01205
5387 83.79500 85.65459 86.00000 0.01163
5388 83.81000 84.84831 91.00000 0.01099
5389 83.82500 84.04221 94.00000 0.01064
5390 83.84000 83.24385 79.00000 0.01266
5391 83.85500 82.45996 83.00000 0.01205
5392 83.87000 81.69641 94.00000 0.01064
5393 83.88500 80.95814 90.00000 0.01111
5394 83.90000 80.24927 84.00000 0.01190
5395 83.91500 79.57311 84.00000 0.01190
5396 83.93000 78.93228 86.00000 0.01163
5397 83.94500 78.32881 79.00000 0.01266
5398 83.96000 77.76416 77.00000 0.01299
5399 83.97500 77.23933 85.00000 0.01176
5400 83.99000 76.75488 85.00000 0.01176
5401 84.00500 76.31097 77.00000 0.01299
5402 84.02000 75.90744 72.00000 0.01389
5403 84.03500 75.54378 73.00000 0.01370
5404 84.05000 75.21921 91.00000 0.01099
5405 84.06500 74.93269 78.00000 0.01282
5406 84.08000 74.68298 65.00000 0.01538
5407 84.09500 74.46862 73.00000 0.01370
5408 84.11000 74.28800 81.00000 0.01235
5409 84.12500 74.13935 73.00000 0.01370
5410 84.14000 74.02078 79.00000 0.01266
5411 84.15500 73.93029 85.00000 0.01176
5412 84.17000 73.86576 78.00000 0.01282
5413 84.18500 73.82497 76.00000 0.01316
5414 84.20000 73.80555 77.00000 0.01299
5415 84.21500 73.80481 77.00000 0.01299
5416 84.23000 73.82093 82.00000 0.01220
5417 84.24500 73.85091 70.00000 0.01429
5418 84.26000 73.89204 73.00000 0.01370
5419 84.27500 73.94154 82.00000 0.01220
5420 84.29000 73.99663 83.00000 0.01205
5421 84.30500 74.05455 86.00000 0.01163
5422 84.32000 74.11262 86.00000 0.01163
5423 84.33500 74.16837 78.00000 0.01282
5424 84.35000 74.21963 73.00000 0.01370
5425 84.36500 74.26458 70.00000 0.01429
5426 84.38000 74.30188 82.00000 0.01220
5427 84.39500 74.33072 85.00000 0.01176
5428 84.41000 74.35071 78.00000 0.01282
5429 84.42500 74.36127 80.00000 0.01250
5430 84.44000 74.36476 76.00000 0.01316
5431 84.45500 74.36332 76.00000 0.01316
5432 84.47000 74.35783 75.00000 0.01333
5433 84.48500 74.35029 80.00000 0.01250
5434 84.50000 74.34293 76.00000 0.01316
5435 84.51500 74.33906 74.00000 0.01351
5436 84.53000 74.34051 85.00000 0.01176
5437 84.54500 74.34951 73.00000 0.01370
5438 84.56000 74.36806 71.00000 0.01408
5439 84.57500 74.39791 86.00000 0.01163
5440 84.59000 74.44047 89.00000 0.01124
5441 84.60500 74.49686 81.00000 0.01235
5442 84.62000 74.56784 79.00000 0.01266
5443 84.63500 74.65384 85.00000 0.01176
5444 84.65000 74.75491 89.00000 0.01124
5445 84.66500 74.87074 99.00000 0.01010
5446 84.68000 75.00067 89.00000 0.01124
5447 84.69500 75.14355 77.00000 0.01299
5448 84.71000 75.29746 79.00000 0.01266
5449 84.72500 75.46219 72.00000 0.01389
5450 84.74000 75.63500 70.00000 0.01429
5451 84.75500 75.81377 84.00000 0.01190
5452 84.77000 75.99626 70.00000 0.01429
5453 84.78500 76.18024 75.00000 0.01333
5454 84.80000 76.36361 83.00000 0.01205
5455 84.81500 76.54442 90.00000 0.01111
5456 84.83000 76.72100 70.00000 0.01429
5457 84.84500 76.89191 68.00000 0.01471
5458 84.86000 77.05599 77.00000 0.01299
5459 84.87500 77.21228 100.00000 0.01000
5460 84.89000 77.35998 91.00000 0.01099
5461 84.90500 77.49842 67.00000 0.01493
5462 84.92000 77.62705 71.00000 0.01408
5463 84.93500 77.74552 69.00000 0.01449
5464 84.95000 77.85377 85.00000 0.01176
5465 84.96500 77.95212 86.00000 0.01163
5466 84.98000 78.04149 72.00000 0.01389
5467 84.99500 78.12345 69.00000 0.01449
5468 85.01000 78.20033 87.00000 0.01149
5469 85.02500 78.27521 99.00000 0.01010
5470 85.04000 78.35186 85.00000 0.01176
5471 85.05500 78.43464 90.00000 0.01111
5472 85.07000 78.52828 82.00000 0.01220
5473 85.08500 78.63777 84.00000 0.01190
5474 85.10000 78.76818 97.00000 0.01031
5475 85.11500 78.92453 90.00000 0.01111
5476 85.13000 79.11166 82.00000 0.01220
5477 85.14500 79.33428 84.00000 0.01190
5478 85.16000 79.59679 71.00000 0.01408
5479 85.17500 79.90334 72.00000 0.01389
5480 85.19000 80.25784 84.00000 0.01190
5481 85.20500 80.66397 92.00000 0.01087
5482 85.22000 81.12513 84.00000 0.01190
5483 85.23500 81.64449 86.00000 0.01163
5484 85.25000 82.22473 85.00000 0.01176
5485 85.26500 82.86855 74.00000 0.01351
5486 85.28000 83.57871 79.00000 0.01266
5487 85.29500 84.35668 71.00000 0.01408
5488 85.31000 85.20383 69.00000 0.01449
5489 85.32500 86.12095 87.00000 0.01149
5490 85.34000 87.10813 85.00000 0.01176
5491 85.35500 88.16461 101.00000 0.00990
5492 85.37000 89.28868 81.00000 0.01235
5493 85.38500 90.47748 84.00000 0.01190
5494 85.40000 91.72686 80.00000 0.01250
5495 85.41500 93.03125 86.00000 0.01163
5496 85.43000 94.38355 80.00000 0.01250
5497 85.44500 95.77511 87.00000 0.01149
5498 85.46000 97.19605 92.00000 0.01087
5499 85.47500 98.63466 89.00000 0.01124
5500 85.49000 100.07810 95.00000 0.01053
5501 85.50500 101.51250 96.00000 0.01042
5502 85.52000 102.92357 79.00000 0.01266
5503 85.53500 104.29638 97.00000 0.01031
5504 85.55000 105.61611 99.00000 0.01010
5505 85.56500 106.86822 112.00000 0.00893
5506 85.58000 108.03876 112.00000 0.00893
5507 85.59500 109.11450 110.00000 0.00909
5508 85.61000 110.08312 115.00000 0.00870
5509 85.62500 110.93343 106.00000 0.00943
5510 85.64000 111.65573 110.00000 0.00909
5511 85.65500 112.24188 122.00000 0.00820
5512 85.67000 112.68591 104.00000 0.00962
5513 85.68500 112.98444 106.00000 0.00943
5514 85.70000 113.13702 107.00000 0.00935
5515 85.71500 113.14646 112.00000 0.00893
5516 85.73000 113.01891 120.00000 0.00833
5517 85.74500 112.76378 119.00000 0.00840
5518 85.76000 112.39339 125.00000 0.00800
5519 85.77500 111.92260 109.00000 0.00917
5520 85.79000 111.36826 137.00000 0.00730
5521 85.80500 110.74864 105.00000 0.00952
5522 85.82000 110.08293 117.00000 0.00855
5523 85.83500 109.39077 90.00000 0.01111
5524 85.85000 108.69187 107.00000 0.00935
5525 85.86500 108.00570 105.00000 0.00952
5526 85.88000 107.35121 91.00000 0.01099
5527 85.89500 106.74666 99.00000 0.01010
5528 85.91000 106.20945 94.00000 0.01064
5529 85.92500 105.75598 103.00000 0.00971
5530 85.94000 105.40154 97.00000 0.01031
5531 85.95500 105.16012 96.00000 0.01042
5532 85.97000 105.04430 91.00000 0.01099
5533 85.98500 105.06503 91.00000 0.01099
5534 86.00000 105.23134 113.00000 0.00885
5535 86.01500 105.55003 106.00000 0.00943
5536 86.03000 106.02791 98.00000 0.01020
5537 86.04500 106.66721 99.00000 0.01010
5538 86.06000 107.46881 113.00000 0.00885
5539 86.07500 108.43125 104.00000 0.00962
5540 86.09000 109.55070 103.00000 0.00971
5541 86.10500 110.82090 101.00000 0.00990
5542 86.12000 112.23314 97.00000 0.01031
5543 86.13500 113.77624 108.00000 0.00926
5544 86.15000 115.43657 104.00000 0.00962
5545 86.16500 117.19810 114.00000 0.00877
5546 86.18000 119.04247 111.00000 0.00901
5547 86.19500 120.94916 118.00000 0.00847
5548 86.21000 122.89570 105.00000 0.00952
5549 86.22500 124.85795 110.00000 0.00909
5550 86.24000 126.81043 111.00000 0.00901
5551 86.25500 128.72681 107.00000 0.00935
5552 86.27000 130.58026 114.00000 0.00877
5553 86.28500 132.34391 107.00000 0.00935
5554 86.30000 133.99143 122.00000 0.00820
5555 86.31500 135.49764 142.00000 0.00704
5556 86.33000 136.83926 153.00000 0.00654
5557 86.34500 137.99574 142.00000 0.00704
5558 86.36000 138.95028 131.00000 0.00763
5559 86.37500 139.69084 121.00000 0.00826
5560 86.39000 140.21098 122.00000 0.00820
5561 86.40500 140.51040 129.00000 0.00775
5562 86.42000 140.59509 128.00000 0.00781
5563 86.43500 140.47691 120.00000 0.00833
5564 86.45000 140.17274 120.00000 0.00833
5565 86.46500 139.70326 125.00000 0.00800
5566 86.48000 139.09162 141.00000 0.00709
5567 86.49500 138.36214 137.00000 0.00730
5568 86.51000 137.53917 146.00000 0.00685
5569 86.52500 136.64617 129.00000 0.00775
5570 86.54000 135.70514 123.00000 0.00813
5571 86.55500 134.73615 137.00000 0.00730
5572 86.57000 133.75710 141.00000 0.00709
5573 86.58500 132.78352 136.00000 0.00735
5574 86.60000 131.82844 124.00000 0.00806
5575 86.61500 130.90224 131.00000 0.00763
5576 86.63000 130.01237 136.00000 0.00735
5577 86.64500 129.16312 126.00000 0.00794
5578 86.66000 128.35813 111.00000 0.00901
5579 86.67500 127.59598 113.00000 0.00885
5580 86.69000 126.87387 115.00000 0.00870
5581 86.70500 126.18736 116.00000 0.00862
5582 86.72000 125.53095 121.00000 0.00826
5583 86.73500 124.89871 129.00000 0.00775
5584 86.75000 124.28622 143.00000 0.00699
5585 86.76500 123.69062 119.00000 0.00840
5586 86.78000 123.11016 98.00000 0.01020
5587 86.79500 122.54614 111.00000 0.00901
5588 86.81000 122.00177 137.00000 0.00730
5589 86.82500 121.48228 116.00000 0.00862
5590 86.84000 120.99416 116.00000 0.00862
5591 86.85500 120.54436 119.00000 0.00840
5592 86.87000 120.13950 113.00000 0.00885
5593 86.88500 119.78511 117.00000 0.00855
5594 86.90000 119.48496 107.00000 0.00935
5595 86.91500 119.24070 116.00000 0.00862
5596 86.93000 119.05155 110.00000 0.00909
5597 86.94500 118.91428 127.00000 0.00787
5598 86.96000 118.82332 127.00000 0.00787
5599 86.97500 118.77102 131.00000 0.00763
5600 86.99000 118.74797 126.00000 0.00794
5601 87.00500 118.74334 111.00000 0.00901
5602 87.02000 118.74530 120.00000 0.00833
5603 87.03500 118.74133 112.00000 0.00893
5604 87.05000 118.71856 115.00000 0.00870
5605 87.06500 118.66412 117.00000 0.00855
5606 87.08000 118.56551 120.00000 0.00833
5607 87.09500 118.41103 129.00000 0.00775
5608 87.11000 118.19023 126.00000 0.00794
5609 87.12500 117.89443 132.00000 0.00758
5610 87.14000 117.51693 129.00000 0.00775
5611 87.15500 117.05360 124.00000 0.00806
5612 87.17000 116.50427 122.00000 0.00820
5613 87.18500 115.86946 113.00000 0.00885
5614 87.20000 115.15252 110.00000 0.00909
5615 87.21500 114.35843 117.00000 0.00855
5616 87.23000 113.49314 106.00000 0.00943
5617 87.24500 112.56304 111.00000 0.00901
5618 87.26000 111.57446 123.00000 0.00813
5619 87.27500 110.53348 98.00000 0.01020
5620 87.29000 109.44588 94.00000 0.01064
5621 87.30500 108.31732 95.00000 0.01053
5622 87.32000 107.15365 106.00000 0.00943
5623 87.33500 105.96129 110.00000 0.00909
5624 87.35000 104.74753 112.00000 0.00893
5625 87.36500 103.52065 110.00000 0.00909
5626 87.38000 102.28996 114.00000 0.00877
5627 87.39500 101.06566 108.00000 0.00926
5628 87.41000 99.85848 109.00000 0.00917
5629 87.42500 98.67930 110.00000 0.00909
5630 87.44000 97.53877 110.00000 0.00909
5631 87.45500 96.44665 100.00000 0.01000
5632 87.47000 95.41236 96.00000 0.01042
5633 87.48500 94.44399 102.00000 0.00980
5634 87.50000 93.54795 103.00000 0.00971
5635 87.51500 92.72920 107.00000 0.00935
5636 87.53000 91.99133 103.00000 0.00971
5637 87.54500 91.33942 105.00000 0.00952
5638 87.56000 90.77396 96.00000 0.01042
5639 87.57500 90.29579 88.00000 0.01136
5640 87.59000 89.90498 83.00000 0.01205
5641 87.60500 89.60094 91.00000 0.01099
5642 87.62000 89.38249 97.00000 0.01031
5643 87.63500 89.24796 103.00000 0.00971
5644 87.65000 89.19522 96.00000 0.01042
5645 87.66500 89.22165 88.00000 0.01136
5646 87.68000 89.32408 113.00000 0.00885
5647 87.69500 89.49877 107.00000 0.00935
5648 87.71000 89.74128 102.00000 0.00980
5649 87.72500 90.04645 98.00000 0.01020
5650 87.74000 90.40838 95.00000 0.01053
5651 87.75500 90.82044 96.00000 0.01042
5652 87.77000 91.27541 117.00000 0.00855
5653 87.78500 91.76559 112.00000 0.00893
5654 87.80000 92.28310 91.00000 0.01099
5655 87.81500 92.82011 93.00000 0.01075
5656 87.83000 93.36916 94.00000 0.01064
5657 87.84500 93.92364 99.00000 0.01010
5658 87.86000 94.47766 96.00000 0.01042
5659 87.87500 95.02643 117.00000 0.00855
5660 87.89000 95.56623 114.00000 0.00877
5661 87.90500 96.09427 110.00000 0.00909
5662 87.92000 96.60850 114.00000 0.00877
5663 87.93500 97.10738 106.00000 0.00943
5664 87.95000 97.58958 103.00000 0.00971
5665 87.96500 98.05378 115.00000 0.00870
5666 87.98000 98.49844 96.00000 0.01042
5667 87.99500 98.92171 85.00000 0.01176
5668 88.01000 99.32139 83.00000 0.01205
5669 88.02500 99.69492 103.00000 0.00971
5670 88.04000 100.03976 102.00000 0.00980
5671 88.05500 100.35310 102.00000 0.00980
5672 88.07000 100.63237 114.00000 0.00877
5673 88.08500 100.87538 96.00000 0.01042
5674 88.10000 101.08052 100.00000 0.01000
5675 88.11500 101.24687 110.00000 0.00909
5676 88.13000 101.37428 120.00000 0.00833
5677 88.14500 101.46332 105.00000 0.00952
5678 88.16000 101.51528 97.00000 0.01031
5679 88.17500 101.53199 120.00000 0.00833
5680 88.19000 101.51574 126.00000 0.00794
5681 88.20500 101.46919 113.00000 0.00885
5682 88.22000 101.39533 96.00000 0.01042
5683 88.23500 101.29741 108.00000 0.00926
5684 88.25000 101.17873 126.00000 0.00794
5685 88.26500 101.04267 97.00000 0.01031
5686 88.28000 100.89432 113.00000 0.00885
5687 88.29500 100.73657 101.00000 0.00990
5688 88.31000 100.57278 87.00000 0.01149
5689 88.32500 100.40580 94.00000 0.01064
5690 88.34000 100.23781 105.00000 0.00952
5691 88.35500 100.07009 105.00000 0.00952
5692 88.37000 99.90299 99.00000 0.01010
5693 88.38500 99.73591 112.00000 0.00893
5694 88.40000 99.56744 101.00000 0.00990
5695 88.41500 99.39548 106.00000 0.00943
5696 88.43000 99.21750 106.00000 0.00943
5697 88.44500 99.03075 107.00000 0.00935
5698 88.46000 98.83255 103.00000 0.00971
5699 88.47500 98.62047 106.00000 0.00943
5700 88.49000 98.39260 91.00000 0.01099
5701 88.50500 98.14771 95.00000 0.01053
5702 88.52000 97.88536 110.00000 0.00909
5703 88.53500 97.60585 107.00000 0.00935
5704 88.55000 97.31153 109.00000 0.00917
5705 88.56500 97.00483 106.00000 0.00943
5706 88.58000 96.68964 97.00000 0.01031
5707 88.59500 96.37095 105.00000 0.00952
5708 88.61000 96.05462 104.00000 0.00962
5709 88.62500 95.74726 95.00000 0.01053
5710 88.64000 95.45582 81.00000 0.01235
5711 88.65500 95.18731 90.00000 0.01111
5712 88.67000 94.94981 93.00000 0.01075
5713 88.68500 94.74978 102.00000 0.00980
5714 88.70000 94.59373 89.00000 0.01124
5715 88.71500 94.48760 88.00000 0.01136
5716 88.73000 94.43666 83.00000 0.01205
5717 88.74500 94.44533 89.00000 0.01124
5718 88.76000 94.51772 95.00000 0.01053
5719 88.77500 94.65714 79.00000 0.01266
5720 88.79000 94.86588 96.00000 0.01042
5721 88.80500 95.14575 97.00000 0.01031
5722 88.82000 95.49783 90.00000 0.01111
5723 88.83500 95.92253 93.00000 0.01075
5724 88.85000 96.41955 88.00000 0.01136
5725 88.86500 96.98788 84.00000 0.01190
5726 88.88000 97.62573 77.00000 0.01299
5727 88.89500 98.33055 89.00000 0.01124
5728 88.91000 99.09895 96.00000 0.01042
5729 88.92500 99.92672 103.00000 0.00971
5730 88.94000 100.80879 92.00000 0.01087
5731 88.95500 101.73930 91.00000 0.01099
5732 88.97000 102.71160 83.00000 0.01205
5733 88.98500 103.71846 89.00000 0.01124
loop_
_refln_index_h
_refln_index_k
_refln_index_l
_refln_d_spacing
_refln_F_squared_calc
_refln_F_squared_meas
_refln_F_squared_sigma
_refln_observed_status
1 1 0 13.70501 4.61 4.59 1.47 o
0 3 0 7.91259 7.21 7.19 1.76 o
2 2 0 6.85250 0.11 0.11 0.03 o
1 0 1 6.47289 0.21 0.22 0.02 o
0 2 1 5.85293 0.63 0.66 0.04 o
2 1 1 5.38262 0.11 0.11 0.02 o
1 2 -1 5.38262 0.07 0.07 0.01 o
1 4 0 5.18001 3.09 3.11 0.84 o
4 1 0 5.18001 0.23 0.23 0.07 o
1 3 1 4.70551 0.57 0.58 0.10 o
1 -4 -1 4.70551 0.69 0.70 0.12 o
3 3 0 4.56834 0.06 0.06 0.02 o
4 0 1 4.45049 0.02 0.02 0.01 o
3 2 1 4.23290 0.06 0.06 0.02 o
2 3 -1 4.23290 2.52 2.52 0.55 o
0 6 0 3.95629 0.07 0.07 0.02 o
0 5 1 3.87901 1.59 1.58 0.22 o
2 5 0 3.80108 2.17 2.12 0.48 o
5 2 0 3.80108 0.51 0.50 0.12 o
2 4 1 3.73239 0.08 0.07 0.02 o
2 -6 -1 3.73239 0.11 0.11 0.02 o
5 1 1 3.60123 2.70 2.69 0.64 o
1 5 -1 3.60123 1.75 1.74 0.42 o
4 4 0 3.42625 0.00 0.00 0.00 o
4 3 1 3.37569 1.52 1.65 0.20 o
3 4 -1 3.37569 0.12 0.13 0.03 o
0 1 2 3.33065 0.90 0.94 0.09 o
2 0 2 3.23645 3.66 3.78 0.52 o
1 6 1 3.18782 0.51 0.53 0.06 o
1 -7 -1 3.18782 1.01 1.04 0.08 o
1 2 2 3.14981 0.23 0.24 0.04 o
1 -3 -2 3.14981 0.52 0.54 0.07 o
1 7 0 3.14414 3.97 4.07 1.20 o
7 1 0 3.14414 6.33 6.50 1.91 o
3 5 1 3.02819 1.45 1.46 0.32 o
7 0 1 3.02819 1.53 1.54 0.34 o
3 -8 -1 3.02819 2.64 2.66 0.57 o
3 1 2 2.99555 1.28 1.27 0.15 o
1 3 -2 2.99555 0.70 0.69 0.09 o
6 3 0 2.99068 2.32 2.24 0.51 o
3 6 0 2.99068 0.95 0.92 0.22 o
6 2 1 2.95687 0.02 0.02 0.01 o
2 6 -1 2.95687 2.73 2.61 0.30 o
0 4 2 2.92646 3.69 3.65 0.51 o
2 3 2 2.86194 9.63 10.20 2.86 o
2 -5 -2 2.86194 0.05 0.06 0.02 o
5 4 1 2.76979 0.07 0.07 0.02 o
4 5 -1 2.76979 1.69 1.72 0.32 o
5 0 2 2.74475 3.68 3.75 1.09 o
5 5 0 2.74100 1.16 1.19 0.27 o
0 8 1 2.71490 0.78 0.77 0.07 o
4 2 2 2.69131 0.81 0.86 0.08 o
2 4 -2 2.69131 0.86 0.92 0.08 o
2 7 1 2.66315 0.03 0.03 0.01 o
2 -9 -1 2.66315 1.48 1.43 0.20 o
1 5 2 2.64087 0.32 0.31 0.05 o
1 -6 -2 2.64087 0.20 0.19 0.04 o
0 9 0 2.63753 2.40 2.36 0.48 o
2 8 0 2.59000 6.00 5.96 1.72 o
8 2 0 2.59000 1.30 1.29 0.38 o
8 1 1 2.56795 0.01 0.01 0.01 o
1 8 -1 2.56795 0.45 0.46 0.09 o
3 4 2 2.54796 3.97 4.11 0.65 o
3 -7 -2 2.54796 0.13 0.14 0.04 o
4 6 1 2.52403 0.51 0.49 0.06 o
4 -10 -1 2.52403 0.52 0.50 0.07 o
7 3 1 2.48228 1.79 1.73 0.31 o
3 7 -1 2.48228 0.29 0.28 0.06 o
6 1 2 2.46421 0.35 0.37 0.06 o
1 6 -2 2.46421 0.06 0.06 0.02 o
7 4 0 2.46149 1.35 1.42 0.26 o
4 7 0 2.46149 0.84 0.88 0.17 o
5 3 2 2.38821 6.28 6.27 1.53 o
0 7 2 2.38821 0.48 0.48 0.13 o
3 5 -2 2.38821 0.01 0.01 0.01 o
2 6 2 2.35275 2.30 2.43 0.29 o
2 -8 -2 2.35275 0.93 0.99 0.13 o
6 5 1 2.33387 0.15 0.15 0.03 o
1 9 1 2.33387 0.01 0.01 0.01 o
1 -10 -1 2.33387 0.00 0.00 0.01 o
5 6 -1 2.33387 0.86 0.86 0.08 o
6 6 0 2.28417 0.70 0.71 0.07 o
3 8 1 2.26900 1.06 1.04 0.08 o
3 -11 -1 2.26900 1.34 1.32 0.10 o
4 5 2 2.25517 0.83 0.81 0.16 o
4 -9 -2 2.25517 0.15 0.15 0.04 o
1 10 0 2.25309 1.33 1.29 0.32 o
10 1 0 2.25309 5.73 5.58 1.33 o
0 0 3 2.24262 1.39 1.40 0.24 o
10 0 1 2.23853 0.06 0.06 0.02 o
8 0 2 2.22525 1.26 1.22 0.08 o
1 1 3 2.21318 2.49 2.58 0.11 o
1 -2 -3 2.21318 0.27 0.28 0.05 o
9 2 1 2.20925 0.12 0.13 0.02 o
2 9 -1 2.20925 0.46 0.48 0.05 o
7 2 2 2.19648 1.06 1.08 0.11 o
2 7 -2 2.19648 0.02 0.02 0.01 o
3 9 0 2.19456 2.27 2.30 0.26 o
9 3 0 2.19456 0.52 0.53 0.08 o
0 3 3 2.15763 2.89 3.12 0.34 o
3 0 3 2.15763 4.37 4.71 0.50 o
5 7 1 2.15399 0.29 0.30 0.06 o
5 -12 -1 2.15399 0.94 0.98 0.15 o
1 8 2 2.14215 0.01 0.01 0.01 o
1 -9 -2 2.14215 0.09 0.09 0.03 o
2 2 3 2.13138 0.83 0.85 0.07 o
2 -4 -3 2.13138 0.71 0.73 0.06 o
8 4 1 2.12787 3.18 3.21 0.38 o
4 8 -1 2.12787 0.02 0.02 0.01 o
6 4 2 2.11645 0.27 0.27 0.04 o
4 6 -2 2.11645 1.71 1.67 0.09 o
3 7 2 2.09166 1.71 1.65 0.27 o
3 -10 -2 2.09166 2.39 2.31 0.37 o
8 5 0 2.08999 0.41 0.39 0.08 o
5 8 0 2.08999 2.54 2.45 0.43 o
1 4 3 2.05802 0.60 0.64 0.05 o
4 1 3 2.05802 1.10 1.18 0.08 o
1 -5 -3 2.05802 0.00 0.00 0.00 o
1 4 -3 2.05802 0.08 0.09 0.02 o
0 11 1 2.05486 0.00 0.00 0.01 o
2 10 1 2.03215 0.10 0.10 0.03 o
2 -12 -1 2.03215 1.56 1.65 0.09 o
3 3 3 2.01313 0.81 0.80 0.06 o
3 -6 -3 2.01313 0.01 0.01 0.01 o
7 6 1 2.01017 4.15 4.06 0.55 o
6 7 -1 2.01017 0.40 0.39 0.07 o
5 6 2 2.00053 0.48 0.47 0.06 o
9 1 2 2.00053 0.82 0.81 0.09 o
5 -11 -2 2.00053 3.21 3.19 0.26 o
1 9 -2 2.00053 0.41 0.41 0.06 o
0 12 0 1.97815 1.85 1.84 0.09 o
4 9 1 1.96827 2.31 2.28 0.12 o
11 1 1 1.96827 0.39 0.39 0.04 o
4 -13 -1 1.96827 0.34 0.33 0.05 o
1 11 -1 1.96827 0.66 0.65 0.07 o
8 3 2 1.95922 1.15 1.13 0.18 o
3 8 -2 1.95922 0.02 0.02 0.01 o
7 7 0 1.95786 0.06 0.06 0.02 o
2 11 0 1.95786 4.79 4.70 0.70 o
11 2 0 1.95786 0.83 0.82 0.13 o
0 6 3 1.95098 0.00 0.00 0.00 o
6 0 3 1.95098 0.04 0.04 0.02 o
0 10 2 1.93951 0.04 0.05 0.02 o
2 5 3 1.93150 0.26 0.27 0.04 o
5 2 3 1.93150 0.07 0.07 0.02 o
2 -7 -3 1.93150 0.02 0.02 0.01 o
2 5 -3 1.93150 0.09 0.09 0.02 o
10 3 1 1.92889 2.91 2.97 0.25 o
3 10 -1 1.92889 0.28 0.29 0.05 o
2 9 2 1.92037 0.12 0.12 0.03 o
2 -11 -2 1.92037 1.13 1.13 0.08 o
4 10 0 1.90054 0.64 0.65 0.07 o
10 4 0 1.90054 0.25 0.25 0.04 o
7 5 2 1.88374 0.00 0.00 0.00 o
5 7 -2 1.88374 0.36 0.36 0.05 o
4 4 3 1.87641 0.01 0.01 0.01 o
4 -8 -3 1.87641 0.01 0.01 0.01 o
6 8 1 1.87401 2.17 2.11 0.15 o
6 -14 -1 1.87401 0.01 0.01 0.01 o
4 8 2 1.86620 0.96 0.93 0.08 o
4 -12 -2 1.86620 0.62 0.60 0.07 o
9 5 1 1.85673 0.46 0.46 0.05 o
5 9 -1 1.85673 0.01 0.01 0.01 o
1 7 3 1.82577 0.30 0.30 0.05 o
7 1 3 1.82577 2.54 2.54 0.20 o
1 -8 -3 1.82577 1.64 1.64 0.15 o
1 7 -3 1.82577 0.59 0.59 0.07 o
1 12 1 1.82356 0.37 0.36 0.05 o
1 -13 -1 1.82356 0.67 0.66 0.09 o
11 0 2 1.81636 0.51 0.49 0.05 o
9 6 0 1.81527 1.60 1.53 0.11 o
6 9 0 1.81527 0.81 0.78 0.08 o
10 2 2 1.80062 1.14 1.18 0.10 o
2 10 -2 1.80062 0.45 0.47 0.06 o
6 3 3 1.79421 1.00 1.02 0.07 o
3 6 3 1.79421 0.83 0.85 0.07 o
3 -9 -3 1.79421 0.55 0.57 0.06 o
3 6 -3 1.79421 0.58 0.59 0.06 o
3 11 1 1.79211 1.03 1.04 0.08 o
3 -14 -1 1.79211 0.11 0.11 0.03 o
6 7 2 1.78527 0.19 0.19 0.04 o
6 -13 -2 1.78527 5.96 6.09 0.48 o
8 7 1 1.76223 0.97 1.00 0.09 o
13 0 1 1.76223 0.00 0.00 0.01 o
7 8 -1 1.76223 0.23 0.24 0.05 o
9 4 2 1.75573 0.47 0.48 0.09 o
1 11 2 1.75573 1.18 1.20 0.16 o
1 -12 -2 1.75573 1.00 1.01 0.14 o
4 9 -2 1.75573 1.51 1.53 0.20 o
13 1 0 1.75475 0.88 0.90 0.13 o
1 13 0 1.75475 0.03 0.03 0.01 o
12 2 1 1.74784 0.19 0.20 0.05 o
2 12 -1 1.74784 0.16 0.17 0.04 o
5 5 3 1.73570 0.61 0.63 0.06 o
5 -10 -3 1.73570 0.24 0.25 0.04 o
5 10 1 1.73380 0.06 0.07 0.02 o
5 -15 -1 1.73380 0.28 0.29 0.04 o
3 10 2 1.72761 0.39 0.41 0.05 o
3 -13 -2 1.72761 1.90 1.99 0.14 o
12 3 0 1.72667 0.03 0.03 0.02 o
3 12 0 1.72667 0.78 0.82 0.08 o
8 8 0 1.71313 0.25 0.26 0.05 o
0 9 3 1.70851 1.16 1.18 0.11 o
9 0 3 1.70851 0.39 0.39 0.06 o
11 4 1 1.70670 2.34 2.38 0.19 o
4 11 -1 1.70670 1.85 1.88 0.16 o
2 8 3 1.69539 3.16 3.22 0.26 o
8 2 3 1.69539 1.10 1.12 0.11 o
2 -10 -3 1.69539 0.13 0.13 0.03 o
2 8 -3 1.69539 2.72 2.77 0.22 o
8 6 2 1.68784 0.00 0.00 0.00 o
6 8 -2 1.68784 1.14 1.14 0.12 o
1 0 4 1.67776 0.19 0.18 0.03 o
5 9 2 1.67519 0.52 0.50 0.06 o
5 -14 -2 1.67519 2.08 2.01 0.16 o
11 5 0 1.67433 0.46 0.44 0.06 o
5 11 0 1.67433 0.44 0.43 0.06 o
0 2 4 1.66532 0.16 0.15 0.03 o
7 4 3 1.65776 2.44 2.41 0.18 o
4 7 3 1.65776 0.03 0.03 0.02 o
4 -11 -3 1.65776 0.71 0.70 0.07 o
4 7 -3 1.65776 0.47 0.47 0.05 o
7 9 1 1.65611 2.52 2.50 0.22 o
7 -16 -1 1.65611 0.04 0.04 0.01 o
2 1 4 1.65316 0.38 0.38 0.04 o
1 2 -4 1.65316 1.28 1.27 0.09 o
12 1 2 1.65071 3.42 3.37 0.14 o
1 12 -2 1.65071 0.30 0.30 0.04 o
10 6 1 1.64415 2.84 2.69 0.15 o
0 14 1 1.64415 1.41 1.33 0.09 o
6 10 -1 1.64415 0.72 0.68 0.06 o
2 13 1 1.63244 0.76 0.75 0.06 o
2 -15 -1 1.63244 0.71 0.69 0.05 o
1 3 4 1.62962 0.56 0.56 0.04 o
1 -4 -4 1.62962 0.01 0.01 0.01 o
11 3 2 1.62727 0.00 0.00 0.00 o
3 11 -2 1.62727 1.04 1.04 0.08 o
4 0 4 1.61822 0.40 0.40 0.05 o
3 2 4 1.60706 0.00 0.00 0.00 o
2 3 -4 1.60706 4.67 4.74 0.19 o
7 8 2 1.60480 0.79 0.79 0.08 o
0 13 2 1.60480 0.06 0.06 0.02 o
7 -15 -2 1.60480 0.77 0.77 0.08 o
7 10 0 1.60405 1.07 1.08 0.09 o
10 7 0 1.60405 0.87 0.87 0.08 o
6 6 3 1.60026 0.95 0.94 0.08 o
6 -12 -3 1.60026 0.72 0.71 0.06 o
4 12 1 1.59877 0.40 0.39 0.05 o
4 -16 -1 1.59877 3.16 3.11 0.15 o
2 12 2 1.59391 1.06 1.03 0.10 o
2 -14 -2 1.59391 0.00 0.00 0.01 o
1 10 3 1.58946 0.65 0.65 0.08 o
10 1 3 1.58946 4.08 4.05 0.36 o
1 -11 -3 1.58946 3.15 3.13 0.29 o
1 10 -3 1.58946 2.18 2.17 0.21 o
14 1 1 1.58800 1.31 1.31 0.15 o
1 14 -1 1.58800 2.35 2.34 0.25 o
0 5 4 1.58541 1.97 1.97 0.10 o
10 5 2 1.58324 0.94 0.95 0.10 o
5 10 -2 1.58324 0.68 0.69 0.08 o
0 15 0 1.58252 0.07 0.07 0.02 o
2 4 4 1.57491 0.01 0.01 0.01 o
2 -6 -4 1.57491 4.37 4.73 0.36 o
2 14 0 1.57207 0.05 0.05 0.02 o
14 2 0 1.57207 0.00 0.00 0.01 o
3 9 3 1.56850 1.66 1.73 0.12 o
9 3 3 1.56850 0.35 0.37 0.05 o
3 -12 -3 1.56850 1.54 1.60 0.11 o
3 9 -3 1.56850 0.11 0.12 0.03 o
9 8 1 1.56710 0.62 0.65 0.07 o
13 3 1 1.56710 0.42 0.44 0.06 o
8 9 -1 1.56710 0.07 0.08 0.02 o
3 13 -1 1.56710 1.25 1.30 0.11 o
5 1 4 1.56461 0.59 0.61 0.07 o
1 5 -4 1.56461 1.18 1.23 0.11 o
4 11 2 1.56252 4.36 4.54 0.20 o
4 -15 -2 1.56252 0.04 0.04 0.01 o
6 11 1 1.54700 0.09 0.09 0.03 o
6 -17 -1 1.54700 0.93 0.94 0.08 o
4 3 4 1.54461 0.02 0.02 0.01 o
3 4 -4 1.54461 0.16 0.16 0.03 o
13 4 0 1.54193 0.11 0.11 0.03 o
4 13 0 1.54193 0.25 0.25 0.04 o
8 5 3 1.52896 0.09 0.08 0.02 o
5 8 3 1.52896 1.16 1.13 0.07 o
5 -13 -3 1.52896 0.34 0.33 0.04 o
5 8 -3 1.52896 2.02 1.95 0.09 o
12 5 1 1.52766 0.17 0.17 0.03 o
5 12 -1 1.52766 0.29 0.28 0.04 o
1 6 4 1.52535 0.34 0.33 0.05 o
1 -7 -4 1.52535 0.07 0.07 0.03 o
9 7 2 1.52342 0.03 0.03 0.01 o
7 9 -2 1.52342 2.42 2.29 0.18 o
9 9 0 1.52278 4.08 3.84 0.26 o
6 10 2 1.51410 0.84 0.79 0.06 o
14 0 2 1.51410 1.13 1.07 0.07 o
6 -16 -2 1.51410 1.76 1.67 0.09 o
3 5 4 1.50680 0.24 0.25 0.04 o
7 0 4 1.50680 0.05 0.05 0.02 o
3 -8 -4 1.50680 3.20 3.29 0.14 o
13 2 2 1.50494 2.46 2.55 0.12 o
2 13 -2 1.50494 1.16 1.20 0.08 o
6 2 4 1.49778 0.09 0.09 0.02 o
2 6 -4 1.49778 1.44 1.46 0.12 o
6 12 0 1.49534 0.15 0.15 0.03 o
12 6 0 1.49534 1.47 1.47 0.08 o
1 15 1 1.49106 0.81 0.81 0.07 o
1 -16 -1 1.49106 4.51 4.48 0.21 o
12 0 3 1.48350 0.01 0.01 0.01 o
0 12 3 1.48350 2.10 2.13 0.17 o
8 10 1 1.48231 0.91 0.92 0.08 o
8 -18 -1 1.48231 0.12 0.12 0.02 o
12 4 2 1.47844 2.09 2.11 0.11 o
4 12 -2 1.47844 0.18 0.18 0.03 o
7 7 3 1.47488 0.01 0.01 0.01 o
2 11 3 1.47488 2.51 2.55 0.24 o
11 2 3 1.47488 1.58 1.60 0.16 o
2 -13 -3 1.47488 0.12 0.12 0.03 o
7 -14 -3 1.47488 0.21 0.21 0.04 o
2 11 -3 1.47488 2.27 2.30 0.22 o
11 7 1 1.47372 0.08 0.08 0.03 o
3 14 1 1.47372 0.06 0.06 0.02 o
3 -17 -1 1.47372 2.07 2.11 0.20 o
7 11 -1 1.47372 2.17 2.22 0.21 o
5 4 4 1.47164 0.76 0.78 0.06 o
4 5 -4 1.47164 0.52 0.54 0.06 o
1 14 2 1.46991 1.59 1.65 0.11 o
1 -15 -2 1.46991 0.15 0.16 0.03 o
0 8 4 1.46323 0.22 0.23 0.04 o
2 7 4 1.45496 0.83 0.85 0.07 o
2 -9 -4 1.45496 2.17 2.23 0.13 o
8 9 2 1.45329 0.06 0.06 0.02 o
3 13 2 1.45329 0.61 0.63 0.07 o
3 -16 -2 1.45329 0.04 0.04 0.02 o
8 -17 -2 1.45329 0.39 0.40 0.05 o
4 10 3 1.44991 0.22 0.23 0.04 o
10 4 3 1.44991 0.88 0.91 0.06 o
4 -14 -3 1.44991 0.77 0.80 0.06 o
4 10 -3 1.44991 1.42 1.48 0.08 o
16 0 1 1.44880 0.12 0.12 0.03 o
5 13 1 1.44077 0.00 0.00 0.00 o
15 2 1 1.44077 0.23 0.24 0.04 o
5 -18 -1 1.44077 0.09 0.09 0.03 o
2 15 -1 1.44077 0.10 0.10 0.03 o
8 1 4 1.43884 0.09 0.09 0.02 o
1 8 -4 1.43884 0.01 0.01 0.00 o
11 6 2 1.43721 0.01 0.01 0.01 o
6 11 -2 1.43721 0.16 0.16 0.03 o
11 8 0 1.43668 0.70 0.70 0.07 o
8 11 0 1.43668 0.06 0.06 0.02 o
1 16 0 1.43668 0.86 0.86 0.08 o
16 1 0 1.43668 0.22 0.22 0.04 o
4 6 4 1.43097 1.79 1.84 0.12 o
4 -10 -4 1.43097 0.00 0.00 0.01 o
7 3 4 1.42323 1.39 1.43 0.09 o
3 7 -4 1.42323 0.71 0.73 0.05 o
5 12 2 1.42167 0.69 0.70 0.06 o
5 -17 -2 1.42167 0.17 0.17 0.03 o
3 15 0 1.42114 0.05 0.05 0.02 o
15 3 0 1.42114 0.01 0.01 0.01 o
14 4 1 1.41747 0.01 0.01 0.01 o
4 14 -1 1.41747 4.18 4.00 0.23 o
9 6 3 1.41097 0.02 0.02 0.01 o
6 9 3 1.41097 0.06 0.06 0.02 o
6 -15 -3 1.41097 0.00 0.00 0.01 o
6 9 -3 1.41097 0.01 0.01 0.01 o
10 9 1 1.40995 0.88 0.87 0.08 o
9 10 -1 1.40995 0.24 0.24 0.03 o
7 12 1 1.39526 0.21 0.22 0.03 o
7 -19 -1 1.39526 0.48 0.50 0.05 o
6 5 4 1.39350 0.03 0.03 0.01 o
1 9 4 1.39350 0.12 0.12 0.03 o
1 -10 -4 1.39350 0.86 0.88 0.09 o
5 6 -4 1.39350 1.04 1.06 0.09 o
15 1 2 1.39202 2.83 2.87 0.15 o
1 15 -2 1.39202 0.17 0.17 0.03 o
14 5 0 1.39153 0.25 0.25 0.04 o
5 14 0 1.39153 0.31 0.32 0.04 o
10 8 2 1.38490 0.00 0.00 0.00 o
8 10 -2 1.38490 0.72 0.72 0.06 o
1 13 3 1.38197 0.70 0.71 0.06 o
13 1 3 1.38197 0.66 0.67 0.07 o
1 -14 -3 1.38197 1.88 1.91 0.12 o
1 13 -3 1.38197 0.82 0.83 0.07 o
13 6 1 1.38102 0.00 0.00 0.01 o
6 13 -1 1.38102 1.28 1.30 0.11 o
3 8 4 1.37931 0.01 0.01 0.01 o
3 -11 -4 1.37931 0.00 0.00 0.00 o
7 11 2 1.37788 1.25 1.28 0.07 o
14 3 2 1.37788 0.22 0.23 0.03 o
7 -18 -2 1.37788 0.00 0.00 0.00 o
3 14 -2 1.37788 0.07 0.07 0.02 o
10 0 4 1.37238 0.07 0.07 0.02 o
10 10 0 1.37050 1.10 1.14 0.08 o
12 3 3 1.36813 0.07 0.07 0.02 o
3 12 3 1.36813 0.18 0.19 0.03 o
3 -15 -3 1.36813 0.14 0.14 0.03 o
3 12 -3 1.36813 0.04 0.04 0.01 o
0 17 1 1.36720 0.22 0.23 0.03 o
9 2 4 1.36555 0.02 0.02 0.01 o
2 9 -4 1.36555 0.10 0.10 0.02 o
8 8 3 1.36137 0.02 0.02 0.01 o
8 -16 -3 1.36137 0.01 0.01 0.01 o
2 16 1 1.36045 0.88 0.90 0.07 o
2 -18 -1 1.36045 0.96 0.97 0.07 o
0 16 2 1.35745 0.12 0.12 0.03 o
5 7 4 1.35219 1.80 1.83 0.08 o
5 -12 -4 1.35219 0.11 0.11 0.02 o
13 5 2 1.35084 1.01 1.02 0.08 o
2 15 2 1.35084 0.49 0.49 0.05 o
2 -17 -2 1.35084 0.01 0.01 0.01 o
5 13 -2 1.35084 0.26 0.26 0.03 o
7 13 0 1.35039 0.03 0.03 0.01 o
13 7 0 1.35039 0.32 0.33 0.04 o
8 4 4 1.34565 1.54 1.53 0.09 o
4 8 -4 1.34565 0.25 0.24 0.04 o
0 1 5 1.34341 0.04 0.04 0.01 o
11 5 3 1.34165 0.23 0.23 0.03 o
5 11 3 1.34165 0.28 0.28 0.04 o
5 -16 -3 1.34165 0.42 0.41 0.04 o
5 11 -3 1.34165 0.08 0.08 0.02 o
9 11 1 1.34078 0.30 0.29 0.04 o
4 15 1 1.34078 0.10 0.10 0.02 o
4 -19 -1 1.34078 2.92 2.88 0.16 o
9 -20 -1 1.34078 0.01 0.01 0.01 o
2 0 5 1.33701 0.15 0.15 0.03 o
12 8 1 1.33441 0.18 0.18 0.03 o
8 12 -1 1.33441 0.02 0.02 0.01 o
4 14 2 1.33158 1.58 1.60 0.08 o
4 -18 -2 1.33158 0.41 0.42 0.05 o
1 2 5 1.33069 0.07 0.07 0.02 o
1 -3 -5 1.33069 0.03 0.03 0.01 o
17 1 1 1.32813 0.00 0.00 0.01 o
1 17 -1 1.32813 0.80 0.82 0.06 o
0 11 4 1.32661 1.18 1.23 0.07 o
9 10 2 1.32534 0.25 0.27 0.04 o
9 -19 -2 1.32534 0.53 0.55 0.06 o
2 10 4 1.32044 0.12 0.12 0.03 o
2 -12 -4 1.32044 0.04 0.04 0.01 o
0 18 0 1.31876 0.07 0.07 0.02 o
3 1 5 1.31832 0.55 0.56 0.05 o
1 3 -5 1.31832 0.26 0.26 0.03 o
16 3 1 1.31583 0.12 0.12 0.02 o
3 16 -1 1.31583 2.26 2.29 0.14 o
7 6 4 1.31435 2.17 2.19 0.13 o
6 7 -4 1.31435 0.92 0.93 0.07 o
12 7 2 1.31311 0.05 0.06 0.01 o
7 12 -2 1.31311 0.02 0.02 0.01 o
2 17 0 1.31270 0.95 0.95 0.07 o
17 2 0 1.31270 0.26 0.27 0.04 o
0 4 5 1.31226 0.57 0.57 0.05 o
6 14 1 1.30980 0.52 0.53 0.07 o
6 -20 -1 1.30980 0.15 0.15 0.03 o
2 3 5 1.30629 0.78 0.79 0.08 o
2 -5 -5 1.30629 0.02 0.03 0.01 o
7 10 3 1.30467 0.40 0.40 0.05 o
10 7 3 1.30467 0.20 0.21 0.03 o
7 -17 -3 1.30467 0.10 0.10 0.02 o
7 10 -3 1.30467 0.11 0.11 0.02 o
4 9 4 1.30243 0.82 0.84 0.06 o
11 1 4 1.30243 0.25 0.26 0.04 o
4 -13 -4 1.30243 0.63 0.64 0.06 o
1 11 -4 1.30243 0.43 0.44 0.04 o
6 13 2 1.30122 0.13 0.13 0.03 o
6 -19 -2 1.30122 0.00 0.00 0.01 o
12 9 0 1.30082 1.83 1.85 0.07 o
9 12 0 1.30082 0.57 0.58 0.04 o
16 4 0 1.29500 0.01 0.01 0.00 o
4 16 0 1.29500 1.32 1.31 0.10 o
5 0 5 1.29458 1.35 1.34 0.08 o
15 0 3 1.29300 0.02 0.02 0.01 o
0 15 3 1.29300 0.19 0.19 0.03 o
15 5 1 1.29222 0.31 0.31 0.04 o
5 15 -1 1.29222 0.06 0.06 0.01 o
10 3 4 1.29082 1.70 1.71 0.08 o
3 10 -4 1.29082 1.45 1.46 0.08 o
17 0 2 1.28965 1.07 1.08 0.07 o
4 2 5 1.28884 0.24 0.24 0.04 o
2 4 -5 1.28884 0.07 0.07 0.01 o
2 14 3 1.28729 0.45 0.46 0.05 o
14 2 3 1.28729 0.00 0.00 0.01 o
2 -16 -3 1.28729 0.01 0.01 0.01 o
2 14 -3 1.28729 0.19 0.19 0.03 o
16 2 2 1.28398 0.16 0.16 0.03 o
2 16 -2 1.28398 0.31 0.32 0.04 o
1 5 5 1.28318 0.05 0.05 0.02 o
1 -6 -5 1.28318 0.42 0.43 0.03 o
11 10 1 1.28088 0.00 0.00 0.01 o
10 11 -1 1.28088 0.13 0.13 0.03 o
6 8 4 1.27398 0.08 0.08 0.02 o
6 -14 -4 1.27398 0.00 0.00 0.00 o
3 4 5 1.27208 0.81 0.81 0.06 o
3 -7 -5 1.27208 0.03 0.03 0.01 o
13 4 3 1.27058 0.26 0.26 0.04 o
4 13 3 1.27058 0.19 0.19 0.02 o
4 -17 -3 1.27058 0.06 0.06 0.02 o
4 13 -3 1.27058 0.25 0.25 0.04 o
8 13 1 1.26984 0.48 0.47 0.06 o
8 -21 -1 1.26984 0.16 0.16 0.03 o
9 5 4 1.26851 0.07 0.07 0.02 o
5 9 -4 1.26851 0.02 0.02 0.01 o
11 9 2 1.26740 0.31 0.30 0.04 o
15 4 2 1.26740 1.06 1.04 0.06 o
9 11 -2 1.26740 0.15 0.15 0.03 o
4 15 -2 1.26740 0.17 0.16 0.03 o
6 15 0 1.26703 0.02 0.02 0.01 o
15 6 0 1.26703 0.62 0.61 0.06 o
8 12 2 1.26201 0.08 0.08 0.02 o
8 -20 -2 1.26201 0.22 0.22 0.03 o
6 1 5 1.26126 0.54 0.54 0.05 o
1 6 -5 1.26126 0.10 0.10 0.02 o
9 9 3 1.25980 1.11 1.12 0.08 o
9 -18 -3 1.25980 0.95 0.96 0.07 o
14 7 1 1.25907 1.19 1.20 0.09 o
1 18 1 1.25907 0.52 0.52 0.05 o
1 -19 -1 1.25907 1.12 1.13 0.08 o
7 14 -1 1.25907 0.69 0.70 0.06 o
1 12 4 1.25778 0.01 0.02 0.01 o
1 -13 -4 1.25778 1.88 1.91 0.10 o
1 -18 -2 1.25670 0.16 0.16 0.03 o
1 17 2 1.25670 0.36 0.37 0.04 o
5 3 5 1.25071 1.89 1.90 0.12 o
0 7 5 1.25071 0.36 0.36 0.04 o
3 5 -5 1.25071 0.27 0.27 0.03 o
3 17 1 1.24858 0.20 0.19 0.03 o
3 -20 -1 1.24858 0.25 0.25 0.03 o
3 11 4 1.24732 0.47 0.46 0.04 o
3 -14 -4 1.24732 1.22 1.19 0.08 o
3 16 2 1.24626 0.05 0.05 0.02 o
3 -19 -2 1.24626 0.45 0.44 0.04 o
11 11 0 1.24591 0.05 0.05 0.01 o
2 6 5 1.24553 1.39 1.36 0.09 o
2 -8 -5 1.24553 0.01 0.01 0.00 o
12 6 3 1.24413 1.20 1.18 0.08 o
6 12 3 1.24413 0.27 0.26 0.03 o
6 -18 -3 1.24413 2.62 2.58 0.14 o
6 12 -3 1.24413 0.45 0.45 0.05 o
14 6 2 1.24114 0.01 0.01 0.01 o
6 14 -2 1.24114 2.09 2.11 0.10 o
8 7 4 1.23711 1.34 1.39 0.09 o
13 0 4 1.23711 0.23 0.24 0.03 o
7 8 -4 1.23711 0.11 0.11 0.02 o
12 2 4 1.23210 0.00 0.00 0.00 o
2 12 -4 1.23210 0.03 0.03 0.01 o
14 8 0 1.23075 0.42 0.42 0.04 o
8 14 0 1.23075 0.02 0.02 0.01 o
4 5 5 1.23038 0.16 0.16 0.02 o
4 -9 -5 1.23038 0.16 0.16 0.03 o
5 16 1 1.22836 0.38 0.38 0.03 o
19 0 1 1.22836 0.05 0.05 0.02 o
5 -21 -1 1.22836 0.07 0.07 0.02 o
5 10 4 1.22715 0.22 0.21 0.03 o
5 -15 -4 1.22715 0.15 0.15 0.03 o
5 15 2 1.22615 1.44 1.41 0.08 o
5 -20 -2 1.22615 0.60 0.59 0.05 o
8 0 5 1.22545 0.29 0.29 0.04 o
10 12 1 1.22345 0.51 0.50 0.06 o
18 2 1 1.22345 0.45 0.44 0.05 o
2 18 -1 1.22345 0.01 0.01 0.01 o
10 -22 -1 1.22345 0.04 0.04 0.01 o
7 2 5 1.22058 0.02 0.02 0.01 o
2 7 -5 1.22058 0.22 0.22 0.03 o
13 9 1 1.21861 0.58 0.57 0.04 o
9 13 -1 1.21861 0.19 0.19 0.02 o
11 4 4 1.21743 0.96 0.95 0.07 o
4 11 -4 1.21743 2.28 2.28 0.10 o
10 11 2 1.21645 0.03 0.03 0.02 o
10 -21 -2 1.21645 0.07 0.07 0.02 o
19 1 0 1.21612 0.46 0.46 0.05 o
1 19 0 1.21612 1.48 1.49 0.06 o
1 8 5 1.21102 0.00 0.00 0.00 o
1 -9 -5 1.21102 0.02 0.02 0.01 o
11 8 3 1.20973 0.26 0.26 0.04 o
8 11 3 1.20973 0.18 0.18 0.03 o
16 1 3 1.20973 0.08 0.08 0.02 o
1 16 3 1.20973 0.18 0.18 0.03 o
1 -17 -3 1.20973 0.21 0.21 0.04 o
8 -19 -3 1.20973 1.02 1.01 0.07 o
8 11 -3 1.20973 0.99 0.98 0.07 o
1 16 -3 1.20973 0.09 0.09 0.02 o
17 4 1 1.20908 1.90 1.89 0.12 o
4 17 -1 1.20908 1.40 1.39 0.09 o
13 8 2 1.20698 0.07 0.07 0.02 o
8 13 -2 1.20698 0.47 0.47 0.05 o
3 18 0 1.20666 0.06 0.06 0.02 o
18 3 0 1.20666 0.18 0.18 0.02 o
6 4 5 1.20632 0.55 0.55 0.04 o
4 6 -5 1.20632 0.22 0.22 0.03 o
3 7 5 1.20167 0.99 1.02 0.07 o
3 -10 -5 1.20167 0.46 0.48 0.06 o
3 15 3 1.20041 0.01 0.01 0.01 o
15 3 3 1.20041 0.02 0.02 0.01 o
3 -18 -3 1.20041 0.44 0.45 0.05 o
3 15 -3 1.20041 0.02 0.02 0.01 o
7 15 1 1.19978 0.49 0.50 0.05 o
7 -22 -1 1.19978 0.02 0.02 0.01 o
7 9 4 1.19866 0.32 0.33 0.04 o
7 -16 -4 1.19866 0.02 0.03 0.01 o
7 14 2 1.19772 0.83 0.86 0.07 o
18 1 2 1.19772 0.63 0.66 0.06 o
7 -21 -2 1.19772 1.03 1.06 0.08 o
1 18 -2 1.19772 0.00 0.00 0.00 o
10 6 4 1.19410 1.83 1.93 0.10 o
0 14 4 1.19410 0.87 0.91 0.06 o
6 10 -4 1.19410 1.12 1.18 0.07 o
2 13 4 1.18960 0.30 0.31 0.03 o
2 -15 -4 1.18960 0.07 0.07 0.01 o
17 3 2 1.18868 0.66 0.67 0.05 o
3 17 -2 1.18868 0.10 0.10 0.02 o
13 10 0 1.18837 0.35 0.36 0.04 o
10 13 0 1.18837 0.28 0.29 0.04 o
5 17 0 1.18837 0.33 0.34 0.05 o
17 5 0 1.18837 0.05 0.05 0.02 o
16 6 1 1.18622 0.64 0.64 0.06 o
6 16 -1 1.18622 0.32 0.32 0.04 o
9 1 5 1.18361 0.05 0.05 0.02 o
5 6 5 1.18361 0.81 0.82 0.05 o
5 -11 -5 1.18361 0.14 0.14 0.02 o
1 9 -5 1.18361 0.25 0.25 0.02 o
14 5 3 1.18241 0.06 0.06 0.02 o
5 14 3 1.18241 0.15 0.15 0.03 o
5 -19 -3 1.18241 0.29 0.29 0.04 o
5 14 -3 1.18241 0.43 0.43 0.05 o
4 12 4 1.17638 0.04 0.04 0.01 o
4 -16 -4 1.17638 1.64 1.67 0.08 o
8 3 5 1.17488 0.17 0.17 0.03 o
3 8 -5 1.17488 0.30 0.31 0.04 o
12 11 1 1.17311 0.32 0.33 0.05 o
11 12 -1 1.17311 0.42 0.43 0.05 o
14 1 4 1.17207 0.01 0.01 0.01 o
1 14 -4 1.17207 1.08 1.09 0.07 o
16 5 2 1.17119 0.16 0.16 0.03 o
0 19 2 1.17119 0.12 0.12 0.02 o
5 16 -2 1.17119 0.50 0.50 0.04 o
0 10 5 1.17059 0.07 0.07 0.02 o
10 10 3 1.16942 1.32 1.30 0.07 o
10 -20 -3 1.16942 0.01 0.01 0.01 o
0 20 1 1.16884 0.10 0.10 0.02 o
12 10 2 1.16694 0.61 0.59 0.05 o
2 18 2 1.16694 0.33 0.32 0.03 o
2 -20 -2 1.16694 0.02 0.01 0.01 o
10 12 -2 1.16694 0.01 0.01 0.00 o
2 9 5 1.16634 0.01 0.01 0.01 o
2 -11 -5 1.16634 0.29 0.28 0.03 o
9 14 1 1.16461 3.60 3.48 0.14 o
2 19 1 1.16461 0.02 0.02 0.01 o
2 -21 -1 1.16461 0.02 0.02 0.01 o
9 -23 -1 1.16461 0.79 0.76 0.07 o
9 8 4 1.16359 0.03 0.03 0.01 o
13 3 4 1.16359 0.19 0.19 0.03 o
8 9 -4 1.16359 0.00 0.00 0.00 o
3 13 -4 1.16359 1.22 1.18 0.08 o
9 13 2 1.16273 0.37 0.36 0.03 o
9 -22 -2 1.16273 0.09 0.08 0.02 o
7 16 0 1.16244 0.02 0.02 0.01 o
16 7 0 1.16244 0.09 0.09 0.02 o
7 5 5 1.15798 0.03 0.03 0.01 o
5 7 -5 1.15798 0.00 0.00 0.02 o
7 13 3 1.15685 0.07 0.08 0.02 o
13 7 3 1.15685 1.68 1.71 0.08 o
7 -20 -3 1.15685 0.79 0.80 0.06 o
7 13 -3 1.15685 0.09 0.09 0.02 o
15 8 1 1.15629 0.51 0.52 0.05 o
8 15 -1 1.15629 0.06 0.06 0.02 o
6 11 4 1.15529 0.10 0.11 0.02 o
6 -17 -4 1.15529 0.06 0.06 0.02 o
4 17 2 1.15445 0.15 0.16 0.03 o
4 -21 -2 1.15445 1.52 1.57 0.09 o
4 8 5 1.15387 0.39 0.41 0.05 o
4 -12 -5 1.15387 0.21 0.22 0.03 o
4 18 1 1.15220 0.11 0.11 0.03 o
4 -22 -1 1.15220 0.02 0.02 0.01 o
12 5 4 1.14717 0.15 0.16 0.02 o
5 12 -4 1.14717 0.13 0.13 0.02 o
15 7 2 1.14634 0.01 0.01 0.01 o
7 15 -2 1.14634 0.41 0.43 0.04 o
12 12 0 1.14208 0.44 0.46 0.05 o
11 0 5 1.14179 0.08 0.09 0.02 o
20 1 1 1.14017 0.56 0.58 0.05 o
1 20 -1 1.14017 0.27 0.28 0.04 o
10 2 5 1.13785 0.11 0.11 0.02 o
2 10 -5 1.13785 0.00 0.00 0.00 o
0 18 3 1.13678 0.01 0.01 0.01 o
18 0 3 1.13678 0.15 0.15 0.03 o
6 16 2 1.13450 0.03 0.03 0.02 o
6 -22 -2 1.13450 0.51 0.49 0.05 o
6 7 5 1.13395 0.43 0.42 0.04 o
6 -13 -5 1.13395 1.62 1.58 0.08 o
17 2 3 1.13289 0.51 0.50 0.05 o
2 17 3 1.13289 0.96 0.93 0.06 o
2 -19 -3 1.13289 0.45 0.44 0.05 o
2 17 -3 1.13289 0.11 0.11 0.02 o
6 17 1 1.13236 2.98 2.91 0.11 o
19 3 1 1.13236 0.08 0.08 0.02 o
6 -23 -1 1.13236 0.12 0.11 0.02 o
3 19 -1 1.13236 0.07 0.07 0.02 o
1 15 4 1.13142 0.02 0.02 0.01 o
1 -16 -4 1.13142 1.47 1.43 0.07 o
9 15 0 1.13037 0.03 0.03 0.01 o
15 9 0 1.13037 0.70 0.68 0.07 o
0 21 0 1.13037 0.07 0.07 0.02 o
8 10 4 1.12759 0.22 0.21 0.03 o
8 -18 -4 1.12759 0.12 0.11 0.02 o
2 20 0 1.12654 0.95 0.91 0.06 o
20 2 0 1.12654 1.40 1.33 0.08 o
9 4 5 1.12627 0.04 0.04 0.01 o
1 11 5 1.12627 0.03 0.03 0.01 o
1 -12 -5 1.12627 0.15 0.14 0.02 o
4 9 -5 1.12627 0.61 0.58 0.04 o
12 9 3 1.12523 3.21 3.06 0.14 o
9 12 3 1.12523 2.36 2.25 0.11 o
9 -21 -3 1.12523 2.46 2.34 0.13 o
9 12 -3 1.12523 0.83 0.79 0.06 o
11 13 1 1.12471 0.02 0.02 0.01 o
11 -24 -1 1.12471 0.65 0.62 0.06 o
3 14 4 1.12379 0.00 0.00 0.00 o
11 7 4 1.12379 0.26 0.25 0.04 o
3 -17 -4 1.12379 0.97 0.93 0.06 o
7 11 -4 1.12379 0.56 0.54 0.05 o
11 12 2 1.12302 0.76 0.74 0.07 o
11 -23 -2 1.12302 0.19 0.19 0.03 o
16 4 3 1.12146 0.96 0.94 0.06 o
4 16 3 1.12146 0.68 0.66 0.05 o
4 -20 -3 1.12146 0.53 0.52 0.05 o
4 16 -3 1.12146 0.84 0.82 0.06 o
0 0 6 1.12131 1.19 1.17 0.08 o
14 10 1 1.12094 1.09 1.08 0.07 o
10 14 -1 1.12094 0.35 0.35 0.03 o
20 0 2 1.11926 0.22 0.22 0.03 o
3 10 5 1.11874 0.23 0.23 0.03 o
3 -13 -5 1.11874 1.79 1.80 0.08 o
1 1 6 1.11757 2.96 3.00 0.09 o
1 -2 -6 1.11757 0.00 0.00 0.02 o
18 5 1 1.11721 1.67 1.70 0.08 o
5 18 -1 1.11721 0.91 0.92 0.07 o
14 9 2 1.11555 0.79 0.81 0.07 o
19 2 2 1.11555 0.02 0.02 0.01 o
2 19 -2 1.11555 0.02 0.02 0.01 o
9 14 -2 1.11555 1.35 1.39 0.07 o
19 4 0 1.11530 0.00 0.00 0.01 o
4 19 0 1.11530 1.11 1.14 0.07 o
16 0 4 1.11262 0.44 0.47 0.05 o
0 3 6 1.11022 0.87 0.93 0.06 o
3 0 6 1.11022 1.43 1.52 0.08 o
5 13 4 1.10897 0.27 0.28 0.03 o
15 2 4 1.10897 0.12 0.12 0.03 o
5 -18 -4 1.10897 0.27 0.29 0.04 o
2 15 -4 1.10897 0.18 0.19 0.03 o
8 15 2 1.10823 0.06 0.07 0.02 o
8 -23 -2 1.10823 0.25 0.26 0.03 o
8 6 5 1.10772 0.16 0.17 0.02 o
6 8 -5 1.10772 2.21 2.32 0.12 o
2 2 6 1.10659 0.09 0.09 0.03 o
2 -4 -6 1.10659 0.76 0.79 0.05 o
8 16 1 1.10624 1.15 1.20 0.08 o
8 -24 -1 1.10624 0.20 0.21 0.03 o
18 4 2 1.10463 0.55 0.56 0.05 o
4 18 -2 1.10463 0.01 0.01 0.01 o
5 9 5 1.10412 0.05 0.05 0.01 o
5 -14 -5 1.10412 1.17 1.20 0.07 o
6 15 3 1.10314 0.13 0.13 0.03 o
15 6 3 1.10314 0.28 0.28 0.04 o
6 -21 -3 1.10314 1.57 1.58 0.08 o
6 15 -3 1.10314 0.00 0.00 0.00 o
14 4 4 1.09824 0.20 0.19 0.03 o
4 14 -4 1.09824 2.00 1.91 0.10 o
6 18 0 1.09728 0.18 0.17 0.03 o
18 6 0 1.09728 0.03 0.03 0.02 o
12 1 5 1.09702 0.77 0.74 0.06 o
1 12 -5 1.09702 0.07 0.07 0.02 o
1 4 6 1.09593 0.36 0.35 0.03 o
4 1 6 1.09593 0.16 0.15 0.03 o
1 -5 -6 1.09593 0.13 0.12 0.03 o
1 4 -6 1.09593 0.34 0.33 0.03 o
17 7 1 1.09558 3.59 3.48 0.19 o
7 17 -1 1.09558 0.00 0.00 0.01 o
10 9 4 1.09473 0.09 0.09 0.02 o
9 10 -4 1.09473 0.04 0.04 0.01 o
