#------------------------------------------------------------------------------
#$Date: 2015-08-08 05:21:59 +0300 (Sat, 08 Aug 2015) $
#$Revision: 153190 $
#$URL: svn://www.crystallography.net/cod/cif/7/03/55/7035520.cif $
#------------------------------------------------------------------------------
#
# This file is available in the Crystallography Open Database (COD),
# http://www.crystallography.net/
#
# All data on this site have been placed in the public domain by the
# contributors.
#
data_7035520
loop_
_publ_author_name
'Du, Xia'
'Li, Zijian'
'Liu, Yan'
'Yang, Shiping'
'Cui, Yong'
_publ_section_title
;
 Chiral porous metal-organic frameworks containing \m-oxo-bis[Ti(salan)]
 units for asymmetric cyanation of aldehydes.
;
_journal_issue                   29
_journal_name_full
'Dalton transactions (Cambridge, England : 2003)'
_journal_page_first              12999
_journal_page_last               13002
_journal_paper_doi               10.1039/c5dt01682g
_journal_volume                  44
_journal_year                    2015
_chemical_absolute_configuration rmad
_chemical_formula_moiety         'C86 H110 Cd2 N8 O15 Ti2'
_chemical_formula_sum            'C86 H110 Cd2 N8 O15 Ti2'
_chemical_formula_weight         1816.41
_space_group_crystal_system      orthorhombic
_space_group_IT_number           19
_space_group_name_Hall           'P 2ac 2ab'
_space_group_name_H-M_alt        'P 21 21 21'
_symmetry_space_group_name_Hall  'P 2ac 2ab'
_symmetry_space_group_name_H-M   'P 21 21 21'
_atom_sites_solution_hydrogens   geom
_audit_creation_date             2015-06-07
_audit_creation_method
;
Olex2 1.2
(compiled 2015.01.26 svn.r3150 for OlexSys, GUI svn.r4998)
;
_audit_update_record
;
2015-06-08 deposited with the CCDC.
2015-06-24 downloaded from the CCDC.
;
_cell_angle_alpha                90
_cell_angle_beta                 90
_cell_angle_gamma                90
_cell_formula_units_Z            4
_cell_length_a                   13.9325(12)
_cell_length_b                   26.873(2)
_cell_length_c                   27.147(2)
_cell_measurement_temperature    173(2)
_cell_volume                     10164.1(14)
_computing_molecular_graphics    'Olex2 (Dolomanov et al., 2009)'
_computing_publication_material  'Olex2 (Dolomanov et al., 2009)'
_computing_structure_refinement  'XL (Sheldrick, 2008)'
_diffrn_ambient_temperature      173.15
_diffrn_measured_fraction_theta_full 0.822
_diffrn_measured_fraction_theta_max 0.841
_diffrn_measurement_device_type  'Bruker SMART CCD area-detector'
_diffrn_radiation_type           CuK\a
_diffrn_radiation_wavelength     1.54178
_diffrn_reflns_av_R_equivalents  0.0812
_diffrn_reflns_av_unetI/netI     0.1172
_diffrn_reflns_laue_measured_fraction_full 0.822
_diffrn_reflns_laue_measured_fraction_max 0.841
_diffrn_reflns_limit_h_max       16
_diffrn_reflns_limit_h_min       -13
_diffrn_reflns_limit_k_max       31
_diffrn_reflns_limit_k_min       -31
_diffrn_reflns_limit_l_max       23
_diffrn_reflns_limit_l_min       -32
_diffrn_reflns_number            28745
_diffrn_reflns_point_group_measured_fraction_full 0.747
_diffrn_reflns_point_group_measured_fraction_max 0.765
_diffrn_reflns_theta_full        67.679
_diffrn_reflns_theta_max         66.593
_diffrn_reflns_theta_min         3.256
_exptl_absorpt_coefficient_mu    5.059
_exptl_crystal_colour            yellow
_exptl_crystal_density_diffrn    1.187
_exptl_crystal_description       block
_exptl_crystal_F_000             3768
_exptl_crystal_size_max          0.06
_exptl_crystal_size_mid          0.04
_exptl_crystal_size_min          0.03
_refine_diff_density_max         0.560
_refine_diff_density_min         -0.566
_refine_diff_density_rms         0.062
_refine_ls_abs_structure_details
;
 Flack x determined using 2773 quotients [(I+)-(I-)]/[(I+)+(I-)]
 (Parsons, Flack and Wagner, Acta Cryst. B69 (2013) 249-259).
;
_refine_ls_abs_structure_Flack   0.025(6)
_refine_ls_extinction_method     none
_refine_ls_goodness_of_fit_ref   0.893
_refine_ls_hydrogen_treatment    constr
_refine_ls_matrix_type           full
_refine_ls_number_parameters     988
_refine_ls_number_reflns         13756
_refine_ls_number_restraints     17
_refine_ls_restrained_S_all      0.895
_refine_ls_R_factor_all          0.0770
_refine_ls_R_factor_gt           0.0511
_refine_ls_shift/su_max          0.001
_refine_ls_shift/su_mean         0.000
_refine_ls_structure_factor_coef Fsqd
_refine_ls_weighting_details
'w=1/[\s^2^(Fo^2^)+(0.0294P)^2^] where P=(Fo^2^+2Fc^2^)/3'
_refine_ls_weighting_scheme      calc
_refine_ls_wR_factor_gt          0.1166
_refine_ls_wR_factor_ref         0.1307
_reflns_Friedel_coverage         0.670
_reflns_friedel_fraction_full    0.658
_reflns_friedel_fraction_max     0.675
_reflns_number_gt                9509
_reflns_number_total             13756
_reflns_threshold_expression     'I > 2\s(I)'
_cod_data_source_file            c5dt01682g2.cif
_cod_data_source_block           mof1_sq
_cod_depositor_comments
'Adding full bibliography for 7035520--7035521.cif.'
_cod_original_cell_volume        10164.2(15)
_cod_database_code               7035520
_audit_block_doi                 10.5517/cc14hyvf
_shelxl_version_number           2014/6
_shelx_space_group_comment
;
The symmetry employed for this shelxl refinement is uniquely defined
by the following loop, which should always be used as a source of
symmetry information in preference to the above space-group names.
They are only intended as comments.
;
_shelx_estimated_absorpt_t_max   0.863
_shelx_estimated_absorpt_t_min   0.751
_olex2_refinement_description
;
1. Fixed Uiso
 At 1.2 times of:
  All C(H) groups, All C(H,H) groups, All N(H) groups
 At 1.5 times of:
  All C(H,H,H) groups
2. Restrained distances
 C83-C84
 1.51 with sigma of 0.02
3. Rigid bond restraints
 O12, C83
 with sigma for 1-2 distances of 0.01 and sigma for 1-3 distances of 0.01
4. Uiso/Uaniso restraints and constraints
C83 \\sim C84: within 1.7A with sigma of 0.04 and sigma for terminal atoms of
0.08
O12 \\sim C83: within 1.7A with sigma of 0.01 and sigma for terminal atoms of
0.08
5. Rigid body (RIGU) restrains
 C83, C84
 with sigma for 1-2 distances of 0.004 and sigma for 1-3 distances of 0.004
6.a Ternary CH refined with riding coordinates:
 N1(H1), N2(H2), N5(H5), N6(H6), C1(H1A), C2(H2A), C39(H39), C40(H40)
6.b Secondary CH2 refined with riding coordinates:
 C3(H3A,H3B), C4(H4A,H4B), C5(H5A,H5B), C6(H6A,H6B), C7(H7A,H7B), C23(H23A,
 H23B), C41(H41A,H41B), C42(H42A,H42B), C43(H43A,H43B), C44(H44A,H44B),
 C45(H45A,H45B), C61(H61A,H61B)
6.c Aromatic/amide H refined with riding coordinates:
 C11(H11), C9(H9), C19(H19), C20(H20), C21(H21), C22(H22), C27(H27), C25(H25),
 C35(H35), C36(H36), C37(H37), C38(H38), C47(H47), C50(H50), C57(H57), C58(H58),
  C59(H59), C60(H60), C65(H65), C63(H63), C76(H76), C75(H75), C74(H74), C73(H73)
6.d Fitted hexagon refined as free rotating group:
 C13(C12,C11,C10,C9,C8), C24(C29,C28,C27,C26,C25), C48(C47,C46,C51,C49,C50),
 C62(C67,C66,C65,C64,C63)
6.e Idealised Me refined as rotating group:
 C77(H77A,H77B,H77C), C78(H78A,H78B,H78C), C15(H15A,H15B,H15C), C16(H16A,H16B,
 H16C), C17(H17A,H17B,H17C), C31(H31A,H31B,H31C), C32(H32A,H32B,H32C), C33(H33A,
 H33B,H33C), C53(H53A,H53B,H53C), C54(H54A,H54B,H54C), C55(H55A,H55B,H55C),
 C71(H71A,H71B,H71C), C70(H70A,H70B,H70C), C69(H69A,H69B,H69C), C80(H80A,H80B,
 H80C), C82(H82A,H82B,H82C), C84(H84A,H84B,H84C), C86(H86A,H86B,H86C)
;
_shelx_res_file
;
TITL mof1_sq in P2(1)2(1)2(1)
CELL 1.54178 13.9325 26.8735 27.1468 90 90 90
ZERR 4 0.0012 0.0021 0.0023 0 0 0
LATT -1
SYMM 0.5-X,-Y,0.5+Z
SYMM 0.5+X,0.5-Y,-Z
SYMM -X,0.5+Y,0.5-Z
SFAC C H Cd N O Ti
UNIT 344 440 8 32 60 8
DFIX 1.51 C83 C84
DELU O12 C83
SIMU 0.04 0.08 1.7 C83 C84
SIMU 0.01 0.08 1.7 O12 C83
RIGU C83 C84

L.S. 10 0 77
PLAN  20
SIZE 0.06 0.04 0.03
TEMP -100
GRID
ABIN
fmap 2
acta
MERG 2
SHEL 100 0.84
REM <olex2.extras>
REM <HklSrc "%.\\mof1_sq.hkl">
REM </olex2.extras>

WGHT    0.029400
FVAR       0.06613
CD1   3    1.307926    0.629319    1.041945    11.00000    0.07375    0.06703 =
         0.06512    0.01667   -0.02027   -0.01510
CD2   3   -0.092348    0.783795    0.862015    11.00000    0.08467    0.06855 =
         0.07152    0.02163    0.02785    0.02943
TI1   6    0.687256    0.444014    0.780858    11.00000    0.05524    0.03907 =
         0.05237   -0.00625   -0.00586    0.00342
TI2   6    0.555574    0.521488    0.696987    11.00000    0.05184    0.04242 =
         0.04618   -0.00670   -0.00163    0.00422
O2    5    0.663157    0.376571    0.768068    11.00000    0.05708    0.04023 =
         0.06244   -0.00964    0.00070    0.00132
O1    5    0.776786    0.428729    0.832541    11.00000    0.08026    0.03816 =
         0.06689   -0.00564   -0.02490    0.00063
O3    5    0.595338    0.509961    0.631751    11.00000    0.06203    0.04845 =
         0.05114   -0.00839    0.00547   -0.00767
O4    5    0.459112    0.571639    0.679868    11.00000    0.06044    0.05359 =
         0.04623   -0.00368   -0.00430    0.01337
O5    5    0.622049    0.472659    0.728645    11.00000    0.05122    0.04578 =
         0.06063   -0.01142   -0.00133    0.00564
O6    5    0.589698    0.460369    0.825027    11.00000    0.06713    0.05850 =
         0.05341   -0.00256    0.00980    0.00865
O7    5    0.643094    0.569740    0.716945    11.00000    0.06463    0.04818 =
         0.06892   -0.01104   -0.00827   -0.00455
O8    5    1.352987    0.553495    1.075835    11.00000    0.12396    0.08031 =
         0.12278    0.01597   -0.04434   -0.01332
O9    5    1.404915    0.567378    0.999910    11.00000    0.09687    0.13029 =
         0.14034    0.03548   -0.02932   -0.02854
O10   5   -0.131973    0.800527    0.783000    11.00000    0.12543    0.16826 =
         0.09019    0.04765    0.00610    0.06400
O11   5   -0.187304    0.729777    0.807637    11.00000    0.18657    0.15638 =
         0.09244    0.03917   -0.00166    0.01589
O12   5    0.024159    0.850480    0.866665    11.00000    0.16563    0.09013 =
         0.18195   -0.01771    0.08088   -0.02873
O13   5   -0.042075    0.833706    0.930790    11.00000    0.08549    0.08349 =
         0.19650    0.00928    0.02690    0.00658
O14   5   -0.232548    0.825336    0.889513    11.00000    0.07583    0.09239 =
         0.09215   -0.00994    0.00948    0.00853
O15   5   -0.355544    0.821365    0.935014    11.00000    0.10686    0.19842 =
         0.09393   -0.02214    0.01978    0.04308
N1    4    0.768330    0.514542    0.783722    11.00000    0.04698    0.05142 =
         0.06796    0.00063   -0.01098    0.00210
AFIX  13
H1    2    0.731236    0.539247    0.763812    11.00000   -1.20000
AFIX   0
N2    4    0.808919    0.431052    0.727184    11.00000    0.05305    0.04265 =
         0.06343   -0.00126   -0.00394    0.00252
AFIX  13
H2    2    0.856592    0.408577    0.743411    11.00000   -1.20000
AFIX   0
N3    4    0.682462    0.183817    0.522299    11.00000    0.08131    0.05239 =
         0.07734   -0.02615   -0.00687    0.01897
N4    4    1.187460    0.584248    1.001642    11.00000    0.07265    0.06598 =
         0.08433    0.02140   -0.03063   -0.01491
N5    4    0.444878    0.462421    0.677278    11.00000    0.05104    0.05751 =
         0.05025   -0.00387   -0.00048    0.00163
AFIX  13
H5    2    0.400381    0.477278    0.652396    11.00000   -1.20000
AFIX   0
N6    4    0.461636    0.517000    0.762727    11.00000    0.05911    0.05507 =
         0.05537    0.00374    0.00800    0.01416
AFIX  13
H6    2    0.494949    0.495823    0.787730    11.00000   -1.20000
AFIX   0
N7    4    0.610948    0.277467    0.422023    11.00000    0.10425    0.06181 =
         0.05959   -0.01403   -0.00302    0.02032
N8    4    0.039996    0.739714    0.829453    11.00000    0.08231    0.06729 =
         0.07998    0.02139    0.02536    0.03413
C1    1    0.862477    0.510231    0.760733    11.00000    0.07439    0.05026 =
         0.07047    0.01046   -0.02590   -0.00900
AFIX  13
H1A   2    0.905174    0.492660    0.784695    11.00000   -1.20000
AFIX   0
C77   1    0.576180    0.450582    0.874629    11.00000    0.10371    0.13970 =
         0.06145    0.00052   -0.00166    0.00950
AFIX 137
H77A  2    0.628056    0.465929    0.893696    11.00000   -1.50000
H77B  2    0.576495    0.414530    0.880057    11.00000   -1.50000
H77C  2    0.514422    0.464362    0.885236    11.00000   -1.50000
AFIX   0
C2    1    0.858866    0.479174    0.715245    11.00000    0.04244    0.04730 =
         0.08418    0.00348   -0.01445   -0.00944
AFIX  13
H2A   2    0.818411    0.497240    0.690627    11.00000   -1.20000
AFIX   0
C3    1    0.962003    0.471569    0.691461    11.00000    0.05860    0.09403 =
         0.10131   -0.01130    0.00864   -0.01970
AFIX  23
H3A   2    1.003848    0.454065    0.715304    11.00000   -1.20000
H3B   2    0.956004    0.450320    0.661830    11.00000   -1.20000
AFIX   0
C4    1    1.008668    0.520705    0.677091    11.00000    0.07635    0.13127 =
         0.12212   -0.01051    0.00451   -0.04010
AFIX  23
H4A   2    0.971268    0.537395    0.650851    11.00000   -1.20000
H4B   2    1.074912    0.515185    0.665083    11.00000   -1.20000
AFIX   0
C5    1    1.009247    0.553033    0.725422    11.00000    0.07797    0.11283 =
         0.12829    0.00577   -0.00474   -0.03430
AFIX  23
H5A   2    1.051784    0.536788    0.749809    11.00000   -1.20000
H5B   2    1.037287    0.585954    0.717626    11.00000   -1.20000
AFIX   0
C6    1    0.909465    0.561200    0.749488    11.00000    0.08102    0.05722 =
         0.13463    0.00739   -0.04244   -0.01932
AFIX  23
H6A   2    0.916821    0.580396    0.780384    11.00000   -1.20000
H6B   2    0.867879    0.580483    0.726904    11.00000   -1.20000
AFIX   0
C7    1    0.775681    0.406340    0.681136    11.00000    0.05619    0.04990 =
         0.07048   -0.01177    0.00649   -0.00363
AFIX  23
H7A   2    0.832292    0.399779    0.660074    11.00000   -1.20000
H7B   2    0.733504    0.429732    0.663104    11.00000   -1.20000
AFIX   0
C78   1    0.649535    0.620847    0.706465    11.00000    0.10241    0.05383 =
         0.20014    0.01910   -0.04907   -0.01921
AFIX 137
H78A  2    0.670531    0.638757    0.736008    11.00000   -1.50000
H78B  2    0.586512    0.633269    0.696180    11.00000   -1.50000
H78C  2    0.696052    0.626152    0.679901    11.00000   -1.50000
AFIX  66
C13   1    0.667830    0.344707    0.730250    11.00000    0.04850    0.04259 =
         0.06284   -0.00889   -0.00724    0.00665
C12   1    0.617440    0.300103    0.732050    11.00000    0.06362    0.03609 =
         0.05441   -0.00078   -0.00263    0.00763
C11   1    0.619997    0.267694    0.692166    11.00000    0.06318    0.04499 =
         0.06377   -0.00844   -0.00595   -0.00541
AFIX  43
H11   2    0.585558    0.237209    0.693397    11.00000   -1.20000
AFIX  65
C10   1    0.672944    0.279889    0.650482    11.00000    0.06028    0.04873 =
         0.06492   -0.01066   -0.00548    0.00827
C9    1    0.723334    0.324493    0.648681    11.00000    0.06314    0.06430 =
         0.06297   -0.01211    0.01084    0.00945
AFIX  43
H9    2    0.759521    0.332827    0.620192    11.00000   -1.20000
AFIX  65
C8    1    0.720778    0.356902    0.688565    11.00000    0.05342    0.04362 =
         0.06417   -0.00486   -0.00588    0.00204
AFIX   0
C14   1    0.555829    0.286330    0.777492    11.00000    0.07835    0.03963 =
         0.07180   -0.00096    0.00388   -0.01065
C15   1    0.475206    0.325125    0.785587    11.00000    0.06507    0.06646 =
         0.08801    0.00120    0.01779    0.00256
AFIX 137
H15A  2    0.503753    0.357253    0.794363    11.00000   -1.50000
H15B  2    0.433062    0.313949    0.812289    11.00000   -1.50000
H15C  2    0.437771    0.328729    0.755233    11.00000   -1.50000
AFIX   0
C16   1    0.619582    0.284318    0.824163    11.00000    0.09272    0.06289 =
         0.06744    0.00846   -0.00866   -0.00615
AFIX 137
H16A  2    0.660346    0.254624    0.822946    11.00000   -1.50000
H16B  2    0.578716    0.282939    0.853514    11.00000   -1.50000
H16C  2    0.660038    0.314116    0.825571    11.00000   -1.50000
AFIX   0
C17   1    0.502154    0.235077    0.772449    11.00000    0.08410    0.04645 =
         0.08601    0.00348    0.01445   -0.00550
AFIX 137
H17A  2    0.444876    0.239375    0.751933    11.00000   -1.50000
H17B  2    0.483142    0.223258    0.805177    11.00000   -1.50000
H17C  2    0.545010    0.210671    0.757097    11.00000   -1.50000
AFIX   0
C18   1    0.676887    0.246842    0.606166    11.00000    0.06418    0.05069 =
         0.05922   -0.00860   -0.00311    0.00349
C19   1    0.742076    0.250956    0.570048    11.00000    0.09311    0.06485 =
         0.09210   -0.02998    0.00697   -0.02032
AFIX  43
H19   2    0.790391    0.275684    0.573294    11.00000   -1.20000
AFIX   0
C20   1    0.743192    0.222228    0.529556    11.00000    0.09990    0.07435 =
         0.07992   -0.01412    0.01972   -0.01121
AFIX  43
H20   2    0.789198    0.229338    0.504704    11.00000   -1.20000
AFIX   0
C21   1    0.614625    0.179097    0.558465    11.00000    0.08516    0.09813 =
         0.10792   -0.04050   -0.00707   -0.02336
AFIX  43
H21   2    0.566690    0.154257    0.554632    11.00000   -1.20000
AFIX   0
C22   1    0.612014    0.207847    0.599393    11.00000    0.09230    0.08227 =
         0.09434   -0.03116    0.01269    0.00113
AFIX  43
H22   2    0.565132    0.201361    0.623979    11.00000   -1.20000
AFIX   0
C23   1    0.769925    0.533161    0.833938    11.00000    0.06871    0.04267 =
         0.06348   -0.01060   -0.01661    0.01328
AFIX  23
H23A  2    0.705247    0.530209    0.848754    11.00000   -1.20000
H23B  2    0.788491    0.568720    0.834065    11.00000   -1.20000
AFIX  66
C24   1    0.841585    0.503119    0.863723    11.00000    0.06258    0.04881 =
         0.06360   -0.01060   -0.02582    0.00920
C29   1    0.840376    0.451408    0.862812    11.00000    0.06912    0.05421 =
         0.05552   -0.00560   -0.01566    0.00361
C28   1    0.907629    0.424632    0.889790    11.00000    0.08524    0.04781 =
         0.06253   -0.00446   -0.01861    0.00574
C27   1    0.976091    0.449568    0.917679    11.00000    0.07007    0.06945 =
         0.06813    0.00252   -0.01544    0.01076
AFIX  43
H27   2    1.022055    0.431268    0.936117    11.00000   -1.20000
AFIX  65
C26   1    0.977301    0.501280    0.918590    11.00000    0.06521    0.05434 =
         0.07323   -0.00238   -0.01024   -0.00296
C25   1    0.910049    0.528056    0.891612    11.00000    0.07275    0.04772 =
         0.06177   -0.00325   -0.01573    0.00206
AFIX  43
H25   2    0.910876    0.563399    0.892235    11.00000   -1.20000
AFIX   0
C30   1    0.911909    0.365874    0.887534    11.00000    0.13799    0.04223 =
         0.10619   -0.00206   -0.05115    0.00434
C31   1    0.924946    0.348538    0.833293    11.00000    0.18405    0.05952 =
         0.13995   -0.03054   -0.01837    0.04407
AFIX 137
H31A  2    0.863112    0.350164    0.816160    11.00000   -1.50000
H31B  2    0.948738    0.314223    0.832838    11.00000   -1.50000
H31C  2    0.971205    0.370301    0.816697    11.00000   -1.50000
AFIX   0
C32   1    0.818726    0.347242    0.907462    11.00000    0.17941    0.06041 =
         0.11077    0.01707   -0.06075   -0.01037
AFIX 137
H32A  2    0.814272    0.355325    0.942590    11.00000   -1.50000
H32B  2    0.815141    0.311086    0.903129    11.00000   -1.50000
H32C  2    0.765598    0.363085    0.889749    11.00000   -1.50000
AFIX   0
C33   1    0.999162    0.345695    0.913089    11.00000    0.21498    0.06736 =
         0.24227   -0.00612   -0.13775    0.02515
AFIX 137
H33A  2    1.053799    0.367862    0.907143    11.00000   -1.50000
H33B  2    1.013815    0.312473    0.900241    11.00000   -1.50000
H33C  2    0.986838    0.343574    0.948569    11.00000   -1.50000
AFIX   0
C34   1    1.051340    0.528175    0.949107    11.00000    0.05637    0.06264 =
         0.06549    0.00253   -0.01106   -0.00392
C35   1    1.083451    0.573121    0.932748    11.00000    0.08843    0.10796 =
         0.09055    0.03420   -0.03473   -0.03690
AFIX  43
H35   2    1.059937    0.586343    0.902620    11.00000   -1.20000
AFIX   0
C36   1    1.151920    0.600215    0.960609    11.00000    0.09728    0.08470 =
         0.10795    0.01554   -0.05719   -0.03036
AFIX  43
H36   2    1.172642    0.631603    0.948525    11.00000   -1.20000
AFIX   0
C37   1    1.150460    0.540528    1.018975    11.00000    0.07158    0.07587 =
         0.06184    0.01156   -0.01770   -0.00700
AFIX  43
H37   2    1.171705    0.528339    1.049961    11.00000   -1.20000
AFIX   0
C38   1    1.083771    0.513728    0.993131    11.00000    0.07600    0.05918 =
         0.08390    0.01419   -0.02001   -0.01163
AFIX  43
H38   2    1.059699    0.483775    1.007017    11.00000   -1.20000
AFIX   0
C39   1    0.387415    0.447568    0.719451    11.00000    0.05616    0.05758 =
         0.07232    0.00034    0.01736    0.00120
AFIX  13
H39   2    0.426178    0.423583    0.739386    11.00000   -1.20000
AFIX   0
C40   1    0.369034    0.492934    0.750904    11.00000    0.04113    0.05710 =
         0.08182    0.00116    0.00888    0.00767
AFIX  13
H40   2    0.328694    0.516894    0.731779    11.00000   -1.20000
AFIX   0
C41   1    0.313635    0.477599    0.798407    11.00000    0.10199    0.07376 =
         0.09293   -0.00869    0.04443   -0.00467
AFIX  23
H41A  2    0.353150    0.454594    0.818408    11.00000   -1.20000
H41B  2    0.299136    0.507395    0.818520    11.00000   -1.20000
AFIX   0
C42   1    0.220200    0.451941    0.782729    11.00000    0.07428    0.11134 =
         0.14567   -0.01915    0.05134   -0.01289
AFIX  23
H42A  2    0.183419    0.442580    0.812523    11.00000   -1.20000
H42B  2    0.180781    0.475698    0.763556    11.00000   -1.20000
AFIX   0
C43   1    0.237489    0.406609    0.752439    11.00000    0.09145    0.07813 =
         0.21948   -0.02262    0.09087   -0.02009
AFIX  23
H43A  2    0.175572    0.391429    0.742728    11.00000   -1.20000
H43B  2    0.274396    0.381831    0.771661    11.00000   -1.20000
AFIX   0
C44   1    0.295179    0.422297    0.705636    11.00000    0.06055    0.08510 =
         0.11645   -0.01889    0.01331   -0.00558
AFIX  23
H44A  2    0.309427    0.392447    0.685554    11.00000   -1.20000
H44B  2    0.255747    0.445169    0.685444    11.00000   -1.20000
AFIX   0
C45   1    0.491853    0.418840    0.653948    11.00000    0.06186    0.04148 =
         0.05721   -0.00534    0.00434   -0.00836
AFIX  23
H45A  2    0.441923    0.393702    0.646597    11.00000   -1.20000
H45B  2    0.536594    0.403910    0.678119    11.00000   -1.20000
AFIX  66
C48   1    0.608378    0.396690    0.529390    11.00000    0.06918    0.04816 =
         0.05524   -0.00689   -0.00223    0.01148
C47   1    0.553217    0.391231    0.571711    11.00000    0.06518    0.04723 =
         0.05783   -0.01043   -0.00842   -0.00640
AFIX  43
H47   2    0.518884    0.361215    0.577299    11.00000   -1.20000
AFIX  65
C46   1    0.548291    0.429690    0.605856    11.00000    0.05571    0.04334 =
         0.05009   -0.00680    0.00618    0.00252
C51   1    0.598525    0.473609    0.597681    11.00000    0.06186    0.05030 =
         0.04802   -0.00536   -0.00814    0.00766
C49   1    0.653686    0.479069    0.555360    11.00000    0.05907    0.05456 =
         0.04576   -0.00986   -0.00110    0.00635
C50   1    0.658613    0.440610    0.521214    11.00000    0.06079    0.06347 =
         0.04825   -0.00708    0.00027    0.00223
AFIX  43
H50   2    0.696313    0.444342    0.492290    11.00000   -1.20000
AFIX   0
C52   1    0.710543    0.527406    0.545710    11.00000    0.08214    0.05538 =
         0.05790   -0.00335    0.00785   -0.01019
C53   1    0.767692    0.526022    0.496641    11.00000    0.08951    0.08049 =
         0.07314   -0.00451    0.02194   -0.01509
AFIX 137
H53A  2    0.817202    0.500188    0.498521    11.00000   -1.50000
H53B  2    0.798082    0.558421    0.491046    11.00000   -1.50000
H53C  2    0.723871    0.518583    0.469380    11.00000   -1.50000
AFIX   0
C54   1    0.647593    0.573451    0.545133    11.00000    0.10523    0.06307 =
         0.07268    0.00590    0.00908    0.00449
AFIX 137
H54A  2    0.606143    0.572747    0.515975    11.00000   -1.50000
H54B  2    0.688133    0.603236    0.544146    11.00000   -1.50000
H54C  2    0.607832    0.574121    0.574904    11.00000   -1.50000
AFIX   0
C55   1    0.786324    0.536149    0.586673    11.00000    0.05117    0.10145 =
         0.07808   -0.01638   -0.00571   -0.01537
AFIX 137
H55A  2    0.754148    0.538196    0.618711    11.00000   -1.50000
H55B  2    0.820612    0.567319    0.580233    11.00000   -1.50000
H55C  2    0.832085    0.508456    0.586954    11.00000   -1.50000
AFIX   0
C56   1    0.610706    0.355199    0.493281    11.00000    0.07151    0.05599 =
         0.04983   -0.00327    0.00142    0.00593
C57   1    0.545230    0.317446    0.493575    11.00000    0.07627    0.07090 =
         0.07091   -0.02296    0.01055   -0.01316
AFIX  43
H57   2    0.496513    0.317640    0.518058    11.00000   -1.20000
AFIX   0
C58   1    0.546623    0.278916    0.459827    11.00000    0.07766    0.06948 =
         0.07597   -0.02338    0.00046   -0.01272
AFIX  43
H58   2    0.501394    0.252667    0.463086    11.00000   -1.20000
AFIX   0
C59   1    0.671332    0.314570    0.420540    11.00000    0.09711    0.07169 =
         0.06608   -0.01822    0.00861   -0.00009
AFIX  43
H59   2    0.714653    0.315742    0.393540    11.00000   -1.20000
AFIX   0
C60   1    0.677484    0.352437    0.455131    11.00000    0.08280    0.07054 =
         0.07889   -0.03046    0.02206   -0.00682
AFIX  43
H60   2    0.727232    0.376500    0.452820    11.00000   -1.20000
AFIX   0
C61   1    0.450942    0.567212    0.783882    11.00000    0.08411    0.06299 =
         0.05202   -0.00540   -0.00461    0.01527
AFIX  23
H61A  2    0.514956    0.582976    0.786542    11.00000   -1.20000
H61B  2    0.423916    0.564455    0.817499    11.00000   -1.20000
AFIX  66
C62   1    0.386543    0.599712    0.753052    11.00000    0.05712    0.04618 =
         0.04956   -0.00471   -0.00576    0.00493
C67   1    0.392294    0.600122    0.701936    11.00000    0.05395    0.04647 =
         0.05290   -0.00851    0.00196   -0.00010
C66   1    0.327765    0.628291    0.674599    11.00000    0.07511    0.04700 =
         0.05820   -0.00229   -0.00333    0.00539
C65   1    0.257484    0.656052    0.698378    11.00000    0.06763    0.05449 =
         0.06128   -0.00940   -0.00692    0.01423
AFIX  43
H65   2    0.213381    0.675304    0.679695    11.00000   -1.20000
AFIX  65
C64   1    0.251732    0.655643    0.749494    11.00000    0.06674    0.05183 =
         0.06012   -0.00562    0.01015    0.01292
C63   1    0.316261    0.627474    0.776832    11.00000    0.05620    0.06018 =
         0.05179   -0.00222    0.00625    0.01392
AFIX  43
H63   2    0.312329    0.627195    0.811767    11.00000   -1.20000
AFIX   0
C68   1    0.333959    0.627117    0.617980    11.00000    0.10204    0.07206 =
         0.05453   -0.01220   -0.00641    0.02711
C71   1    0.317338    0.572375    0.599385    11.00000    0.18636    0.10731 =
         0.08263   -0.04280   -0.04577    0.02433
AFIX 137
H71A  2    0.366787    0.550543    0.613242    11.00000   -1.50000
H71B  2    0.321018    0.571576    0.563343    11.00000   -1.50000
H71C  2    0.253850    0.560891    0.609980    11.00000   -1.50000
AFIX   0
C70   1    0.430529    0.651224    0.600041    11.00000    0.14225    0.09868 =
         0.06029    0.00163    0.00663    0.05105
AFIX 137
H70A  2    0.436435    0.684794    0.613811    11.00000   -1.50000
H70B  2    0.430732    0.653100    0.563989    11.00000   -1.50000
H70C  2    0.484673    0.630818    0.611129    11.00000   -1.50000
AFIX   0
C69   1    0.250935    0.659982    0.595920    11.00000    0.13086    0.13064 =
         0.07822   -0.00265   -0.01951    0.06171
AFIX 137
H69A  2    0.188777    0.645078    0.604155    11.00000   -1.50000
H69B  2    0.257839    0.661752    0.560037    11.00000   -1.50000
H69C  2    0.254490    0.693583    0.609830    11.00000   -1.50000
AFIX   0
C72   1    0.177630    0.684959    0.775540    11.00000    0.06523    0.05159 =
         0.07166   -0.01232    0.00519    0.00987
C76   1    0.134626    0.667194    0.818688    11.00000    0.13783    0.06459 =
         0.11104    0.03763    0.06019    0.03605
AFIX  43
H76   2    0.154165    0.636077    0.831924    11.00000   -1.20000
AFIX   0
C75   1    0.065461    0.693852    0.841801    11.00000    0.09288    0.07747 =
         0.10085    0.02012    0.03480    0.04074
AFIX  43
H75   2    0.033034    0.678657    0.868660    11.00000   -1.20000
AFIX   0
C74   1    0.082353    0.758342    0.788559    11.00000    0.07289    0.04860 =
         0.09153    0.00613    0.02453    0.01480
AFIX  43
H74   2    0.065142    0.790807    0.777892    11.00000   -1.20000
AFIX   0
C73   1    0.147849    0.732752    0.762395    11.00000    0.08159    0.05924 =
         0.07746    0.01901    0.01315    0.01204
AFIX  43
H73   2    0.174846    0.747769    0.733905    11.00000   -1.20000
AFIX   0
C79   1    1.392848    0.538427    1.038025    11.00000    0.08861    0.08686 =
         0.15178    0.00512   -0.05815   -0.00628
C80   1    1.438508    0.484675    1.033545    11.00000    0.11232    0.15310 =
         0.17739    0.01916   -0.03327    0.02680
AFIX 137
H80A  2    1.407931    0.466685    1.006345    11.00000   -1.50000
H80B  2    1.428359    0.466415    1.064356    11.00000   -1.50000
H80C  2    1.507500    0.487648    1.027159    11.00000   -1.50000
AFIX   0
C81   1   -0.172943    0.760486    0.776843    11.00000    0.08383    0.15273 =
         0.12175    0.00044    0.02282    0.02878
C82   1   -0.214547    0.753846    0.723588    11.00000    0.31125    0.23078 =
         0.26579    0.10461   -0.16683   -0.09911
AFIX 137
H82A  2   -0.211464    0.785662    0.706017    11.00000   -1.50000
H82B  2   -0.281475    0.742823    0.725657    11.00000   -1.50000
H82C  2   -0.176710    0.728903    0.705800    11.00000   -1.50000
AFIX   0
C83   1    0.024147    0.854760    0.912754    11.00000    0.13476    0.07745 =
         0.15082   -0.00964    0.09830   -0.01649
C84   1    0.097022    0.889124    0.943583    11.00000    0.13840    0.13659 =
         0.19823   -0.04962    0.05198   -0.00665
AFIX 137
H84A  2    0.079114    0.888538    0.978488    11.00000   -1.50000
H84B  2    0.093843    0.923366    0.931272    11.00000   -1.50000
H84C  2    0.162537    0.876419    0.939782    11.00000   -1.50000
AFIX   0
C85   1   -0.313854    0.811923    0.896454    11.00000    0.08030    0.09030 =
         0.05731    0.00061    0.00434    0.03372
C86   1   -0.368251    0.780340    0.854549    11.00000    0.09644    0.16887 =
         0.14486    0.03761    0.00476    0.01818
AFIX 137
H86A  2   -0.339459    0.787513    0.822386    11.00000   -1.50000
H86B  2   -0.436313    0.789529    0.854015    11.00000   -1.50000
H86C  2   -0.362114    0.744742    0.861723    11.00000   -1.50000
AFIX   0
HKLF 4

REM  mof1_sq in P2(1)2(1)2(1)
REM R1 =  0.0511 for    9509 Fo > 4sig(Fo)  and  0.0770 for all   13756 data
REM    988 parameters refined using     17 restraints

END

WGHT      0.0293      0.0000

REM Highest difference peak  0.560,  deepest hole -0.566,  1-sigma level  0.062
Q1    1   1.3424  0.6075  1.0207  11.00000  0.05    0.56
Q2    1   1.3192  0.6015  1.0577  11.00000  0.05    0.47
Q3    1  -0.1210  0.7561  0.8415  11.00000  0.05    0.43
Q4    1   1.3085  0.6547  1.0371  11.00000  0.05    0.40
Q5    1  -0.0888  0.7593  0.8809  11.00000  0.05    0.38
Q6    1  -0.0867  0.8081  0.8504  11.00000  0.05    0.37
Q7    1  -0.0498  0.8309  0.8642  11.00000  0.05    0.36
Q8    1   1.3547  0.6792  1.0482  11.00000  0.05    0.35
Q9    1   0.6912  0.4210  0.7673  11.00000  0.05    0.34
Q10   1   0.5941  0.2916  0.3612  11.00000  0.05    0.33
Q11   1   0.6898  0.2020  0.4698  11.00000  0.05    0.32
Q12   1  -0.0753  0.8564  0.8978  11.00000  0.05    0.32
Q13   1  -0.1558  0.7719  0.8517  11.00000  0.05    0.32
Q14   1  -0.0963  0.8598  0.8508  11.00000  0.05    0.32
Q15   1  -0.0927  0.8084  0.8986  11.00000  0.05    0.31
Q16   1   0.6800  0.4125  0.7779  11.00000  0.05    0.31
Q17   1  -0.0765  0.8529  0.8184  11.00000  0.05    0.31
Q18   1  -0.1292  0.8385  0.8756  11.00000  0.05    0.29
Q19   1   1.2669  0.6781  1.0432  11.00000  0.05    0.28
Q20   1  -0.2132  0.8001  0.9118  11.00000  0.05    0.28
;
_shelx_res_checksum              65433
_shelx_fab_checksum              91428
_shelx_fab_file
;
    1    1    0     -0.04    -23.97
    2    1    0     23.40     -0.02
    2    0    0      2.13      0.00
    2    2    0      2.03      0.07
    3    2    0      0.03     -6.91
    1    3    0      0.49    -24.55
    2    3    0     26.78      0.36
    3    3    0      0.13    -36.25
    4    3    0      1.42      0.03
    4    1    0     -3.42      0.10
    0    4    0    -38.52      1.78
    4    0    0    -14.84     -0.01
    2    4    0    -16.80      0.03
    4    4    0      0.26      0.22
    5    4    0      0.00     -2.83
    5    2    0      0.06      8.01
    5    1    0      0.08      8.48
    3    5    0     -0.02     12.83
    4    5    0      3.75     -0.08
    5    5    0     -0.04     -1.57
    5    6    0     -0.07     -6.49
    2    6    0     -1.46      0.22
    6    2    0      3.95     -0.02
    0    6    0     21.69     -1.94
    1    6    0     -1.23     -0.93
    3    6    0     -0.03     -6.33
    4    6    0     -7.35     -0.12
    6    6    0     -0.64      0.02
    7    6    0      0.04     -1.41
    5    7    0      0.04     -2.20
    3    7    0     -0.10     -2.69
    4    7    0     -3.70     -0.03
    6    7    0      0.89      0.02
    7    7    0     -0.10     -0.01
    8    7    0      3.20      0.01
    8    6    0     -0.30     -0.01
    8    5    0     -0.44     -0.11
    2    8    0     -6.89     -0.14
    3    8    0     -0.11      5.78
    4    8    0      5.90      0.04
    6    8    0     -0.16     -0.03
    7    8    0      0.01     -0.94
    8    8    0      2.12     -0.04
    9    8    0      0.00     -2.00
    9    7    0     -0.07     -0.32
    9    6    0      0.00     -0.24
    9    5    0     -0.03      2.76
    2    9    0      0.75      0.11
    3    9    0      0.06     -3.10
    4    9    0     -5.50      0.00
    5    9    0      0.00      0.47
    6    9    0     -1.55     -0.04
    7    9    0      0.02     -1.81
    8    9    0     -2.64     -0.05
    9    9    0      0.03     -2.69
   10    9    0     -0.89      0.00
   10    8    0     -0.71     -0.01
   10    7    0     -1.73     -0.02
   10    6    0      0.22      0.01
   10    5    0     -2.74      0.04
   10    4    0     -0.46     -0.05
    3   10    0      0.07     -0.50
    2   10    0      2.59      0.10
    1   10    0     -0.04      0.80
    4   10    0     -6.32      0.04
    6   10    0     -0.56      0.04
    7   10    0      0.02     -1.95
    8   10    0      0.77      0.02
    9   10    0      0.04      0.87
   10   10    0      1.83      0.03
   11   10    0     -0.02     -1.63
   11    9    0      0.00      1.48
   11    8    0     -0.03      1.48
   11    7    0      0.01      0.19
   11    6    0     -0.01      3.74
   11    5    0      0.04      0.04
   11    4    0      0.06      1.34
   11    3    0     -0.06     -0.40
    3   11    0     -0.05      5.08
    2   11    0     -5.99     -0.12
    1   11    0     -0.16     -0.14
    5   11    0      0.09     -0.46
    6   11    0      0.34     -0.08
    7   11    0     -0.04     -2.02
    8   11    0     -0.60      0.04
    9   11    0      0.00      0.07
   10   11    0      2.30     -0.05
   11   11    0     -0.05      0.37
   12   11    0     -0.21      0.00
   12   10    0      0.20     -0.01
   12    9    0      1.69      0.00
   12    8    0      0.91     -0.02
   12    7    0      0.59     -0.02
   12    6    0     -0.73      0.01
   12    5    0      0.41      0.00
    3   12    0      0.08     -4.56
    2   12    0      6.10      0.08
    1   12    0      0.15     -0.22
    0   12    0     -2.58      0.23
    6   12    0      1.88      0.03
    7   12    0     -0.25     -0.40
    8   12    0     -0.88     -0.04
    9   12    0     -0.01      1.05
   10   12    0     -0.62     -0.01
   11   12    0      0.03     -0.62
   12   12    0      1.64      0.04
   13   12    0     -0.01     -3.33
   13   11    0      0.01      1.91
   13    9    0      0.01     -1.73
   13    8    0     -0.09      1.46
   13    7    0     -0.02      0.31
    6   13    0      1.31      0.01
    5   13    0      0.04      1.58
    4   13    0     -1.26      0.00
    3   13    0      0.01     -1.58
    2   13    0      0.93      0.14
    1   13    0      0.03      4.09
    7   13    0      0.02     -0.83
    8   13    0      0.29      0.04
    9   13    0     -0.02      1.57
   10   13    0     -0.33     -0.01
   11   13    0     -0.03      0.92
   12   13    0     -1.10     -0.02
   13   13    0      0.02     -0.99
   14   13    0      0.93     -0.01
   14   12    0      2.35     -0.03
   14   11    0     -0.83      0.01
    9   14    0     -0.01     -1.54
   14    9    0     -1.66      0.01
   14    8    0      0.41      0.01
   14    7    0      0.12      0.01
    7   14    0      0.03      1.72
    6   14    0     -2.60     -0.06
   14    6    0     -0.23     -0.01
    5   14    0      0.07     -0.20
    4   14    0      4.70      0.06
    3   14    0      0.03      6.28
    2   14    0      3.28      0.13
    1   14    0     -0.08      0.35
    0   14    0      6.57     -0.06
    8   14    0     -0.60     -0.01
   10   14    0      0.52     -0.05
   11   14    0      0.04     -2.52
   12   14    0      3.82      0.02
   13   14    0      0.00      0.58
   14   14    0     -0.37      0.01
   15   13    0      0.00      0.33
   15   12    0      0.03     -1.28
   15   11    0     -0.03      0.81
   10   15    0      1.14      0.03
   15   10    0     -0.01     -0.18
    8   15    0      0.59      0.02
   15    8    0      0.00     -0.15
    7   15    0      0.03      1.60
   15    7    0     -0.02      0.49
   15    5    0     -0.02     -1.01
    5   15    0     -0.09      0.72
    4   15    0     -0.87     -0.01
    3   15    0     -0.03      1.35
    2   15    0      3.32      0.00
    1   15    0      0.07      2.63
    9   15    0     -0.02     -2.14
   11   15    0      0.06     -0.50
   12   15    0      1.88      0.00
   13   15    0     -0.02     -0.49
   10   16    0     -1.01      0.00
    9   16    0      0.00     -0.32
    8   16    0     -1.92      0.00
   16    5    0     -0.23     -0.02
    5   16    0      0.00      1.87
    4   16    0     -1.66      0.09
   16    4    0      1.64     -0.02
   16    3    0     -0.52      0.02
    3   16    0      0.01     -0.86
    2   16    0     -1.50      0.01
    1   16    0     -0.04      1.64
    7   16    0      0.00     -1.28
   11   16    0     -0.04      3.40
   12   16    0     -1.40     -0.01
   13   16    0      0.02     -0.56
   10   17    0     -0.45     -0.02
    9   17    0      0.01      3.09
    8   17    0     -1.28     -0.03
    7   17    0     -0.05      1.65
    6   17    0     -0.90      0.06
    5   17    0      0.24     -0.17
    4   17    0      0.21      0.01
    3   17    0     -0.02     -1.16
    2   17    0     -0.88      0.08
    1   17    0     -0.02     -5.17
   11   17    0      0.01      1.75
   12   17    0      2.19     -0.04
    9   18    0      0.01     -0.42
    8   18    0      2.13      0.05
    7   18    0      0.02     -1.07
    6   18    0      2.44     -0.01
    5   18    0      0.05     -1.23
    4   18    0     -3.47      0.04
    3   18    0     -0.08     -1.85
    2   18    0     -2.63     -0.12
   10   19    0     -2.66      0.00
    9   19    0      0.01     -2.35
    8   19    0     -1.73      0.05
    7   19    0     -0.01     -0.20
    6   19    0     -2.95      0.02
    5   19    0      0.01      0.73
    4   19    0      1.02      0.02
    3   19    0      0.02     -0.99
    2   19    0      0.47      0.01
   10   20    0     -2.14     -0.01
    9   20    0      0.01      0.16
    8   20    0      0.25     -0.01
    7   20    0      0.06      2.66
    6   20    0     -0.20      0.01
    5   20    0     -0.02      0.06
    4   20    0     -1.97      0.01
    3   20    0     -0.02     -2.58
    2   20    0      0.10      0.04
   11   20    0     -0.01      0.71
   12   20    0     -1.10     -0.01
   10   21    0      1.71     -0.01
    9   21    0     -0.04      0.37
    8   21    0      3.36      0.04
    7   21    0     -0.03     -1.06
    6   21    0      1.49     -0.03
    5   21    0     -0.01     -1.69
    4   21    0     -0.44      0.00
    3   21    0     -0.05     -1.56
    1   21    0     -0.06      0.30
    2   21    0      0.47     -0.02
   11   21    0     -0.03     -0.77
   12   21    0     -1.67      0.02
   10   22    0      0.15     -0.02
    9   22    0      0.02     -0.06
    8   22    0      0.96     -0.01
    7   22    0      0.00     -3.30
    6   22    0     -0.93      0.01
    5   22    0     -0.01     -0.84
    4   22    0     -0.31      0.01
    3   22    0      0.04      2.22
    2   22    0     -2.54      0.03
    1   22    0      0.06      0.23
    0   22    0     -0.59     -0.03
   11   22    0      0.00      2.99
   12   22    0      0.37      0.03
   10   23    0     -0.42      0.02
    9   23    0     -0.02     -1.12
    8   23    0      0.08      0.01
    7   23    0      0.02      1.06
    6   23    0      0.17      0.00
    5   23    0      0.00      1.42
    4   23    0     -1.78     -0.03
    3   23    0      0.02     -1.62
    2   23    0      0.94      0.00
    1   23    0     -0.02     -1.56
   11   23    0     -0.02     -0.47
   10   24    0      0.90     -0.01
    9   24    0     -0.01      1.65
    8   24    0      0.38      0.00
    7   24    0     -0.02      1.15
    6   24    0     -1.38      0.00
    5   24    0      0.04      0.52
    4   24    0      0.42      0.00
    3   24    0      0.03     -1.63
    2   24    0      1.16      0.03
    1   24    0      0.03     -0.27
    0   24    0      0.42     -0.01
   10   25    0      0.44     -0.02
    9   25    0     -0.02     -2.00
    8   25    0     -1.11      0.02
    7   25    0      0.03     -0.19
    6   25    0     -1.06      0.03
    5   25    0     -0.02     -1.42
    4   25    0      0.65     -0.01
    3   25    0     -0.01      3.21
    2   25    0      0.83      0.04
    1   25    0      0.03     -0.78
    9   26    0      0.00     -1.14
    8   26    0      0.08      0.00
    7   26    0     -0.02      0.38
    6   26    0     -1.85      0.00
    5   26    0      0.00      2.57
    4   26    0      0.36      0.01
    3   26    0     -0.04     -1.15
    2   26    0     -0.87      0.02
    1   26    0      0.03      1.09
    0   26    0      0.87      0.03
    9   27    0      0.01     -0.46
    8   27    0      1.07     -0.02
    7   27    0     -0.01      0.76
    6   27    0      0.55     -0.04
    5   27    0      0.00      0.49
    4   27    0     -1.96      0.04
    3   27    0      0.03     -0.53
    2   27    0      0.35      0.01
    1   27    0      0.03      0.45
    8   28    0     -1.13      0.02
    7   28    0      0.01      0.08
    6   28    0     -0.02      0.01
    5   28    0      0.03     -0.73
    4   28    0      1.92      0.00
    3   28    0      0.00     -1.01
    2   28    0     -0.47     -0.01
    1   28    0     -0.04      0.24
    0   28    0     -2.12     -0.02
    7   29    0      0.01      0.57
    6   29    0      0.55     -0.02
    5   29    0      0.01     -1.31
    4   29    0     -1.96      0.00
    3   29    0      0.03      0.39
    2   29    0     -1.08     -0.01
    1   29    0     -0.04      0.00
    6   30    0     -1.14      0.02
    5   30    0      0.00      1.18
    4   30    0      1.38     -0.02
    3   30    0     -0.01      0.93
    2   30    0     -1.06      0.03
    1   30    0      0.03      1.57
    0   30    0     -0.61     -0.05
    4   31    0      1.54     -0.02
    3   31    0      0.00      1.85
    2   31    0     -1.31     -0.01
    1   31    0     -0.02     -1.17
    2   32    0     -0.60     -0.01
    1    1    1     72.53     53.51
    2    0    1     -0.01     23.90
    1    2    1     36.65     11.07
    2    2    1     25.35    -27.37
    3    2    1      5.63      4.33
    3    0    1      0.00    -19.05
    1    3    1    -66.84     -0.23
    2    3    1     -9.92      0.41
    3    3    1     16.13      2.05
    4    3    1      0.29     -0.54
    4    1    1     -2.60      7.71
    4    0    1      0.01     20.85
    3    4    1      6.86     13.10
    4    4    1      6.38    -10.89
    5    3    1      3.43      0.03
    5    2    1     -1.41      0.09
    5    1    1     -2.01      2.38
    0    5    1     -3.69    -18.76
    5    0    1      0.00     -2.48
    2    5    1      6.13     -8.62
    3    5    1     -8.09     -7.68
    4    5    1      6.80     -5.63
    5    5    1     -6.34      0.61
    5    6    1     -0.54     -1.07
    6    5    1      0.78      0.08
    6    4    1     -0.10      1.40
    6    2    1      0.59      2.98
    3    6    1     -4.97     -5.26
    4    6    1     -1.74     -0.90
    6    6    1     -0.64     -0.09
    7    6    1      6.38      0.73
    4    7    1      2.72     -2.31
    3    7    1      1.15      3.13
    7    3    1      2.80     -2.86
    7    2    1     -2.59      0.44
    2    7    1     -6.66     -1.74
    1    7    1    -10.08      4.40
    0    7    1      0.81     -0.42
    5    7    1     -0.22     -1.26
    6    7    1      0.92     -0.71
    7    7    1      1.10      1.27
    8    7    1     -0.37     -0.59
    8    6    1      2.76      0.16
    8    5    1     -1.99     -1.08
    4    8    1     -2.10     -3.41
    8    3    1      0.62      4.05
    3    8    1     -5.51     -2.77
    8    2    1     -2.43     -2.02
    0    8    1      5.78     -0.06
    8    0    1      0.00      2.55
    2    8    1     -0.46     -9.88
    5    8    1     -2.93     -2.00
    6    8    1      1.53     -0.51
    7    8    1     -2.06     -2.61
    8    8    1     -1.38      1.49
    9    8    1     -1.19      3.91
    9    7    1      4.30     -0.98
    9    6    1     -1.73      1.02
    9    5    1     -3.58      0.55
    3    9    1     -1.42     -3.85
    9    2    1      1.34      1.02
    2    9    1      2.49      1.11
    4    9    1     -3.07      4.38
    5    9    1     -1.40      1.21
    6    9    1      0.19     -2.02
    7    9    1     -2.76     -0.71
    8    9    1     -0.95     -1.80
    9    9    1      4.16      0.83
   10    9    1      2.96     -1.07
   10    8    1     -0.58     -2.41
   10    7    1      1.33      1.94
   10    6    1     -0.32      0.96
   10    5    1     -0.66      1.43
   10    4    1     -0.07      0.28
    3   10    1      0.07      3.93
    2   10    1     -1.12      4.87
    1   10    1     -3.81     -3.41
   10    1    1      0.34     -0.55
    0   10    1      0.11     -0.02
    4   10    1      2.16      0.06
    5   10    1     -1.22     -1.13
    6   10    1      0.43     -1.27
    7   10    1     -1.15      0.04
    8   10    1     -1.03      0.74
    9   10    1     -0.06      1.03
   10   10    1      0.94     -4.06
   11   10    1     -0.72     -1.84
   11    9    1     -0.89     -0.91
   11    8    1      0.94      0.88
   11    7    1     -2.01     -0.49
   11    6    1     -0.47     -0.22
   11    5    1      1.17     -0.15
    3   11    1      0.30      0.64
    2   11    1      1.55     -2.23
    1   11    1      4.25     -1.34
    0   11    1      0.03      2.01
    5   11    1     -1.86     -0.94
    6   11    1     -0.35      0.31
    7   11    1      0.12     -2.13
    8   11    1     -1.69      1.71
    9   11    1      2.64      0.80
   10   11    1      0.38     -0.46
   11   11    1     -0.70      1.08
   12   11    1      0.32     -0.78
   12   10    1     -1.41      2.09
   12    9    1     -0.01      1.11
   12    8    1     -0.67     -0.71
   12    7    1     -0.08      0.99
   12    6    1      0.23      0.91
   12    5    1     -0.40      0.52
    3   12    1      1.77     -0.75
    2   12    1      0.39     -1.82
    1   12    1      1.00      2.04
    0   12    1     -1.77      0.03
    6   12    1     -0.12     -2.31
    7   12    1     -0.14     -0.57
    8   12    1     -0.81      1.23
    9   12    1      2.49      0.48
   10   12    1      0.49      0.93
   11   12    1      0.01      0.06
   12   12    1      1.22      0.30
   13   12    1     -1.44      0.36
   13   11    1     -0.01      0.73
   11   13    1      1.24      0.07
   13   10    1      1.74     -0.50
   13    9    1     -1.52     -0.43
    8   13    1     -0.04     -0.83
   13    8    1     -1.58      0.05
    6   13    1      0.53      1.85
    5   13    1      1.35     -2.19
    4   13    1      2.46     -1.87
    3   13    1      6.45      1.77
    2   13    1     -4.20      4.32
    1   13    1      1.98     -2.17
    0   13    1      0.06     -1.85
    7   13    1     -0.37      0.43
    9   13    1     -0.54      0.98
   10   13    1     -0.67     -0.91
   12   13    1     -1.59     -2.55
   13   13    1      2.92     -0.54
   14   13    1     -0.78     -0.59
   14   12    1      0.89      1.51
   14   11    1     -0.60     -2.21
   14   10    1     -0.26     -0.42
   10   14    1      0.78     -0.79
    8   14    1      0.53     -1.14
   14    6    1     -0.75      0.03
    5   14    1     -2.80     -0.54
    4   14    1      2.33      0.87
    3   14    1      1.08     -1.10
    2   14    1     -1.24      2.87
    1   14    1      0.79      0.44
    0   14    1      1.29      0.11
    9   14    1     -0.71     -0.26
   11   14    1     -0.61     -0.07
   12   14    1      0.74     -1.31
   13   14    1      1.49     -0.41
   14   14    1      0.19      0.87
   15   13    1      1.08      0.32
   15   12    1      0.01      0.29
   15   11    1      0.59     -0.73
   15   10    1     -0.79     -0.33
   10   15    1     -1.31     -1.61
   15    8    1      0.05      1.14
    8   15    1     -0.21      2.43
    4   15    1     -0.32      0.15
    3   15    1      0.00      1.15
    2   15    1      0.72      2.10
    1   15    1      3.09      1.55
    0   15    1     -0.03      1.45
    7   15    1     -3.72     -1.04
    9   15    1     -1.08     -0.03
   11   15    1      1.97     -0.80
   12   15    1      1.35      1.67
   13   15    1     -1.96     -0.15
   14   15    1      0.35     -0.25
   10   16    1      2.17      1.58
    9   16    1      1.62     -0.50
    8   16    1     -0.82      0.73
   16    7    1      0.17     -0.35
    7   16    1     -0.51      0.49
    5   16    1      0.29      0.94
    3   16    1      2.67      3.67
   16    3    1      0.21     -0.24
    2   16    1      1.70      1.30
    1   16    1      0.00      0.00
    0   16    1      3.34      0.05
   11   16    1      2.50      1.19
   12   16    1      1.22     -0.83
   13   16    1     -1.08     -0.29
   10   17    1      1.63      0.08
    9   17    1     -2.09     -0.58
    8   17    1      0.96     -1.44
    7   17    1      3.79      0.43
    6   17    1     -0.26     -0.59
    5   17    1     -0.02      1.06
    4   17    1      0.17      0.12
    3   17    1     -0.88      0.47
    2   17    1      1.81     -1.29
    1   17    1     -3.56      2.83
    0   17    1     -0.03      2.69
   11   17    1     -2.24      0.72
   12   17    1     -0.39     -1.11
   10   18    1     -2.08      1.55
    9   18    1     -1.74     -1.31
    8   18    1     -0.69      0.12
    7   18    1     -1.93      0.58
    6   18    1     -0.68      0.86
    5   18    1     -1.55     -1.67
    4   18    1     -0.90     -0.49
    3   18    1     -0.81     -0.14
    2   18    1      0.14     -3.80
    1   18    1      0.97      0.62
   10   19    1     -1.37     -0.62
    9   19    1     -2.02      1.35
    8   19    1      0.72      2.05
    7   19    1      1.64     -0.24
    6   19    1     -1.46      0.56
    5   19    1     -1.24     -0.18
    4   19    1     -0.96     -1.98
    3   19    1     -3.32     -0.24
    2   19    1     -1.19     -1.90
   10   20    1      0.81      0.87
    9   20    1      1.89     -1.43
    8   20    1     -0.29     -1.51
    7   20    1     -0.72      0.42
    6   20    1      0.85     -1.83
    5   20    1      0.46     -0.24
    4   20    1      0.47      0.75
    3   20    1     -0.04     -2.39
    2   20    1      0.21      0.30
   11   20    1     -1.99     -2.79
   12   20    1     -0.29      0.67
   10   21    1     -0.60      0.62
    9   21    1     -0.80     -0.03
    8   21    1     -1.26     -1.75
    7   21    1     -0.72     -0.79
    6   21    1      0.41     -0.28
    5   21    1     -1.02     -0.83
    4   21    1      2.29      0.57
    3   21    1     -0.41      0.45
    1   21    1      0.35     -0.31
    0   21    1      0.04     -2.18
    2   21    1      0.81      0.47
   11   21    1      0.12     -0.14
   12   21    1     -0.34      1.67
   10   22    1     -0.18     -0.97
    9   22    1      0.59      0.94
    8   22    1      0.76      0.27
    7   22    1      1.70      0.24
    6   22    1      0.99      1.38
    5   22    1      0.27      0.13
    4   22    1     -1.30     -2.58
    3   22    1     -0.62      0.30
    2   22    1     -1.45     -2.29
    1   22    1     -0.22     -0.92
    0   22    1      1.93      0.01
   11   22    1      0.01      1.17
   12   22    1      0.18     -0.21
   10   23    1      1.59      0.55
    9   23    1      1.46      0.28
    8   23    1      1.48      0.64
    7   23    1      1.40      0.83
    6   23    1     -0.14     -1.85
    5   23    1     -1.65      0.39
    4   23    1     -0.89      0.76
    3   23    1     -0.43     -0.82
    2   23    1      0.43     -0.34
    1   23    1     -0.69     -0.78
    0   23    1      0.04     -0.75
   11   23    1     -0.45      0.07
   10   24    1     -1.43      0.11
    9   24    1     -0.97      0.25
    8   24    1      0.25     -2.02
    7   24    1      0.82     -0.36
    6   24    1     -0.28      0.99
    5   24    1     -0.88     -1.87
    4   24    1      1.21     -0.25
    3   24    1      1.45      0.01
    2   24    1      0.14      0.40
    1   24    1     -0.52      0.20
    0   24    1     -0.78      0.02
   10   25    1     -1.04      0.54
    9   25    1     -0.65     -0.27
    8   25    1      0.31     -0.65
    7   25    1     -0.79      0.61
    6   25    1     -0.79      1.62
    5   25    1     -0.93      0.39
    4   25    1      0.15      0.75
    3   25    1      1.24     -0.43
    2   25    1      0.22     -0.50
    1   25    1      1.26     -0.27
    0   25    1      0.03      0.63
    9   26    1      0.51     -0.21
    8   26    1      0.10     -1.51
    7   26    1     -1.53      0.61
    6   26    1     -0.34      0.85
    5   26    1      1.31      0.63
    4   26    1     -1.23      1.03
    3   26    1     -1.18      0.04
    2   26    1      1.06      0.44
    1   26    1      1.16     -0.66
    0   26    1      0.00      0.00
    9   27    1     -0.69     -0.36
    8   27    1     -0.75      0.42
    7   27    1      0.25     -1.36
    6   27    1     -0.47      0.16
    5   27    1      0.08      0.01
    4   27    1      0.60     -0.12
    3   27    1     -0.49      0.49
    2   27    1     -0.36     -0.44
    1   27    1     -1.57      0.94
    0   27    1     -0.04      1.32
    8   28    1     -1.10      0.55
    7   28    1      0.76     -0.34
    6   28    1     -0.13      0.83
    5   28    1     -1.68     -0.21
    4   28    1     -0.31     -0.28
    3   28    1     -1.05     -0.43
    2   28    1      0.03      0.06
    1   28    1      0.38     -0.84
    0   28    1      0.82     -0.02
    7   29    1      0.08      0.13
    6   29    1      0.31      0.14
    5   29    1      0.06     -0.33
    4   29    1     -0.46     -0.42
    3   29    1      1.67     -0.65
    2   29    1     -0.41      1.41
    1   29    1     -1.01     -0.68
    0   29    1     -0.02      0.41
    6   30    1      0.32      0.42
    5   30    1      0.62     -0.71
    4   30    1      0.51     -0.21
    3   30    1      0.05      1.01
    2   30    1     -0.67      0.83
    1   30    1     -2.50      0.32
    0   30    1     -0.01      0.04
    4   31    1      0.04      0.17
    3   31    1     -0.23     -0.35
    2   31    1     -0.55     -0.74
    1   31    1     -1.06     -0.88
    0   31    1      0.01     -0.12
    2   32    1     -0.04      1.08
    0    0    2    127.17      0.00
    0    1    2     -0.11     55.81
    1    0    2     77.06      0.00
    1    1    2     36.30    -12.75
    1    2    2    -14.96     23.94
    2    1    2     11.13    -17.31
    2    2    2      2.41     63.73
    3    2    2      1.10    -10.62
    3    1    2      4.96      8.64
    3    0    2     -8.58      0.03
    2    3    2      9.26     17.26
    3    3    2     15.69    -11.20
    4    3    2      0.73      3.42
    4    2    2      4.42      5.80
    2    4    2    -11.85    -30.22
    3    4    2      5.44      6.03
    4    4    2     -0.64     -2.55
    5    4    2     -1.72     -0.87
    5    3    2      1.07     -1.60
    3    5    2     -0.11      5.50
    5    2    2     -8.89      5.41
    5    1    2     -3.61      5.60
    1    5    2    -12.48      7.33
    2    5    2      2.49     -6.50
    4    5    2     -3.62      2.57
    5    5    2      4.45     -1.21
    6    5    2      2.36      4.74
    6    4    2      1.64     -1.88
    4    6    2     -2.84     -0.20
    2    6    2     -2.32      3.38
    1    6    2      2.28     -9.54
    6    2    2      3.74      0.70
    3    6    2      4.71     -0.01
    5    6    2      4.28     -3.23
    6    6    2     -2.39      1.09
    7    6    2      1.44      0.51
    7    5    2      1.51      0.82
    7    4    2      1.58     -0.19
    7    3    2     -2.63     -0.77
    7    2    2     -1.72      1.70
    2    7    2     -3.88     -6.00
    3    7    2     -5.10     -3.90
    4    7    2      1.60     -4.16
    5    7    2     -0.46      0.56
    6    7    2      1.38     -1.79
    7    7    2      0.63     -0.08
    8    7    2     -0.45      3.69
    8    6    2      1.84      1.89
    8    5    2      0.89     -4.46
    4    8    2      1.68     -0.14
    8    2    2      2.21     -2.35
    1    8    2     -3.20     -0.40
    8    0    2      0.90     -0.01
    0    8    2    -11.44      0.03
    2    8    2     -2.91     -0.62
    3    8    2     -5.52     -2.81
    5    8    2      1.73      1.29
    6    8    2      0.22      1.72
    7    8    2      2.11      0.41
    8    8    2      1.52      1.03
    9    8    2      3.32     -0.48
    9    7    2      1.20      2.82
    9    6    2     -0.72     -1.18
    9    5    2      0.03      0.62
    3    9    2      0.23     -2.55
    2    9    2     -8.22     -0.42
    1    9    2     -2.93      1.18
    0    9    2      0.08     -6.48
    4    9    2     -2.37     -1.67
    5    9    2     -0.56     -1.65
    6    9    2     -3.89     -0.97
    7    9    2      1.41      0.06
    8    9    2      0.60     -0.06
    9    9    2     -1.33     -2.32
   10    9    2     -0.10      0.95
   10    8    2      0.99     -0.74
   10    7    2     -2.25      1.40
   10    6    2      0.36     -2.55
   10    5    2     -1.10     -1.26
   10    4    2     -0.52     -0.15
    3   10    2     -0.65      0.66
    2   10    2      1.06     -2.55
    1   10    2      2.41      1.64
    0   10    2     11.25      0.02
    4   10    2     -5.29     -2.10
    5   10    2     -5.55     -2.64
    6   10    2     -0.47      0.91
    7   10    2     -0.53     -2.75
    8   10    2      0.28     -2.25
    9   10    2     -0.68      0.42
   10   10    2      0.07      1.25
   11   10    2      0.90      0.15
   11    9    2     -2.32     -0.15
   11    8    2     -0.39      1.83
   11    7    2     -0.86      0.04
   11    6    2     -0.26      0.96
   11    5    2     -0.91      0.43
    4   11    2      0.99      2.90
   11    4    2      0.26      0.28
   11    3    2     -1.69     -1.05
    2   11    2      1.48     -0.28
    1   11    2      3.10      0.13
    0   11    2     -0.04     -1.75
    5   11    2     -0.06     -0.02
    6   11    2      0.55      0.55
    7   11    2     -0.25     -1.03
    8   11    2     -1.05     -0.57
    9   11    2     -0.18     -1.24
   10   11    2      1.65     -1.11
   11   11    2      1.42      0.52
   12   11    2     -0.41     -0.94
   12   10    2     -1.39      1.08
   12    9    2      1.04      1.91
   12    8    2      1.56     -0.26
   12    7    2      0.05      0.50
   12    6    2     -0.69      1.13
   12    5    2      0.27     -0.48
    4   12    2      2.15     -1.87
    3   12    2      0.71      0.56
    2   12    2      5.23     -1.61
    1   12    2     -4.94     -2.22
    0   12    2     -0.25      0.13
    6   12    2     -0.07     -1.73
    7   12    2      1.37      0.33
    8   12    2      1.15     -0.05
    9   12    2     -1.86      0.84
   10   12    2      0.40      1.72
   11   12    2     -1.19     -1.63
   12   12    2      0.55      1.31
   13   12    2     -1.41     -2.47
   13   11    2     -0.13      0.97
   13   10    2      0.17     -0.66
    9   13    2      0.37      0.36
   13    9    2      0.35     -0.99
   13    8    2      0.79      2.28
   13    7    2     -0.31      0.91
    5   13    2     -1.38      1.77
    4   13    2      0.11     -1.28
    3   13    2     -0.72     -0.03
    2   13    2      2.99      2.10
    1   13    2     -1.48     -0.82
    0   13    2      0.08      2.54
    7   13    2      1.84      0.33
    8   13    2     -0.28     -2.34
   10   13    2      0.76      0.31
   11   13    2      0.88     -0.37
   12   13    2     -0.24      1.86
   13   13    2      1.92     -0.40
   14   13    2      0.73      0.77
   14   12    2      0.87     -0.11
   14   11    2     -0.41      0.05
   14   10    2     -0.61     -1.54
   10   14    2     -0.33     -0.48
   14    9    2     -0.31     -0.30
   14    8    2      0.62      0.67
    8   14    2     -1.48      0.63
    6   14    2     -2.36      0.08
    5   14    2      2.20     -0.90
    4   14    2      1.81      0.75
    3   14    2     -0.99      1.70
    2   14    2      1.64     -0.70
    1   14    2     -2.10      3.53
    0   14    2      0.28     -0.06
    9   14    2      0.13      0.51
   11   14    2     -2.97     -0.75
   12   14    2      1.99     -1.91
   13   14    2      1.33      0.03
   14   14    2     -0.21      0.11
   15   13    2      0.70      1.00
   15   12    2     -0.49     -1.50
   15   11    2      1.04      0.00
   15   10    2     -0.80      0.19
   10   15    2     -0.03     -0.19
    8   15    2     -0.51      1.31
   15    8    2      0.10      0.26
    6   15    2      0.83     -1.74
    4   15    2      1.25      1.01
   15    4    2     -0.54     -0.69
    3   15    2      2.79      0.60
    2   15    2     -0.92      1.64
    1   15    2      3.84      3.05
    0   15    2     -0.06     -1.00
    7   15    2     -1.36      0.54
    9   15    2      2.33     -0.54
   11   15    2      2.35     -0.67
   12   15    2      1.17      0.38
   13   15    2      0.91      0.21
   14   15    2     -1.59     -0.37
   11   16    2      0.63      0.63
   10   16    2     -0.52     -1.88
    9   16    2     -0.98      0.17
    8   16    2      0.06     -1.54
    6   16    2      1.11      2.45
   16    6    2     -1.18     -0.40
    5   16    2      0.59     -0.06
   16    4    2      1.29      0.20
    4   16    2     -0.11      0.38
    3   16    2      1.29     -1.93
    2   16    2      0.33      3.47
   16    2    2     -1.03     -0.08
    1   16    2      5.05      0.45
    0   16    2      0.55      0.05
    7   16    2      0.93     -0.64
   12   16    2     -0.91      2.48
   13   16    2      0.04     -0.49
   10   17    2      0.95     -0.11
    9   17    2     -0.36      0.69
    8   17    2     -0.62     -1.02
    7   17    2      0.42      0.64
    6   17    2     -2.26      1.46
    5   17    2     -0.93     -1.54
    4   17    2      0.98      1.10
    3   17    2     -0.03     -0.14
    2   17    2      0.03      0.82
    1   17    2     -0.55      0.18
    0   17    2     -0.03      3.06
   11   17    2     -1.38      1.29
   12   17    2      1.14      1.88
   10   18    2     -0.80     -0.31
    9   18    2      2.22      0.14
    8   18    2      0.65      0.08
    7   18    2     -1.37      0.96
    6   18    2      1.97      0.25
    5   18    2     -3.45      0.88
    4   18    2     -0.35      0.70
    3   18    2      0.55      3.02
    2   18    2     -1.90      0.39
    1   18    2      0.03      0.16
    0   18    2     -1.65      0.01
   10   19    2     -0.24     -5.27
    9   19    2     -0.83      0.87
    8   19    2      0.43      0.85
    7   19    2     -0.45     -0.10
    6   19    2     -0.48     -1.20
    5   19    2      1.91      0.06
    4   19    2     -1.42     -4.12
    3   19    2      0.59      0.89
    2   19    2      0.19     -1.17
    1   19    2     -2.21     -1.89
   13   19    2     -0.29      0.53
   10   20    2     -2.54      0.24
    9   20    2     -0.91      0.02
    8   20    2     -2.02      1.28
    7   20    2      0.20     -0.75
    6   20    2     -2.04     -2.69
    5   20    2      0.14     -0.81
    4   20    2     -0.41     -0.69
    3   20    2      1.04     -2.85
    2   20    2     -0.44      0.04
   11   20    2     -1.10     -0.43
   12   20    2     -1.23     -0.06
   10   21    2     -0.39     -0.29
    9   21    2      1.37      0.70
    8   21    2      0.04      0.70
    7   21    2      0.79     -0.55
    6   21    2      1.51      1.32
    5   21    2     -0.22     -1.34
    4   21    2     -0.60     -0.67
    3   21    2     -0.73     -0.32
    2   21    2     -1.27     -1.38
    1   21    2      0.01     -0.01
    0   21    2      0.00     -0.94
   11   21    2      0.22     -0.64
   12   21    2     -1.47     -1.50
   10   22    2      1.68     -0.16
    9   22    2      1.53     -1.08
    8   22    2      2.16      0.59
    7   22    2     -1.06     -1.58
    6   22    2     -0.52      0.08
    5   22    2      0.87      1.94
    4   22    2     -0.36      0.59
    3   22    2      0.86      0.76
    2   22    2     -1.14      0.28
    1   22    2      1.15     -1.09
    0   22    2      0.65      0.00
   11   22    2     -0.01      0.25
   12   22    2      0.74      0.93
   10   23    2     -0.22      1.27
    9   23    2     -1.61     -1.86
    8   23    2      0.14     -0.13
    7   23    2      0.73     -0.35
    6   23    2      0.42     -0.79
    5   23    2      0.57     -1.09
    4   23    2      0.07     -1.36
    3   23    2     -0.33     -1.97
    2   23    2      1.74     -0.24
    1   23    2     -0.42      0.80
    0   23    2      0.04     -0.87
   11   23    2     -0.74     -1.01
   10   24    2      0.43      0.91
    9   24    2      0.85      1.95
    8   24    2     -0.10      0.55
    7   24    2      1.12      0.73
    6   24    2     -0.89      0.43
    5   24    2     -1.22     -1.06
    4   24    2     -0.69     -1.91
    3   24    2     -1.29     -0.35
    2   24    2      0.81     -1.33
    1   24    2      0.68     -0.67
    0   24    2      0.71      0.02
   10   25    2      0.85     -0.99
    9   25    2      0.48      0.24
    8   25    2      0.18      1.18
    7   25    2     -0.59      0.89
    6   25    2      0.13     -2.19
    5   25    2     -0.85      0.34
    4   25    2      0.89      2.01
    3   25    2      2.09      1.50
    2   25    2      0.05     -1.20
    1   25    2     -0.13     -1.51
    0   25    2      0.01     -0.43
    9   26    2      0.39     -0.87
    8   26    2     -0.27     -0.19
    7   26    2     -1.60     -1.19
    6   26    2      0.01     -0.41
    5   26    2      1.68      1.70
    4   26    2      1.62     -0.25
    3   26    2      0.89      0.55
    2   26    2      0.04      1.61
    1   26    2      0.08      1.01
    0   26    2      0.16      0.03
    9   27    2      0.31     -0.88
    8   27    2     -0.35     -0.11
    7   27    2     -1.30     -0.07
    6   27    2     -0.01      0.35
    5   27    2     -1.61      2.03
    4   27    2     -1.09     -0.02
    3   27    2      0.38     -0.51
    2   27    2      0.28     -1.39
    1   27    2      1.31     -0.76
    0   27    2      0.02     -0.72
    8   28    2     -0.36     -0.77
    7   28    2      0.08      1.10
    6   28    2     -0.19     -0.02
    5   28    2      0.52      0.03
    4   28    2     -0.28     -1.32
    3   28    2     -0.99     -1.42
    2   28    2     -0.53      0.61
    1   28    2     -0.26      0.59
    0   28    2     -0.56      0.01
    7   29    2      0.26      0.71
    6   29    2     -0.13     -1.94
    5   29    2     -0.29     -0.86
    4   29    2     -1.10      1.08
    3   29    2      0.52      1.19
    2   29    2     -0.48      1.12
    1   29    2     -0.01      1.00
    0   29    2      0.07     -0.66
    6   30    2     -0.49      0.33
    5   30    2      0.77     -0.03
    4   30    2      0.82     -0.08
    3   30    2     -1.20     -0.10
    2   30    2     -0.89     -1.86
    1   30    2      0.68      0.31
    0   30    2     -0.02     -0.02
    4   31    2      0.35      0.78
    3   31    2     -0.42      0.63
    2   31    2     -0.70     -0.51
    1   31    2     -1.74     -0.66
    0   31    2     -0.02      2.27
    2   32    2     -0.09     -0.51
    1    1    3     12.81     78.67
    1    2    3     -1.28     12.02
    2    1    3     24.30      1.11
    2    2    3     33.18     -3.96
    3    2    3     10.40     -3.46
    3    1    3      0.52     21.95
    2    3    3    -20.13      4.88
    3    3    3     -4.39      7.73
    4    3    3      6.94     -1.64
    4    1    3     -8.07     -4.43
    4    0    3      0.03      1.21
    3    4    3     -4.26     11.35
    4    4    3     11.67      2.74
    5    4    3     -5.21      4.23
    5    3    3      1.87      0.48
    5    0    3      0.00     -8.70
    3    5    3     -4.88    -11.16
    4    5    3      7.25      1.83
    5    5    3     -2.74     -5.00
    6    3    3     -6.12      2.50
    1    6    3      9.37     -9.41
    0    6    3      5.48     -0.84
    2    6    3     -2.27     -5.59
    3    6    3      5.16      1.89
    4    6    3     -1.75     -0.26
    5    6    3     -0.51     -3.73
    6    6    3      0.10     -0.55
    7    6    3      0.22     -0.40
    7    5    3     -0.73      2.88
    7    3    3     -0.49     -4.40
    2    7    3     -1.32     -5.12
    1    7    3    -10.06      4.62
    3    7    3      2.37      3.63
    4    7    3      2.95     -1.20
    5    7    3      1.97     -0.36
    6    7    3      4.54      2.42
    7    7    3      4.18      2.90
    8    7    3      1.39      1.04
    8    6    3      2.17     -1.25
    8    5    3     -1.48     -0.58
    8    4    3     -2.76     -0.71
    8    3    3     -1.38      0.23
    2    8    3     -0.78     -3.98
    1    8    3     -7.64     -6.18
    3    8    3     -1.93     -2.79
    4    8    3     -1.29     -2.12
    5    8    3      0.74     -2.76
    6    8    3      0.29      1.74
    7    8    3      0.49     -0.43
    8    8    3      0.08     -0.60
    9    8    3     -1.51      5.84
    9    7    3      1.56      0.02
    9    6    3     -1.40      0.30
    9    5    3     -3.46     -2.86
    9    4    3     -0.01     -2.45
    3    9    3     -2.84     -4.88
    2    9    3     -1.90     -0.31
    9    1    3      0.40     -0.41
    1    9    3      2.00     -5.77
    4    9    3     -2.30     -2.80
    5    9    3     -1.18      3.24
    6    9    3     -0.06      0.32
    7    9    3     -0.32      0.03
    8    9    3     -2.88     -3.13
    9    9    3     -1.22      0.98
   10    9    3      3.45      4.09
   10    8    3     -0.94      0.25
   10    7    3      1.54     -1.33
   10    6    3     -0.42      2.31
   10    5    3     -0.89     -0.24
    4   10    3      1.30     -0.23
    1   10    3     -1.20     -1.94
    0   10    3      2.56     -0.07
    2   10    3     -1.92      4.59
    3   10    3     -3.40     -1.94
    5   10    3     -2.82     -0.69
    6   10    3      0.33     -0.77
    7   10    3      1.77     -2.07
    8   10    3     -0.41     -0.10
    9   10    3      0.22      2.32
   10   10    3      0.13     -0.66
   11   10    3      0.16     -1.98
   11    9    3      0.89     -1.22
   11    8    3      1.28      0.81
   11    7    3     -0.13      0.38
   11    6    3      0.08     -0.67
   11    5    3      0.02     -1.17
   11    4    3      0.09      0.25
    4   11    3     -2.58     -0.59
   11    3    3     -0.30      0.32
    2   11    3     -2.52     -0.62
   11    2    3     -0.05      0.10
    1   11    3      5.28      2.02
    0   11    3      0.07     -4.82
    5   11    3     -1.02     -5.10
    6   11    3     -1.36     -1.08
    7   11    3     -1.02     -2.04
    8   11    3     -2.26     -1.25
    9   11    3      0.75      1.34
   10   11    3      1.61     -0.43
   11   11    3     -1.55      1.97
   12   11    3     -0.88     -0.51
   12   10    3     -1.87      1.08
   12    9    3      0.04      1.09
   12    8    3     -0.08     -0.14
    6   12    3      1.22     -0.66
   12    6    3     -0.40      0.94
    3   12    3      2.46      1.68
    2   12    3      0.83     -2.92
    1   12    3      5.59      2.66
    0   12    3      2.84      0.12
    7   12    3      1.14     -1.92
    8   12    3     -0.07     -2.01
    9   12    3     -0.98      0.09
   10   12    3      1.15      0.43
   11   12    3      0.08     -0.34
   12   12    3      0.90     -0.36
   13   12    3     -1.14      0.23
   12   13    3     -1.75     -0.68
   13   11    3     -0.89      0.88
   13   10    3      1.00      0.76
   13    9    3      0.36      0.54
   13    8    3     -0.31      0.39
    8   13    3      0.29     -0.76
    5   13    3     -0.19     -2.78
    4   13    3      3.19      2.27
    3   13    3      3.60      0.78
    2   13    3     -1.67      1.59
    1   13    3      0.47     -2.61
    0   13    3      0.06      1.39
    7   13    3      1.19      0.21
    9   13    3     -0.81      0.45
   10   13    3     -1.31     -0.86
   11   13    3      1.31     -0.31
   13   13    3      0.74     -1.40
   14   13    3     -1.54     -1.33
   14   12    3      1.20     -0.77
   14   11    3     -0.93     -0.97
   14   10    3      0.42     -0.57
   14    9    3     -1.01      0.72
   14    7    3      1.08     -0.46
    6   14    3     -2.54      1.64
   14    6    3     -1.30      0.09
    5   14    3      1.96     -0.67
    4   14    3      1.89      0.65
    3   14    3     -1.67      2.45
    2   14    3      0.09     -1.26
    1   14    3     -1.13      0.76
    0   14    3     -0.38      0.06
    8   14    3      0.66      0.91
    9   14    3     -0.11     -0.26
   10   14    3      2.39     -0.97
   11   14    3      0.18      0.58
   12   14    3      2.04     -1.02
   13   14    3      2.27     -0.81
   14   14    3      1.18      1.21
   15   13    3      0.22     -0.29
   15   12    3      0.65      0.90
   15   11    3      0.04     -1.20
   11   15    3     -0.25     -0.76
   15    9    3     -0.02      0.37
    9   15    3     -0.18     -0.50
    8   15    3      0.76      0.48
   15    8    3     -0.77      1.05
    4   15    3     -0.15     -0.86
    3   15    3     -1.37      2.62
    2   15    3      0.90     -1.13
    1   15    3      0.35     -0.39
    0   15    3     -0.09      4.80
    7   15    3     -1.40     -0.45
   10   15    3     -1.88      1.22
   12   15    3      2.01      0.55
   13   15    3      0.67      1.23
   14   15    3      1.31     -0.06
   11   16    3      0.26      2.05
   10   16    3      1.86      0.68
    9   16    3     -1.63     -0.54
    8   16    3     -1.80     -0.55
    7   16    3      1.00      1.16
   16    7    3      0.73     -0.31
    6   16    3     -1.36      1.85
    3   16    3      1.60      2.68
    1   16    3     -2.54      0.81
    0   16    3      2.69      0.02
   12   16    3      0.69      0.78
   13   16    3     -0.55      0.37
   10   17    3      0.31      0.30
    9   17    3      1.17     -0.68
    8   17    3     -0.71      0.75
    7   17    3      3.10      0.72
    6   17    3     -1.87      1.41
    5   17    3      2.52      0.96
    4   17    3      1.46      1.15
    3   17    3     -0.43      0.77
    2   17    3      1.95      2.93
    1   17    3      1.24      4.11
    0   17    3     -0.07     -3.55
   11   17    3      1.31      0.15
   12   17    3     -1.17      1.06
   10   18    3     -2.24      0.85
    9   18    3      1.86     -3.30
    8   18    3      0.47      1.12
    7   18    3     -1.71      1.35
    6   18    3      1.12     -1.17
    5   18    3     -2.42     -0.76
    4   18    3     -0.52      0.79
    3   18    3      0.33     -2.00
    2   18    3     -0.28     -1.25
    1   18    3     -0.44      1.10
    0   18    3     -3.08      0.00
   10   19    3     -0.39      0.57
    9   19    3     -1.69      0.76
    8   19    3      1.69     -0.57
    7   19    3     -2.71     -1.25
    6   19    3     -2.23      0.06
    5   19    3     -0.31     -2.33
    4   19    3     -2.97     -0.36
    3   19    3     -1.52     -0.44
    2   19    3      0.83      0.71
    1   19    3     -1.25      0.12
   13   19    3      0.11     -0.97
   10   20    3      1.17      0.66
    9   20    3     -0.75     -0.72
    8   20    3     -0.35      0.55
    7   20    3      1.37      0.43
    6   20    3      0.28     -1.01
    5   20    3     -0.57     -1.45
    4   20    3      0.55      1.27
    3   20    3     -1.85     -2.09
    2   20    3      0.53     -0.45
    1   20    3      0.09      0.91
   11   20    3     -0.95     -3.39
   12   20    3     -0.22     -0.77
   10   21    3     -0.20     -2.25
    9   21    3     -0.25      1.35
    8   21    3      0.32     -1.96
    7   21    3      0.89      1.01
    6   21    3      1.49     -0.10
    5   21    3      0.22      0.13
    4   21    3      3.02     -0.07
    3   21    3      0.32      0.62
    2   21    3      0.80     -1.85
    1   21    3      0.10     -0.64
    0   21    3      0.04      0.73
   11   21    3      0.09      0.78
   12   21    3     -0.67     -0.38
   10   22    3     -1.30     -0.27
    9   22    3     -0.99     -0.20
    8   22    3      0.59     -1.96
    7   22    3     -0.14      0.53
    6   22    3      1.67     -0.40
    5   22    3      0.44     -1.32
    4   22    3     -1.45     -1.77
    3   22    3      0.30     -1.06
    2   22    3     -0.93     -0.74
    1   22    3      1.30     -1.52
    0   22    3     -1.02      0.00
   11   22    3     -0.40      0.86
   12   22    3     -0.21     -0.48
   10   23    3      0.61      0.28
    9   23    3      1.07      0.52
    8   23    3      0.20      1.87
    7   23    3      1.16      0.25
    6   23    3     -2.91      1.08
    5   23    3     -2.41      0.50
    4   23    3     -1.30      0.67
    3   23    3     -1.83     -0.89
    2   23    3     -0.25     -1.63
    1   23    3      0.66     -0.46
    0   23    3     -0.01     -0.43
   11   23    3      1.26      0.01
   10   24    3     -0.98      0.08
    9   24    3      1.65      0.03
    8   24    3      0.57      0.06
    7   24    3      0.65      0.47
    6   24    3     -1.29     -0.03
    5   24    3      0.40     -1.37
    4   24    3      1.55     -1.28
    3   24    3      1.12      0.56
    2   24    3     -0.39      0.79
    1   24    3      0.46     -0.62
    0   24    3      0.90     -0.01
   10   25    3     -1.09      0.46
    9   25    3     -1.30     -0.62
    8   25    3      2.32     -0.37
    7   25    3     -0.79      0.24
    6   25    3      0.63     -1.45
    5   25    3      2.03     -1.71
    4   25    3      1.05     -0.81
    3   25    3      2.03     -0.74
    2   25    3      1.15      1.13
    1   25    3     -0.11      0.62
    0   25    3     -0.01     -0.04
    9   26    3     -0.17      0.08
    8   26    3     -0.16     -0.80
    7   26    3     -0.63      0.37
    6   26    3     -0.43      0.89
    5   26    3     -0.53     -0.33
    4   26    3     -2.22      1.69
    3   26    3     -0.32     -0.64
    2   26    3      1.99     -1.95
    1   26    3      0.58     -2.18
    0   26    3      0.92     -0.01
    9   27    3     -0.62     -0.09
    8   27    3     -0.23     -0.74
    7   27    3      0.79     -1.01
    6   27    3     -1.05      1.88
    5   27    3     -0.30      0.44
    4   27    3      0.70      0.69
    3   27    3      0.30      0.03
    2   27    3      0.23     -0.51
    1   27    3      0.14      0.76
    0   27    3     -0.04      0.70
    8   28    3     -1.14     -0.68
    7   28    3      1.07     -0.79
    6   28    3     -1.25      1.09
    5   28    3     -0.75      0.03
    4   28    3      1.67      0.30
    3   28    3      0.87      0.71
    2   28    3      1.76      0.94
    1   28    3      0.09      0.13
    0   28    3     -0.20     -0.01
    7   29    3     -0.49      0.25
    6   29    3      0.18      0.33
    5   29    3     -0.39     -0.59
    4   29    3      0.25     -1.64
    3   29    3     -0.01     -0.42
    2   29    3     -1.37     -0.12
    1   29    3      0.85     -0.84
    0   29    3     -0.01      0.75
    6   30    3      0.42     -0.27
    5   30    3     -0.03     -0.62
    4   30    3     -0.48     -0.23
    3   30    3     -0.99      1.99
    2   30    3     -1.89      0.77
    1   30    3     -0.46      0.90
    0   30    3     -0.02      0.09
    4   31    3     -0.05      0.24
    3   31    3     -0.21     -0.36
    2   31    3     -0.98     -0.71
    1   31    3     -0.27     -0.99
    0   31    3      0.01     -1.05
    0    0    4    -34.36      0.00
    1    0    4     62.19      0.05
    1    1    4     11.32     10.63
    2    1    4     -1.69     -3.05
    2    0    4     16.51     -0.02
    2    2    4     -5.51     41.31
    1    3    4      4.44      2.47
    3    1    4      5.03     -9.11
    3    3    4     15.12     14.33
    4    0    4      1.64      0.00
    4    2    4      2.26      8.00
    4    4    4     -2.51     -3.47
    5    4    4      1.16      2.53
    5    3    4      0.83     -0.52
    1    5    4      3.50      1.28
    5    1    4     -1.84     -2.00
    3    5    4     -6.06      1.95
    5    5    4      1.80      0.84
    6    5    4     -3.78      0.50
    6    3    4      1.75      8.00
    1    6    4      7.75     -7.52
    4    6    4      2.74     -3.27
    5    6    4      0.78      1.70
    6    6    4     -0.35      1.80
    7    6    4      1.69      1.77
    7    5    4     -2.15      1.20
    7    4    4     -2.56     -1.92
    7    2    4     -0.33      1.26
    7    0    4     -1.74      0.01
    0    7    4     -0.11    -17.72
    1    7    4      1.35     -3.26
    3    7    4     -3.09     -6.82
    4    7    4      4.67     -0.57
    5    7    4     -0.30     -2.34
    6    7    4      1.81     -4.34
    7    7    4      0.87     -0.71
    8    7    4     -1.13      4.31
    8    6    4      0.88      0.28
    8    5    4     -1.96     -3.80
    8    4    4     -0.90     -1.15
    8    3    4      3.10     -0.12
    8    1    4      0.49      1.72
    0    8    4     -3.04     -0.25
    2    8    4     -1.70    -10.90
    3    8    4      1.34     -3.09
    4    8    4      0.15      3.15
    5    8    4      2.89      0.42
    6    8    4      3.69      0.79
    7    8    4      1.75      1.90
    8    8    4     -0.03      1.82
    9    8    4     -1.56      0.58
    9    7    4      1.60      2.83
    9    6    4      0.02     -2.91
    9    5    4     -1.48     -2.00
    9    4    4     -0.76      0.98
    9    1    4     -0.23      0.22
    1    9    4     -4.98     -1.18
    2    9    4     -5.04     -4.12
    3    9    4      0.06     -1.01
    4    9    4     -1.04     -4.62
    5    9    4      1.45      0.39
    6    9    4     -1.73      1.15
    7    9    4      1.92      3.21
    8    9    4      4.14      0.23
    9    9    4     -1.11     -0.75
   10    9    4      0.29      1.44
   10    8    4      1.76      0.02
   10    7    4     -0.15      0.81
   10    6    4     -0.50     -3.13
   10    4    4     -0.63     -0.61
   10    3    4      1.49      1.06
    3   10    4     -1.90     -0.79
    2   10    4      1.61     -2.20
    1   10    4     -4.73      1.26
   10    1    4      0.19     -1.08
    0   10    4      4.32     -0.03
   10    0    4      0.07      0.00
    4   10    4     -2.60     -1.45
    5   10    4     -3.44     -3.89
    6   10    4     -4.95     -0.09
    7   10    4     -2.58     -0.62
    8   10    4     -0.63     -0.37
    9   10    4      2.31      1.09
   10   10    4     -1.08     -0.07
   11   10    4      0.99      1.55
   11    9    4     -2.14      0.09
   11    8    4      1.11      0.05
   11    7    4     -2.17      0.23
    6   11    4     -0.39     -1.75
   11    6    4     -0.03     -1.31
    2   11    4      1.81     -0.86
    1   11    4      4.44      0.35
    0   11    4      0.00      5.91
    4   11    4     -0.74     -1.32
    5   11    4      1.35      0.50
    7   11    4      1.86     -1.41
    8   11    4     -1.78      0.15
    9   11    4     -0.50     -1.17
   10   11    4     -0.57      0.94
   11   11    4      1.37      0.44
   12   11    4     -0.66     -1.25
   12   10    4     -0.08      2.29
   12    9    4      0.02      1.45
   12    8    4      1.36     -0.44
   12    7    4     -0.18     -0.19
   12    6    4     -1.06      0.96
   12    5    4     -0.63     -0.34
    3   12    4     -0.78      0.00
    2   12    4      2.67      2.88
    1   12    4     -0.95     -1.91
    0   12    4      4.71      0.02
    5   12    4     -0.43     -0.54
    7   12    4     -0.08     -0.80
    8   12    4      2.63     -2.60
    9   12    4     -1.28     -1.67
   10   12    4     -0.94      4.04
   11   12    4     -0.97     -0.75
   12   12    4     -1.90      0.15
   13   12    4     -1.97     -0.24
   13   11    4     -0.14     -0.07
   13   10    4     -0.12      0.60
   13    9    4      0.76      0.32
   13    8    4      0.69      1.00
    7   13    4      0.31      1.76
   13    7    4     -1.88      0.21
    4   13    4      1.30      2.58
    3   13    4      0.46     -1.61
    2   13    4      2.36      4.54
    1   13    4      0.17     -2.82
    0   13    4      0.09     -1.59
    6   13    4     -1.00     -0.34
    8   13    4     -0.19     -0.94
    9   13    4     -0.54     -0.96
   10   13    4      0.61     -0.77
   11   13    4      0.10     -2.10
   12   13    4      0.27      0.92
   13   13    4      1.41     -1.36
   14   13    4      0.72     -0.79
   14   12    4     -1.25     -0.55
   14   11    4     -0.43      1.61
   11   14    4     -0.73      0.39
   14   10    4     -0.06      0.38
   14    9    4      1.24     -0.54
   14    8    4      0.58      1.05
    8   14    4     -0.09     -1.04
   14    7    4     -0.96      0.27
    5   14    4      0.96     -0.16
   14    5    4      0.05      0.65
    4   14    4     -0.28      3.28
    3   14    4      0.35      0.92
    2   14    4     -1.78     -1.20
    1   14    4      0.59      3.71
    0   14    4     -0.77      0.01
    7   14    4      0.70      0.24
    9   14    4      0.45      0.77
   10   14    4      0.03     -1.46
   12   14    4     -0.37     -0.85
   13   14    4      0.87     -0.65
   14   14    4      0.43     -1.96
   15   13    4     -0.25      0.40
   15   12    4     -1.49     -0.13
   15   11    4      1.48     -0.51
   15    9    4     -0.88     -0.37
    9   15    4     -0.69     -0.44
    8   15    4      0.12      0.04
   15    7    4     -0.33     -0.10
    7   15    4     -2.84     -0.09
   15    6    4      1.53     -0.32
    6   15    4      2.02     -1.08
    5   15    4     -0.43      2.11
    4   15    4      2.76     -0.03
   15    4    4     -0.46     -0.04
   15    3    4      0.26      0.41
    3   15    4      3.90      0.24
    2   15    4     -2.16      3.15
    1   15    4     -0.10      1.77
    0   15    4      0.00     -1.86
   10   15    4     -0.22     -0.43
   11   15    4      3.03     -1.39
   12   15    4      1.03     -0.21
   13   15    4      2.24      1.86
   14   15    4     -0.92     -0.55
   11   16    4     -0.68     -0.21
   10   16    4      1.71     -0.04
    9   16    4     -0.57      3.13
    8   16    4      1.97     -0.32
   16    7    4     -0.10     -0.42
   16    6    4     -0.17     -0.34
    6   16    4     -0.49      1.30
    3   16    4      1.43      0.57
   16    3    4     -0.50     -0.51
    2   16    4      2.72      0.88
    1   16    4      0.02      0.57
    0   16    4     -0.88      0.00
    7   16    4      1.38      0.43
   12   16    4     -0.22      1.72
   13   16    4      0.68      0.42
   10   17    4      1.59     -0.53
    9   17    4      0.49     -0.88
    8   17    4      0.37     -0.13
    7   17    4      0.20      1.39
    6   17    4     -2.18      2.60
    5   17    4      1.10      1.14
    4   17    4      0.98      2.14
    3   17    4     -2.24      2.34
    2   17    4     -0.76     -0.68
    1   17    4      0.32      2.12
    0   17    4     -0.01      1.69
   11   17    4     -0.86      1.71
   12   17    4     -0.90      1.69
   10   18    4      1.67      0.19
    9   18    4     -0.75     -0.38
    8   18    4     -1.25      0.05
    7   18    4     -1.88      2.81
    6   18    4      0.97     -0.81
    5   18    4     -1.66      2.86
    4   18    4      2.77     -0.26
    3   18    4     -0.09      2.46
    2   18    4     -1.64      1.72
    1   18    4     -0.74     -1.05
    0   18    4     -0.64     -0.02
   10   19    4      0.66     -2.74
    9   19    4      0.08      3.17
    8   19    4     -1.14     -0.94
    7   19    4     -0.41     -0.18
    6   19    4     -0.89     -0.39
    5   19    4      0.57     -2.22
    4   19    4     -2.19     -0.96
    3   19    4     -0.37      1.04
    2   19    4     -0.45      0.12
    1   19    4      0.08      0.11
    0   19    4     -0.03      1.52
   11   19    4     -0.39     -0.91
   12   19    4     -0.09     -1.30
   13   19    4      0.12     -1.18
   10   20    4     -0.88      0.14
    9   20    4      0.01     -0.24
    8   20    4     -1.70      0.99
    7   20    4      2.13     -2.95
    6   20    4     -1.63     -0.24
    5   20    4      1.45     -0.55
    4   20    4      1.79     -1.36
    3   20    4     -1.64     -0.54
    2   20    4      0.53     -0.25
    1   20    4      0.75     -0.15
    0   20    4     -0.22     -0.10
   11   20    4     -0.50     -1.66
   12   20    4     -0.21     -0.39
   10   21    4     -0.59      0.53
    9   21    4     -0.72     -0.35
    8   21    4     -0.32      0.07
    7   21    4      2.47     -1.77
    6   21    4      2.39     -3.17
    5   21    4     -1.27     -1.80
    4   21    4     -1.56     -1.12
    3   21    4      0.17      0.46
    2   21    4     -0.99     -0.80
    1   21    4     -1.80      0.22
    0   21    4     -0.04     -1.10
   11   21    4     -0.04     -0.75
   12   21    4      0.65     -0.95
   10   22    4      2.07      0.64
    9   22    4      0.92     -0.59
    8   22    4      1.65      1.24
    7   22    4     -2.50      0.69
    6   22    4      0.06      2.25
    5   22    4      0.51      2.79
    4   22    4     -1.08      1.71
    3   22    4      0.66     -0.98
    2   22    4     -0.80     -1.84
    1   22    4     -0.34     -0.85
    0   22    4      0.29      0.04
   11   22    4      0.80     -1.14
   12   22    4      0.72      0.20
   10   23    4     -0.02     -0.65
    9   23    4      0.05     -0.05
    8   23    4      0.25     -0.02
    7   23    4      0.78      0.06
    6   23    4      0.58      1.12
    5   23    4      0.17     -1.94
    4   23    4      1.16     -0.84
    3   23    4     -0.23     -1.13
    2   23    4      2.15      0.22
    1   23    4      0.27     -0.01
    0   23    4      0.01     -1.32
   11   23    4     -0.22      0.23
   10   24    4     -0.02     -0.21
    9   24    4     -0.53      0.27
    8   24    4     -0.86     -0.93
    7   24    4      0.50     -0.05
    6   24    4     -0.22     -1.28
    5   24    4     -0.91     -2.09
    4   24    4     -0.57     -1.49
    3   24    4      0.24     -0.03
    2   24    4      0.50      0.42
    1   24    4     -0.13      1.10
    0   24    4     -0.04      0.05
   10   25    4      0.19      1.34
    9   25    4      0.10      1.43
    8   25    4     -1.05      1.86
    7   25    4      0.12      0.40
    6   25    4     -0.84     -2.10
    5   25    4     -1.86      2.32
    4   25    4      0.53      1.06
    3   25    4     -1.78     -0.39
    2   25    4     -0.69     -1.99
    1   25    4      1.29     -0.98
    0   25    4      0.02     -1.50
    9   26    4      1.44      0.22
    8   26    4     -0.54      0.14
    7   26    4      0.02     -1.56
    6   26    4      2.07      0.57
    5   26    4      0.64      0.62
    4   26    4      1.26     -1.11
    3   26    4      0.68      1.25
    2   26    4      0.51      0.21
    1   26    4      1.64     -0.47
    0   26    4      0.03      0.00
    9   27    4      0.23     -0.54
    8   27    4      0.49     -0.55
    7   27    4     -0.98     -0.81
    6   27    4      0.87      0.34
    5   27    4     -0.28      1.14
    4   27    4      0.82     -1.10
    3   27    4      3.12     -0.73
    2   27    4      1.14     -1.03
    1   27    4      0.90      0.19
    0   27    4      0.01      0.27
    8   28    4     -0.12     -0.84
    7   28    4     -0.60      0.90
    6   28    4     -0.33     -0.47
    5   28    4     -0.35     -0.64
    4   28    4     -1.06     -0.73
    3   28    4      0.29     -1.12
    2   28    4      1.29      0.14
    1   28    4      0.60     -0.57
    0   28    4      1.61      0.00
    7   29    4     -0.63      0.45
    6   29    4     -0.66     -0.98
    5   29    4     -0.25      0.63
    4   29    4      0.04      2.32
    3   29    4      1.41      1.33
    2   29    4     -0.19      1.41
    1   29    4     -0.25      0.68
    0   29    4      0.02      0.90
    5   30    4      1.08     -0.35
    4   30    4      0.01      0.75
    3   30    4     -1.97     -0.18
    2   30    4      0.07      0.07
    1   30    4     -0.37      0.38
    0   30    4      0.35      0.00
    4   31    4     -0.32      0.34
    3   31    4     -0.51     -0.89
    2   31    4     -0.21     -0.55
    1   31    4     -1.11      0.06
    0   31    4     -0.02      1.17
    0    1    5      0.01    -18.79
    1    1    5    -19.30     31.45
    2    1    5     15.38     21.08
    1    2    5    -11.34      2.26
    2    0    5      0.01      6.48
    2    2    5      8.01      6.20
    3    2    5     -0.62     -4.38
    3    1    5      5.73     13.17
    1    3    5      6.98      0.34
    3    3    5     -5.06      3.90
    4    3    5      3.65      1.80
    4    2    5      5.88      0.22
    4    1    5     -4.14     -2.04
    3    4    5     -3.75     -0.82
    4    4    5      3.11     14.35
    5    4    5      0.53      3.31
    3    5    5      0.62      0.53
    5    3    5     -2.07     -1.42
    5    2    5     -1.59      1.58
    1    5    5      2.92      5.62
    5    0    5      0.01     -8.70
    5    1    5      3.93      0.23
    5    5    5     -2.42     -4.02
    6    5    5     -1.17      3.43
    6    4    5     -2.51      0.89
    3    6    5      3.78      2.96
    4    6    5     -1.30     -3.67
    5    6    5      0.01     -3.39
    6    6    5     -3.67     -0.66
    7    6    5     -5.55     -1.18
    7    5    5      0.89      1.58
    4    7    5      1.11      2.62
    7    4    5      0.47      2.07
    7    3    5     -0.17     -0.64
    2    7    5      7.28     -0.96
    7    2    5      5.89      2.30
    0    7    5      0.17     -5.86
    3    7    5     -6.13      1.58
    5    7    5      5.49      0.01
    6    7    5      0.67      0.55
    7    7    5      2.17     -0.52
    8    7    5     -0.16     -0.28
    8    6    5     -0.78     -2.28
    8    5    5      1.70     -1.42
    8    2    5     -0.27     -0.54
    8    1    5     -0.70      1.27
    1    8    5      2.33     -9.63
    2    8    5     -1.27     -4.69
    3    8    5      1.70     -1.55
    4    8    5      2.70     -2.76
    5    8    5      0.16     -1.10
    6    8    5      1.43      4.05
    7    8    5      4.48      2.59
    8    8    5      1.38     -1.20
    9    8    5     -1.82      0.63
    9    7    5     -0.17      0.65
    9    6    5      0.55     -0.32
    9    5    5     -1.25     -2.31
    4    9    5      2.15     -3.04
    9    2    5      0.81      0.10
    0    9    5      0.07      0.42
    9    0    5      0.01     -0.84
    1    9    5      0.39     -4.76
    2    9    5     -1.72      1.09
    3    9    5      2.31     -6.06
    5    9    5     -2.25     -1.65
    6    9    5      0.55      1.03
    7    9    5     -0.04      4.51
    8    9    5     -1.01      1.21
    9    9    5     -2.60     -0.67
   10    9    5      1.68      2.38
   10    8    5     -2.81      1.65
   10    7    5     -1.02     -1.56
   10    6    5      0.50      0.14
   10    5    5     -0.78     -0.50
    4   10    5      1.34      2.20
    3   10    5     -1.56     -4.26
   10    3    5      1.47      1.78
    1   10    5      1.31      3.70
    0   10    5     -1.75     -0.07
    2   10    5     -2.43     -2.52
    5   10    5     -0.76     -0.21
    6   10    5      2.27      1.03
    7   10    5      0.33     -2.27
    8   10    5      2.01     -0.26
    9   10    5     -0.41      1.73
   10   10    5      0.23      0.62
   11   10    5     -0.07     -0.85
   11    9    5      0.66      0.39
   11    8    5      0.67     -0.15
   11    7    5      0.03      0.85
   11    5    5     -0.26     -0.75
    1   11    5      2.56      2.54
    0   11    5     -0.11      1.32
    2   11    5     -3.06     -2.81
    4   11    5     -4.17     -1.35
    5   11    5     -3.57     -2.39
    6   11    5     -0.98     -1.73
    7   11    5      1.08     -0.04
    8   11    5      0.62     -2.58
    9   11    5     -2.11      0.29
   10   11    5      1.07      1.08
   11   11    5      0.47      2.20
   12   11    5     -1.92      0.54
   12   10    5      0.54     -0.47
   12    9    5      0.42     -0.11
   12    8    5     -1.19      0.38
   12    7    5     -0.49     -0.16
    2   12    5      2.06     -2.13
    1   12    5     -0.85      2.65
    0   12    5      3.60      0.13
    5   12    5      1.53     -1.92
    6   12    5     -2.00     -0.76
    7   12    5     -0.54      0.89
    8   12    5      1.86     -2.00
    9   12    5     -1.12      1.11
   10   12    5      0.09      0.59
   11   12    5      0.37      1.05
   12   12    5      0.25     -0.51
   13   12    5     -0.29      0.54
   13   11    5     -0.80      1.75
   13   10    5      0.03      0.44
   13    9    5     -0.15      1.40
   13    8    5      0.08      1.19
   13    7    5      0.53     -1.66
   13    6    5      0.13     -0.10
    4   13    5      0.72      1.10
    3   13    5     -3.68      0.65
    2   13    5      0.65      0.35
    1   13    5      0.76      0.72
    0   13    5      0.05      3.48
    6   13    5     -1.66      0.06
    7   13    5      3.03     -1.90
    8   13    5     -0.29     -0.71
    9   13    5      0.85     -0.55
   10   13    5     -1.23      0.34
   11   13    5     -1.42     -0.08
   12   13    5     -0.15      0.48
   13   13    5     -0.23     -1.38
   14   13    5     -2.29      0.00
   14   12    5      0.85     -1.75
   14   11    5     -0.19      0.82
   14   10    5      1.41      0.22
   14    9    5     -0.24     -0.02
   14    8    5     -0.60     -0.87
   14    7    5      0.67     -0.86
   14    6    5     -0.70     -0.03
   14    5    5     -0.19     -0.34
    4   14    5     -1.17     -1.83
   14    4    5      1.63      0.34
    2   14    5      1.80     -0.15
    1   14    5      0.94      0.90
    0   14    5     -1.83     -0.06
    7   14    5     -0.63     -0.90
    8   14    5     -1.53      0.63
    9   14    5     -0.21     -2.44
   10   14    5     -0.92     -0.94
   11   14    5      0.16     -1.08
   12   14    5     -0.06     -1.29
   13   14    5      1.57     -1.09
   14   14    5      1.35      1.04
   15   13    5     -0.90     -1.54
   15   12    5      0.16      1.57
   15   11    5     -0.21     -0.43
   11   15    5     -0.78     -1.23
   15   10    5      1.08      0.35
   10   15    5      0.12      1.64
   15    9    5     -1.08      0.50
    9   15    5      0.57     -2.35
    8   15    5      1.08      0.82
   15    8    5     -0.04     -0.75
   15    7    5      0.21     -0.47
   15    5    5      0.79     -1.73
    1   15    5      1.15     -1.74
    0   15    5     -0.03      2.08
    7   15    5     -2.35      1.28
   12   15    5      0.80     -0.26
   13   15    5      0.13      0.51
   14   15    5      1.96      0.04
   10   16    5      0.92     -1.81
    9   16    5     -0.38     -0.03
    8   16    5     -0.17     -1.32
    7   16    5      2.41      1.27
   16    5    5     -0.41     -0.29
   16    4    5     -0.34     -0.78
    4   16    5      2.29      5.59
   16    0    5      0.00      0.61
    0   16    5      1.24      0.00
    6   16    5     -0.43      1.60
   11   16    5      0.68      0.67
   12   16    5      0.92      1.35
   13   16    5     -1.20      0.78
   10   17    5     -1.72      1.04
    9   17    5      1.75      0.77
    8   17    5      0.06      1.63
    7   17    5      1.22     -0.72
    6   17    5      0.59      0.73
    5   17    5      3.00      0.29
    4   17    5      0.78     -0.41
    3   17    5      2.45      1.85
    2   17    5      1.27      2.87
    1   17    5     -1.25      0.33
    0   17    5     -0.02     -3.45
   11   17    5      2.40      0.41
   12   17    5      0.29     -0.08
   10   18    5      0.40      1.11
    9   18    5      2.32     -0.90
    8   18    5      0.28      2.86
    7   18    5     -2.53      1.69
    6   18    5     -0.68     -1.40
    5   18    5     -1.72      2.41
    4   18    5     -1.25     -0.37
    3   18    5      1.39     -1.38
    2   18    5     -1.06      0.81
    1   18    5     -1.30      2.54
    0   18    5      1.47     -0.01
   10   19    5     -0.24     -0.15
    9   19    5      0.43      0.26
    8   19    5     -0.96     -0.42
    7   19    5     -3.33      1.25
    6   19    5      0.40      2.94
    5   19    5      1.40     -1.34
    4   19    5     -1.76      2.40
    3   19    5      1.22      1.15
    2   19    5     -0.48     -0.58
    1   19    5     -0.83      0.69
   11   19    5      0.77      0.07
   12   19    5     -1.23      1.44
   13   19    5      1.48      1.10
   10   20    5     -0.16      0.84
    9   20    5     -2.70     -0.58
    8   20    5      0.93     -0.78
    7   20    5     -0.40     -2.25
    6   20    5     -0.70     -2.48
    5   20    5     -0.25     -1.01
    4   20    5      0.66     -0.33
    3   20    5     -1.98     -1.11
    2   20    5      0.27      3.43
    1   20    5     -1.26      0.32
    0   20    5     -2.05      0.06
   11   20    5     -0.73     -0.85
   12   20    5     -0.51     -2.13
   10   21    5     -0.32     -1.83
    9   21    5     -0.21      0.30
    8   21    5      1.22     -0.28
    7   21    5      0.24      2.62
    6   21    5      0.73     -1.28
    5   21    5      1.17      1.09
    4   21    5      0.00      0.06
    3   21    5     -1.04     -1.28
    2   21    5     -0.63      0.45
    1   21    5      0.79     -0.24
    0   21    5     -0.01     -0.87
   11   21    5      0.76     -1.68
   12   21    5      0.74     -0.25
   10   22    5     -0.50     -0.11
    9   22    5      0.74     -1.36
    8   22    5      0.60     -0.27
    7   22    5      2.27      1.23
    6   22    5      2.19     -2.06
    5   22    5      0.36     -1.62
    4   22    5     -0.94     -1.74
    3   22    5     -0.18     -0.63
    2   22    5      1.01     -1.92
    1   22    5      0.34     -1.13
    0   22    5     -2.36     -0.04
   11   22    5     -0.19      0.04
   12   22    5     -0.33     -0.41
   10   23    5     -0.24     -0.80
    9   23    5      0.39      1.00
    8   23    5      0.45     -0.26
    7   23    5      0.35     -1.73
    6   23    5     -2.52      0.71
    5   23    5     -0.93     -0.37
    4   23    5     -0.41      0.05
    3   23    5      0.09     -0.61
    2   23    5      0.74     -0.20
    1   23    5     -0.63      0.70
    0   23    5     -0.01      0.05
   11   23    5      0.91      0.40
   10   24    5      1.22      0.30
    9   24    5      0.11      0.23
    8   24    5      0.21      2.16
    7   24    5     -1.72      0.77
    6   24    5     -2.18      0.82
    5   24    5      2.18      0.12
    4   24    5     -0.53      0.70
    3   24    5      0.29      0.50
    2   24    5     -0.60     -0.60
    1   24    5      0.10     -0.81
    0   24    5      1.41     -0.04
   10   25    5     -1.16     -0.31
    9   25    5      0.39     -0.50
    8   25    5      2.03     -0.17
    7   25    5     -0.40      0.49
    6   25    5      1.59     -2.05
    5   25    5      1.43     -1.85
    4   25    5      0.40     -0.06
    3   25    5      0.13      0.03
    2   25    5      0.45      1.41
    1   25    5     -0.31      0.74
    0   25    5     -0.05      1.24
    9   26    5     -0.45     -0.41
    8   26    5      0.16     -0.39
    7   26    5     -0.31      0.66
    6   26    5     -0.30     -0.11
    5   26    5     -1.42     -0.82
    4   26    5     -1.39      1.33
    3   26    5      0.51     -1.23
    2   26    5      0.91      0.26
    1   26    5      0.16     -0.43
    0   26    5      0.80      0.00
    8   27    5      0.42     -0.04
    7   27    5      0.68      0.19
    6   27    5     -2.50      0.56
    5   27    5      0.34     -0.64
    4   27    5      0.49     -0.28
    3   27    5     -0.21     -1.21
    2   27    5      1.83     -1.15
    1   27    5      1.47     -0.64
    0   27    5     -0.03     -2.20
    7   28    5      1.29     -0.35
    6   28    5     -1.53      0.82
    5   28    5      1.04      0.26
    4   28    5      3.60     -0.01
    3   28    5      1.82      1.09
    2   28    5      1.99     -0.23
    1   28    5     -0.10      0.57
    0   28    5     -0.64     -0.01
    6   29    5      0.58     -0.51
    5   29    5      0.40     -0.04
    4   29    5      0.96     -0.75
    3   29    5      0.05      1.53
    2   29    5     -0.27      0.26
    1   29    5      1.62      0.45
    0   29    5     -0.01      0.11
    5   30    5     -0.83      0.03
    4   30    5     -0.61      1.05
    3   30    5     -0.54      0.78
    2   30    5      0.03     -0.20
    1   30    5      0.63      1.43
    0   30    5      0.48      0.02
    4   31    5     -0.97     -0.40
    3   31    5     -0.65     -0.19
    2   31    5     -0.76     -0.41
    1   31    5      0.06      0.16
    0   31    5     -0.02      0.71
    0    0    6    -52.42     -0.01
    0    1    6     -0.07      6.84
    1    1    6     -0.03     14.59
    2    1    6     -8.02      1.40
    1    2    6     -1.62     -0.16
    2    2    6     -5.29     13.93
    3    1    6     -1.91     -4.35
    3    0    6      5.45      0.02
    3    3    6      2.58      7.05
    3    4    6     -3.80     -2.01
    4    3    6      0.41      2.62
    4    2    6      1.33     -1.48
    4    1    6     -4.93     -3.22
    4    4    6      0.50     -1.15
    4    5    6      0.93     -1.93
    3    5    6      2.43      4.10
    5    3    6      1.76      1.01
    5    5    6     -5.05      1.34
    6    5    6     -3.41     -0.25
    3    6    6      1.94      0.66
    6    3    6      2.98      0.69
    6    1    6      2.27      0.39
    1    6    6      1.94      2.36
    4    6    6     -0.07      4.94
    5    6    6      1.59      2.43
    6    6    6      2.18     -1.51
    7    6    6     -1.13      1.22
    7    5    6     -3.32     -0.23
    4    7    6      0.93      2.33
    7    3    6      0.54     -1.00
    7    2    6      1.74     -1.12
    1    7    6     -0.52      1.96
    7    1    6      0.01     -0.67
    7    0    6     -5.28      0.01
    2    7    6      6.17     -4.23
    3    7    6     -3.17     -2.48
    5    7    6     -1.06     -0.64
    6    7    6      0.29     -0.57
    7    7    6     -0.30     -2.03
    8    7    6     -0.13     -0.10
    8    6    6     -0.90      0.19
    8    5    6     -1.95     -0.45
    5    8    6      0.42     -0.20
    4    8    6      0.33     -3.77
    8    0    6     -2.32      0.00
    1    8    6      3.15     -2.69
    2    8    6      0.85     -3.17
    3    8    6      4.73     -1.67
    6    8    6      0.42     -0.06
    7    8    6     -0.59      2.72
    8    8    6     -0.32      2.33
    9    8    6     -2.45      1.65
    9    7    6      1.11     -0.03
    9    6    6      0.00     -2.36
    9    5    6      0.10     -1.46
    4    9    6     -1.59     -2.25
    9    3    6     -0.47      0.72
    9    2    6     -0.74      2.37
    9    1    6     -0.81      0.85
    1    9    6     -3.98     -3.86
    2    9    6      5.77     -2.25
    3    9    6     -1.56     -0.73
    5    9    6      7.24      1.21
    6    9    6     -0.29     -0.51
    7    9    6      1.22      2.44
    8    9    6      2.02     -0.45
    9    9    6     -0.58     -0.86
   10    9    6     -0.30     -0.45
   10    8    6     -1.32      0.63
   10    7    6      0.75      0.20
   10    6    6      0.33     -1.20
   10    5    6      1.89     -0.32
   10    3    6      0.36      0.79
   10    2    6      0.59     -0.34
    1   10    6     -1.78      0.72
    0   10    6     -2.55      0.01
    2   10    6      2.01     -2.62
    4   10    6      2.59     -2.40
    5   10    6      0.44     -0.58
    6   10    6     -2.19      2.00
    7   10    6     -0.79      0.27
    8   10    6     -2.59      0.70
    9   10    6      1.08     -0.51
   10   10    6     -1.78     -0.47
   11   10    6     -1.21     -0.83
   11    9    6     -1.78      1.08
   11    8    6      1.41     -1.21
   11    7    6     -1.51      1.69
   11    6    6     -1.33     -1.30
   11    5    6      0.33      0.27
   11    4    6      0.34      0.19
   11    3    6      0.17     -0.10
    1   11    6      1.08     -0.42
    0   11    6     -0.04      2.10
    2   11    6     -1.15      2.82
    4   11    6      2.41     -1.93
    5   11    6     -1.14     -2.00
    6   11    6     -1.24     -2.86
    7   11    6      2.29     -0.42
    8   11    6     -0.08      2.35
    9   11    6      1.10     -0.41
   10   11    6     -0.44      2.29
   11   11    6      2.13      0.08
   12   11    6      0.23     -1.67
   12   10    6      0.45      2.72
   12    9    6     -1.33      1.56
   12    8    6     -0.97     -0.46
   12    7    6     -0.52      0.66
   12    6    6      1.65      0.59
   12    5    6      1.10     -0.67
   12    4    6      0.18     -1.30
    2   12    6     -1.08      1.68
    1   12    6     -0.08      1.03
    0   12    6      0.32      0.05
    5   12    6     -1.36     -0.80
    6   12    6      3.52     -2.15
    7   12    6     -0.47      0.53
    8   12    6      3.67     -2.80
    9   12    6      0.20     -2.20
   10   12    6     -0.34      1.50
   11   12    6      0.09      1.30
   12   12    6      0.45     -0.61
   13   12    6     -0.87      0.15
   13   11    6      0.52     -0.44
   13   10    6     -0.14      0.25
   13    9    6     -0.42     -0.63
   13    8    6      0.16      0.09
   13    7    6     -0.61      0.53
   13    6    6      0.16     -0.42
   13    5    6      0.57     -0.54
   13    4    6      1.11     -1.75
    3   13    6      0.96     -2.04
    2   13    6     -0.59      1.45
    1   13    6      0.75     -0.88
    0   13    6      0.02      4.72
    6   13    6      1.27      0.33
    7   13    6     -0.13     -0.17
    8   13    6      1.74     -0.04
    9   13    6     -1.04      0.74
   10   13    6     -0.08     -1.36
   11   13    6     -2.08      0.18
   12   13    6     -0.96      0.86
   13   13    6      0.21     -0.97
   14   13    6      1.97     -0.51
   14   12    6     -0.59     -0.47
   14   11    6     -0.53      0.62
   14   10    6     -0.71      1.39
   14    9    6     -0.12     -0.65
   14    8    6      0.18      0.02
   14    7    6     -0.22      0.49
   14    6    6      0.17     -0.90
   14    5    6     -0.17      0.74
    4   14    6     -2.96      0.89
   14    4    6     -0.14      0.74
    2   14    6     -3.28     -1.47
    1   14    6     -0.46      1.63
    0   14    6      3.12      0.04
    7   14    6     -1.75      0.10
    8   14    6      0.76      0.09
    9   14    6      1.08      1.11
   10   14    6     -0.48     -1.07
   11   14    6      1.90      0.99
   12   14    6     -1.25     -0.44
   13   14    6     -0.07      2.06
   14   14    6      0.23     -2.33
   15   12    6     -0.73      0.79
   15   10    6     -0.27     -0.20
   15    9    6      0.10     -1.00
    9   15    6     -2.36     -1.46
   15    8    6      0.17      0.21
    8   15    6      0.16     -0.33
   15    7    6      0.33      0.00
   15    6    6      1.12     -0.09
   15    5    6     -0.38      1.22
    5   15    6      2.36      2.10
    4   15    6      0.73     -0.76
   15    4    6     -0.37     -0.17
    0   15    6      0.05     -2.30
    7   15    6     -1.34      0.29
   10   15    6     -1.35     -0.65
   11   15    6      1.21     -2.07
   12   15    6     -0.15     -2.27
   13   15    6      2.31      1.24
   14   15    6     -0.35      0.62
   10   16    6      1.81      0.78
    9   16    6      0.11      0.09
    8   16    6     -0.71     -1.31
   16    7    6     -0.70     -1.07
    7   16    6      0.18     -2.60
   16    6    6      0.86     -0.44
    6   16    6     -1.39     -0.28
   16    5    6      0.14      0.67
    3   16    6      1.53      0.33
    2   16    6      2.71     -0.44
   16    1    6     -0.84      0.17
   11   16    6     -0.19     -0.63
   12   16    6     -1.17     -0.08
   13   16    6      0.71     -0.27
   10   17    6      1.43      1.22
    9   17    6      0.47     -1.79
    8   17    6      1.30      2.50
    7   17    6     -1.71      1.83
    6   17    6     -0.87      0.82
    5   17    6     -0.47      2.32
    4   17    6     -0.44      1.59
    3   17    6     -1.87     -0.09
    2   17    6      1.57      0.29
    1   17    6      1.54     -1.62
    0   17    6      0.01      0.44
   11   17    6     -0.13     -0.28
   12   17    6      0.47      0.86
   10   18    6      2.04      0.99
    9   18    6     -1.00      0.59
    8   18    6      1.62      0.92
    7   18    6      0.76      2.51
    6   18    6      1.98     -1.43
    5   18    6      1.17      3.69
    4   18    6      3.75      0.93
    3   18    6     -1.34      1.15
    2   18    6     -2.32      0.64
    1   18    6     -0.47     -1.61
   13   18    6     -1.49      0.07
   10   19    6      0.40      1.00
    9   19    6     -0.34      1.97
    8   19    6     -3.24     -2.82
    7   19    6     -0.59      0.13
    6   19    6     -1.16      0.06
    5   19    6      0.55     -1.94
    4   19    6      0.51      0.96
    3   19    6      1.55      0.25
    2   19    6      0.27      0.63
    1   19    6     -0.75      1.57
   11   19    6      0.04      1.27
   12   19    6     -0.87      0.27
   13   19    6      0.13     -0.78
   10   20    6      0.09      0.22
    9   20    6     -1.18      0.52
    8   20    6     -0.44      0.76
    7   20    6     -0.20      0.52
    6   20    6     -1.54      3.09
    5   20    6      3.14     -0.08
    4   20    6     -0.48      0.48
    3   20    6     -1.72      0.58
    2   20    6      0.94      0.25
    1   20    6     -1.73      1.22
    0   20    6      1.90     -0.04
   11   20    6     -0.47      0.03
   12   20    6      0.15     -0.84
   10   21    6     -1.60      0.38
    9   21    6     -0.54     -0.77
    8   21    6      0.70      1.21
    7   21    6      2.62     -3.05
    6   21    6      0.75     -2.08
    5   21    6     -1.82      0.10
    4   21    6     -1.97      0.71
    3   21    6     -0.28      1.07
    2   21    6     -1.62     -1.26
    1   21    6     -0.18      1.42
    0   21    6     -0.02     -1.19
   11   21    6      0.11     -0.81
   12   21    6      0.20     -0.29
   10   22    6     -0.07      0.05
    9   22    6      0.07     -1.16
    8   22    6     -0.50     -0.30
    7   22    6     -1.54      0.79
    6   22    6      2.61      0.52
    5   22    6     -1.38      0.56
    4   22    6     -0.37     -1.61
    3   22    6     -0.16     -2.07
    2   22    6     -0.88     -0.35
    1   22    6      0.70     -0.04
    0   22    6     -0.31      0.02
   11   22    6      1.59     -0.22
   10   23    6      0.81     -0.30
    9   23    6      0.63      0.95
    8   23    6      0.54     -0.53
    7   23    6     -0.32      1.51
    6   23    6      0.08      0.21
    5   23    6     -0.22     -2.63
    4   23    6      0.42     -0.73
    3   23    6      0.18     -1.44
    2   23    6      2.09      0.05
    1   23    6     -0.42     -2.99
    0   23    6      0.00     -0.97
   11   23    6      0.42     -0.38
   10   24    6      0.22     -0.28
    9   24    6     -0.52     -1.19
    8   24    6      0.23     -0.88
    7   24    6      2.13     -0.38
    6   24    6     -0.37     -1.98
    5   24    6      0.58     -1.53
    4   24    6      0.48     -1.25
    3   24    6      0.66      0.45
    2   24    6     -0.69      0.33
    1   24    6      0.56      2.01
    0   24    6     -1.12      0.03
   10   25    6      0.00      1.05
    9   25    6     -0.20      0.76
    8   25    6     -1.21      0.24
    7   25    6      1.25     -0.44
    6   25    6     -1.69     -0.17
    5   25    6     -1.25      3.54
    4   25    6      0.08      0.03
    3   25    6     -1.43      1.19
    2   25    6     -0.02     -0.03
    1   25    6      0.02      0.42
    0   25    6      0.00      0.52
    9   26    6      0.69      1.40
    8   26    6     -0.79      0.32
    7   26    6     -0.31     -0.14
    6   26    6      1.31      1.11
    5   26    6     -0.80     -1.26
    4   26    6     -0.32     -0.55
    3   26    6      0.32      0.08
    2   26    6      0.40     -0.21
    1   26    6      0.19     -0.56
    0   26    6      1.88     -0.03
    8   27    6      0.93     -0.70
    7   27    6     -0.75     -0.86
    6   27    6      1.15      0.37
    5   27    6     -0.16     -1.44
    4   27    6      0.62     -0.56
    3   27    6      1.98     -0.45
    2   27    6      0.16      0.72
    1   27    6      0.26      1.51
    0   27    6     -0.01      0.42
    7   28    6     -0.49     -0.39
    6   28    6      0.24     -0.40
    5   28    6     -0.01     -0.21
    4   28    6     -0.07      0.38
    3   28    6      1.98      0.55
    2   28    6      1.36      0.49
    1   28    6      0.57     -1.58
    0   28    6     -0.24     -0.02
    6   29    6     -0.11     -0.14
    5   29    6      0.96      1.03
    4   29    6      1.24      1.42
    3   29    6      1.49     -0.74
    2   29    6      0.42      0.24
    1   29    6      0.70     -0.69
    0   29    6     -0.01      0.26
    5   30    6      0.42      0.11
    4   30    6     -0.78      1.04
    3   30    6     -1.37      0.31
    2   30    6      0.94      0.85
    1   30    6     -0.32      0.37
    0   30    6      1.09      0.00
    3   31    6      0.36     -0.11
    2   31    6     -0.80      0.66
    1   31    6      0.49      0.10
    0   31    6      0.01      0.80
    1    1    7    -17.86      6.63
    2    0    7     -0.01      8.61
    2    2    7     -7.99      5.19
    3    2    7     -5.29      0.77
    3    1    7      4.24      4.67
    3    0    7      0.01     -1.84
    3    3    7     -0.64     -2.95
    4    3    7     -6.47      2.52
    4    1    7      2.29     -1.02
    4    2    7     -0.70     -0.56
    3    4    7     -0.34     -1.99
    4    4    7     -0.12      3.79
    5    4    7      0.43     -2.47
    4    5    7      0.55      3.49
    5    3    7      1.30     -0.70
    5    2    7      0.87      0.12
    1    5    7      1.96     -1.88
    5    1    7      1.45     -2.36
    0    5    7      0.10      3.88
    3    5    7      1.91      4.61
    5    5    7      1.78     -0.08
    6    5    7     -0.51     -1.13
    3    6    7     -2.76     -0.67
    6    1    7     -1.64      1.03
    4    6    7     -2.02      1.04
    5    6    7      3.18      0.75
    6    6    7     -4.88     -1.84
    7    6    7     -1.74     -0.18
    7    5    7      0.83     -1.20
    7    3    7     -1.17      2.15
    3    7    7     -1.79      1.69
    7    2    7      1.96     -0.02
    2    7    7      7.03     -0.73
    7    1    7     -0.94      1.72
    1    7    7      4.90      2.55
    7    0    7     -0.01      1.86
    4    7    7      2.27      2.60
    5    7    7     -0.66     -0.27
    6    7    7     -2.66      2.52
    7    7    7     -0.19     -0.03
    8    7    7     -0.85      0.17
    8    6    7      0.39     -2.31
    8    5    7      4.04     -1.96
    8    0    7      0.00     -0.16
    1    8    7      2.90     -3.78
    2    8    7     -5.32     -1.39
    3    8    7      4.28     -3.38
    4    8    7      0.68      2.47
    5    8    7     -0.17     -0.84
    6    8    7      1.64      1.75
    7    8    7      2.78      2.16
    8    8    7      1.54     -1.87
    9    8    7     -1.43     -1.87
    9    7    7      0.90      0.60
    9    6    7      0.99     -0.56
    9    5    7     -0.33     -0.57
    4    9    7      1.26     -0.79
    9    3    7     -0.44     -1.09
    9    2    7     -1.08     -0.57
    1    9    7      0.71      1.28
    2    9    7      2.70     -1.93
    3    9    7      2.16     -2.91
    5    9    7     -1.17     -4.04
    6    9    7     -0.64      0.82
    7    9    7     -2.02      4.70
    8    9    7     -1.32      1.37
    9    9    7     -3.14     -0.03
   10    9    7     -0.06     -1.11
   10    8    7     -1.53      1.51
   10    7    7      0.10     -0.07
   10    6    7      0.64     -0.84
   10    5    7      0.25     -1.15
   10    4    7     -1.73     -0.23
   10    3    7     -0.46      2.65
   10    2    7      0.78      0.44
    0   10    7     -2.83     -0.07
    1   10    7      0.43      0.65
    2   10    7      0.81     -1.31
    4   10    7      3.69     -4.05
    5   10    7      0.11     -3.35
    6   10    7      1.37      2.05
    7   10    7     -3.35     -0.50
    8   10    7      0.06      1.62
    9   10    7     -0.35      1.74
   10   10    7      0.36      0.92
   11   10    7     -0.05      0.00
   11    9    7     -1.89      1.91
   11    8    7     -1.17      0.18
   11    7    7      0.80      0.07
   11    6    7      1.15     -1.16
   11    5    7     -0.07     -1.19
   11    3    7     -0.56     -0.47
   11    2    7     -0.36      0.15
    1   11    7     -1.51     -0.83
    0   11    7     -0.09      0.14
    2   11    7      1.41     -1.61
    5   11    7      3.27      2.08
    6   11    7     -1.87     -1.08
    7   11    7      3.17     -1.07
    8   11    7      1.77     -2.20
    9   11    7     -2.09     -2.97
   10   11    7     -1.92      0.27
   11   11    7      2.00      0.81
   12   11    7     -2.00     -0.19
   12   10    7     -0.95     -1.17
   12    9    7     -0.37      0.66
   12    8    7     -0.77     -0.06
   12    7    7      0.27     -0.66
   12    6    7      0.40      1.23
   12    5    7     -0.78     -0.58
   12    4    7     -0.40     -0.39
    2   12    7      3.56     -2.56
    1   12    7     -0.23      4.37
    0   12    7      0.50      0.00
    5   12    7      2.65     -0.95
    6   12    7     -0.45     -3.00
    7   12    7      1.35      1.93
    8   12    7      2.25     -0.86
    9   12    7      0.35     -0.25
   10   12    7     -2.08     -0.01
   11   12    7     -1.51     -0.40
   12   12    7      0.46      1.29
   13   12    7      0.14      0.42
   13   11    7     -0.84      1.19
   13   10    7     -1.80     -0.78
   13    9    7     -1.43      1.14
   13    8    7     -0.27      1.73
   13    7    7      0.76     -0.06
   13    6    7      1.94      0.61
   13    5    7      1.41      0.56
   13    4    7     -0.71     -0.15
    2   13    7     -0.10      2.37
    1   13    7     -1.68     -0.15
    0   13    7      0.01      1.16
    6   13    7     -1.90     -0.33
    7   13    7      1.32     -1.99
    8   13    7      0.48      1.79
    9   13    7      3.38     -0.15
   10   13    7      2.50      1.03
   11   13    7     -1.00     -0.54
   12   13    7      1.58      0.76
   13   13    7      1.57     -0.96
   14   13    7     -0.64      0.94
   14   12    7      0.37     -1.29
   14   11    7      0.10      1.28
   14   10    7     -0.01     -0.51
   14    9    7     -0.05      0.59
    9   14    7      0.80     -1.87
   14    7    7      0.30     -0.85
   14    6    7      0.09      0.47
   14    5    7      1.31      0.03
    3   14    7     -0.80      0.00
   14    3    7      0.08     -0.05
    1   14    7     -2.55      2.34
    0   14    7     -3.92     -0.01
    7   14    7      0.97      0.56
    8   14    7     -0.21      0.17
   10   14    7     -1.40      0.62
   11   14    7     -0.31     -1.06
   12   14    7     -0.50     -1.54
   13   14    7      0.00     -1.38
   14   14    7      1.28     -0.03
   15   12    7      0.59     -0.29
   15   11    7     -1.49     -0.50
   11   15    7     -0.48     -0.22
   15   10    7      1.03      0.19
   10   15    7      0.94     -0.79
   15    9    7     -0.07      0.82
    9   15    7     -0.90     -0.48
    8   15    7      0.62     -0.47
   15    8    7     -0.41     -0.77
   15    7    7      0.41      0.55
    6   15    7     -0.14     -1.95
    7   15    7     -2.80      1.32
   12   15    7      0.46      0.62
   13   15    7     -1.54      0.53
   14   15    7      1.18      0.41
   10   16    7     -0.66     -3.59
    9   16    7      0.29      1.99
    8   16    7     -1.77     -0.02
    7   16    7     -0.17      0.88
    6   16    7     -1.40      2.51
    2   16    7     -3.42      1.66
    0   16    7      3.58      0.06
   16    0    7      0.00      0.17
   16    1    7     -0.21      0.78
   16    2    7      0.23      0.15
   11   16    7      1.09      0.18
   12   16    7      1.08     -0.69
   13   16    7     -0.47      0.51
   10   17    7     -1.74      0.34
    9   17    7      1.94      0.59
    8   17    7      0.16     -0.41
    7   17    7      0.19     -2.35
    6   17    7      1.35     -0.62
    5   17    7      2.26     -0.10
    4   17    7     -2.64     -0.39
    3   17    7      0.81      4.80
    2   17    7     -0.38      0.92
    1   17    7     -2.96     -0.97
   11   17    7      0.59      1.61
   12   17    7      0.69     -2.35
   10   18    7      0.16     -0.34
    9   18    7      0.80      0.12
    8   18    7     -1.75      1.61
    7   18    7     -1.55     -2.29
    6   18    7     -1.56     -1.02
    5   18    7     -1.93      1.32
    4   18    7      0.19     -3.17
    3   18    7      1.62      0.62
    2   18    7      1.47     -1.09
    1   18    7      1.73      0.33
   11   18    7      1.44      1.60
   12   18    7     -1.28      1.57
   13   18    7     -0.73     -0.43
   10   19    7      0.33      0.89
    9   19    7      1.96      0.65
    8   19    7     -1.20      2.03
    7   19    7      0.13      2.79
    6   19    7      2.93      1.46
    5   19    7      0.04      0.05
    4   19    7      2.25      2.44
    3   19    7      0.56     -0.98
    2   19    7     -2.23     -0.21
    1   19    7     -0.11     -1.04
    0   19    7      0.02      0.56
   11   19    7      0.53      0.08
   12   19    7     -1.17      0.58
   10   20    7      1.10      1.35
    9   20    7     -0.61     -0.30
    8   20    7      1.55     -2.21
    7   20    7     -2.86     -1.31
    6   20    7      0.23     -0.08
    5   20    7      1.70      3.21
    4   20    7      1.00      1.52
    3   20    7     -1.17      1.21
    2   20    7     -0.54      2.37
    1   20    7     -1.18     -1.22
    0   20    7     -0.52      0.00
   11   20    7     -0.93      1.77
   12   20    7      0.00      0.02
   10   21    7     -2.04      0.01
    9   21    7     -0.52      0.04
    8   21    7     -0.47      1.79
    7   21    7     -0.28      0.82
    6   21    7      1.06      0.35
    5   21    7      0.87      2.60
    4   21    7     -1.07     -0.88
    3   21    7     -0.36     -0.92
    2   21    7     -1.64      0.52
    1   21    7      1.93     -0.04
    0   21    7     -0.05      1.02
   11   21    7     -0.29     -1.57
   12   21    7      1.53      0.37
   10   22    7      0.71     -1.07
    9   22    7     -0.54     -0.17
    8   22    7      0.14      2.31
    7   22    7      1.88      1.26
    6   22    7     -0.35     -0.84
    5   22    7     -0.97     -1.24
    4   22    7     -2.57     -1.23
    3   22    7      0.28     -0.65
    2   22    7     -0.12     -0.87
    1   22    7     -1.47     -0.28
    0   22    7      2.50     -0.04
   11   22    7      0.89      0.84
   10   23    7     -0.37     -0.87
    9   23    7      0.15      0.30
    8   23    7     -0.03     -1.34
    7   23    7     -0.04     -1.86
    6   23    7     -0.56      0.49
    5   23    7     -0.42     -2.18
    4   23    7     -0.06     -0.62
    3   23    7     -0.19     -0.86
    2   23    7      1.58      0.85
    1   23    7     -1.72     -0.19
    0   23    7      0.03     -0.84
   11   23    7     -0.98     -0.15
   10   24    7      0.26     -0.40
    9   24    7     -0.53      0.19
    8   24    7      0.42      1.63
    7   24    7     -2.25     -0.99
    6   24    7      1.59      0.14
    5   24    7      1.31      0.01
    4   24    7     -0.58     -0.52
    3   24    7      0.17     -0.33
    2   24    7     -1.25     -0.89
    1   24    7      0.63     -0.04
    0   24    7     -2.13     -0.02
    9   25    7      1.33     -0.86
    8   25    7      0.92      0.91
    7   25    7     -0.88      0.23
    6   25    7      1.05     -3.41
    5   25    7      0.36     -0.37
    4   25    7     -0.39     -0.90
    3   25    7      0.47     -0.65
    2   25    7      0.49      0.81
    1   25    7      0.07     -0.82
    0   25    7     -0.02     -0.09
    9   26    7      0.64     -1.00
    8   26    7      0.78      0.20
    7   26    7     -0.18      0.90
    6   26    7     -0.41     -1.78
    5   26    7     -0.60      0.46
    4   26    7     -0.54      1.34
    3   26    7      0.25     -0.61
    2   26    7     -0.04      2.05
    1   26    7      0.21      1.40
    0   26    7     -0.17     -0.01
    8   27    7     -0.07      0.12
    7   27    7     -0.78      0.16
    6   27    7     -2.10     -0.42
    5   27    7      1.28      0.40
    4   27    7     -0.36      0.51
    3   27    7     -0.28      0.74
    2   27    7      0.91     -0.03
    1   27    7     -0.04      0.54
    0   27    7     -0.02      0.66
    7   28    7      0.84      0.08
    6   28    7     -0.48     -0.22
    5   28    7      1.72     -0.03
    4   28    7      2.19     -0.95
    3   28    7      0.54      0.25
    2   28    7      0.57     -0.36
    1   28    7      0.00      0.47
    0   28    7      1.41     -0.03
    6   29    7      0.70     -0.62
    5   29    7      0.14     -0.01
    4   29    7      0.17      0.90
    3   29    7      0.31      1.55
    2   29    7      1.13      0.23
    1   29    7     -0.05      0.29
    0   29    7      0.01     -1.39
    5   30    7     -0.47      0.80
    4   30    7      0.76      0.76
    3   30    7      0.67     -0.27
    2   30    7      1.11      0.38
    1   30    7     -0.07      0.37
    0   30    7     -0.20     -0.07
    3   31    7      0.50      0.03
    2   31    7     -0.08      0.49
    1   31    7      0.46      0.68
    0   31    7     -0.04      0.59
    0    0    8    -28.17      0.00
    0    1    8     -0.01     -8.90
    1    0    8     -7.69      0.01
    1    1    8     -3.53      2.14
    2    1    8    -10.69      0.45
    2    2    8     -3.71      3.29
    3    2    8     -2.55     -1.55
    2    3    8     -2.74     -1.94
    1    3    8     -5.15      4.13
    3    1    8     -5.41      2.41
    3    3    8     -0.50      0.15
    4    2    8     -0.08     -2.30
    1    4    8     -3.17      0.19
    4    1    8      1.51      1.35
    0    4    8      1.65      0.16
    3    4    8     -3.27      3.90
    4    4    8      3.19     -0.02
    5    4    8     -1.60     -2.12
    2    5    8     -3.10      0.58
    5    1    8     -0.02      0.31
    1    5    8     -2.16      1.60
    0    5    8     -0.03      7.70
    4    5    8     -3.13     -1.15
    5    5    8     -3.25     -1.91
    6    5    8      0.78     -0.19
    6    2    8      0.36      1.19
    6    1    8      0.86      1.81
    1    6    8      2.28      3.72
    4    6    8      0.15      2.45
    5    6    8     -0.13      1.08
    6    6    8      1.28     -2.31
    7    6    8      1.21     -0.34
    7    5    8     -2.15     -0.32
    7    4    8      2.32     -2.52
    7    3    8      0.48      2.78
    7    0    8     -2.49      0.01
    3    7    8     -2.44      1.54
    4    7    8      1.27      0.87
    5    7    8     -0.04      4.23
    6    7    8      2.59      0.64
    7    7    8      1.09     -4.04
    8    7    8      1.05     -2.18
    8    6    8      0.46      0.41
    8    5    8     -0.52     -0.05
    4    8    8     -1.83     -1.77
    8    4    8     -0.66     -1.06
    8    3    8      0.40      0.69
    8    2    8      0.83      0.57
    8    0    8      1.05      0.00
    2    8    8      2.54      4.25
    3    8    8      3.72     -2.09
    5    8    8     -0.40      3.23
    6    8    8     -4.19     -1.40
    7    8    8     -0.82      2.28
    8    8    8      0.79      2.35
    9    8    8     -0.10      1.44
    9    7    8      0.95     -1.01
    9    6    8      1.83     -0.37
    9    5    8     -1.44     -1.36
    9    3    8     -1.15     -0.12
    2    9    8      3.20     -1.84
    9    2    8     -1.38      0.72
    1    9    8     -2.21     -0.01
    3    9    8      2.06     -0.36
    4    9    8      2.55     -0.75
    5    9    8      2.47      0.15
    6    9    8     -2.47     -0.69
    7    9    8     -2.80      2.87
    8    9    8     -0.62      2.43
    9    9    8      0.78      0.24
   10    9    8      1.29     -0.86
   10    8    8     -1.95      1.16
   10    7    8      0.00     -2.94
   10    6    8      1.02      0.24
   10    5    8      2.40      0.56
   10    4    8     -0.83     -0.77
   10    3    8     -0.34      1.19
   10    2    8      1.27      0.76
    1   10    8      0.22     -2.39
    0   10    8      2.03     -0.02
    2   10    8     -3.88      0.43
    4   10    8      1.47      0.69
    5   10    8      2.04     -0.21
    6   10    8      3.58      1.91
    7   10    8     -0.81      0.26
    8   10    8     -2.11     -0.73
    9   10    8     -1.21     -1.86
   10   10    8     -1.16      1.06
   11   10    8     -2.79     -0.53
   11    9    8      0.08     -0.22
   11    8    8      0.60     -1.70
   11    7    8      1.20      0.16
   11    6    8     -0.79     -0.95
   11    5    8     -1.26     -0.74
   11    3    8      0.10      0.05
    1   11    8      1.91     -0.58
    0   11    8     -0.02     -0.76
    4   11    8      0.77      0.77
    5   11    8      0.97     -3.21
    6   11    8     -2.58     -1.67
    7   11    8     -0.17      1.39
    8   11    8     -0.31     -0.02
    9   11    8     -0.54     -1.25
   10   11    8     -1.52      1.04
   11   11    8     -0.06      2.27
   12   11    8     -0.92     -0.37
   12   10    8     -1.21      1.20
   12    9    8     -1.10      0.98
   12    8    8     -0.80      0.15
   12    7    8     -0.22      0.38
   12    6    8      1.22     -0.13
   12    5    8      0.84      0.42
   12    3    8      0.02      0.81
    1   12    8      0.63     -0.19
    0   12    8     -2.28      0.05
    5   12    8     -2.73     -2.53
    6   12    8      2.67     -1.57
    7   12    8     -2.19      2.93
    8   12    8      2.24      0.14
    9   12    8      1.07      0.65
   10   12    8      0.35     -1.35
   11   12    8     -0.11      0.71
   12   12    8      0.98     -0.79
   13   12    8      0.51     -0.81
   13   11    8     -0.17      0.40
   13   10    8     -0.78      1.35
   13    9    8      0.32     -0.63
   13    8    8      0.49      0.89
   13    7    8      0.36      1.56
   13    6    8      0.85     -1.15
   13    5    8      1.11     -1.19
   13    3    8      0.33      0.74
    1   13    8     -1.85     -1.48
    0   13    8      0.00      4.47
    6   13    8      2.01      2.07
    7   13    8      2.51     -3.12
    8   13    8      2.42      0.09
    9   13    8     -0.57      0.81
   10   13    8     -0.49     -2.60
   11   13    8     -0.14     -0.09
   12   13    8     -2.31      0.51
   13   13    8     -1.37     -1.07
   14   13    8      1.27      0.07
   14   12    8     -1.25     -0.33
   14   11    8     -0.10     -0.64
   14   10    8     -0.40     -0.52
   14    9    8     -1.59     -0.18
    9   14    8      1.59     -0.28
   14    8    8      1.31      0.67
    8   14    8      1.25      0.37
   14    7    8      1.15      0.26
   14    6    8     -1.20     -0.04
   14    5    8      0.94     -0.16
    4   14    8     -1.51     -1.38
   14    1    8      0.36     -0.29
    1   14    8      1.39      3.66
    7   14    8      0.70     -1.09
   10   14    8     -0.96      0.88
   11   14    8      1.83     -0.06
   12   14    8     -0.06     -1.30
   13   14    8      0.58      2.76
   15   11    8     -0.60      0.62
   15   10    8     -0.61      0.85
   10   15    8      0.84      2.04
   15    9    8      0.64     -0.82
    9   15    8      0.01     -0.88
    8   15    8      0.99      1.58
    7   15    8     -0.83     -0.12
   15    7    8      0.57      0.34
   15    6    8      0.80      0.16
    6   15    8      0.61     -0.26
   15    5    8     -0.51      0.18
    5   15    8      1.31      0.95
    4   15    8      0.07     -3.01
    3   15    8     -2.68      3.34
   15    0    8     -2.17      0.00
   15    1    8      1.12     -0.53
   11   15    8      0.17     -0.99
   12   15    8      0.54     -1.80
   13   15    8      1.42     -0.64
   10   16    8      0.76      0.36
    9   16    8     -0.19     -2.12
    8   16    8     -3.23     -0.43
    7   16    8     -0.01     -1.75
    6   16    8      0.14     -0.12
    5   16    8     -1.27      0.22
    4   16    8     -0.71      4.68
    2   16    8     -0.55      3.24
   16    1    8     -0.44     -0.31
    1   16    8     -0.33      0.76
   16    0    8      0.30      0.00
   11   16    8      1.18     -0.62
   12   16    8      0.84      0.45
   10   17    8     -0.47      1.09
    9   17    8     -1.09     -1.32
    8   17    8     -0.04      1.42
    7   17    8     -3.08      0.89
    6   17    8     -0.48     -0.01
    5   17    8     -2.00      0.92
    4   17    8     -2.28      0.30
    3   17    8     -1.25     -1.92
    2   17    8      2.30     -1.67
    1   17    8      1.95      0.67
   11   17    8     -1.07     -0.34
   12   17    8      1.34     -0.36
   13   17    8     -1.07     -0.01
   10   18    8     -0.19      0.10
    9   18    8     -0.13      0.67
    8   18    8      2.18      0.74
    7   18    8      0.01     -0.85
    6   18    8      0.71     -0.83
    5   18    8      0.23      0.61
    4   18    8      0.42      0.16
    3   18    8     -2.76      2.54
    2   18    8     -3.17      0.82
   11   18    8     -0.29     -0.97
   12   18    8      0.89      1.08
   13   18    8     -0.58      0.49
   10   19    8      0.38      0.33
    9   19    8     -1.41     -0.04
    8   19    8     -2.48     -2.08
    7   19    8      0.38     -0.18
    6   19    8     -0.74     -1.09
    5   19    8      2.36     -1.09
    4   19    8     -0.12      2.48
    3   19    8      2.00      0.35
    2   19    8      0.07     -0.21
    1   19    8     -2.26     -0.95
    0   19    8      0.06     -1.80
   11   19    8      0.43      2.64
   12   19    8     -1.97      0.94
   10   20    8      0.03     -0.01
    9   20    8      0.07      0.73
    8   20    8      0.13     -0.58
    7   20    8     -0.11      1.53
    6   20    8      0.93      1.72
    5   20    8      2.50      0.62
    4   20    8     -0.09     -0.18
    3   20    8     -0.87      0.05
    2   20    8      1.98     -1.37
    1   20    8     -1.44      1.20
    0   20    8      1.86      0.02
   11   20    8     -0.66      1.52
   12   20    8     -0.54     -0.80
   10   21    8     -0.50      1.37
    9   21    8      2.08      0.32
    8   21    8      1.46      1.34
    7   21    8     -0.12     -1.58
    6   21    8      0.19      1.66
    5   21    8     -2.45      3.19
    4   21    8      1.12      0.86
    3   21    8      0.35      0.96
    2   21    8     -1.37     -0.47
    1   21    8      1.38      0.80
    0   21    8      0.01     -1.20
   11   21    8      0.61     -0.56
   12   21    8     -0.14     -0.05
   10   22    8     -0.89     -0.07
    9   22    8     -1.04     -0.37
    8   22    8     -1.57     -0.24
    7   22    8      0.51      1.87
    6   22    8      0.83     -0.28
    5   22    8     -0.57      0.90
    4   22    8     -0.45     -1.58
    3   22    8      0.62     -1.18
    2   22    8     -0.08      1.12
    1   22    8     -0.09      0.35
    0   22    8      0.15     -0.02
   11   22    8      0.90      0.24
   10   23    8     -0.30      0.16
    9   23    8      0.66      0.17
    8   23    8     -1.16     -0.17
    7   23    8     -0.56      2.07
    6   23    8     -0.40      0.05
    5   23    8      0.13     -2.06
    4   23    8     -0.17     -0.07
    3   23    8     -0.41     -0.60
    2   23    8      0.24     -0.67
    1   23    8     -0.91     -0.23
    0   23    8      0.01      1.80
   11   23    8     -0.50     -0.14
   10   24    8      0.16     -0.40
    9   24    8     -0.82     -0.70
    8   24    8      1.66      0.72
    7   24    8      0.31     -0.35
    6   24    8     -1.09     -1.64
    5   24    8      0.82     -2.79
    4   24    8     -0.29     -1.66
    3   24    8     -0.37      0.47
    2   24    8     -1.04     -0.44
    1   24    8      1.06     -0.40
    0   24    8     -0.93      0.00
    9   25    8     -0.45     -0.25
    8   25    8      0.01     -0.53
    7   25    8      1.87     -0.62
    6   25    8     -1.37      0.70
    5   25    8      1.20      0.90
    4   25    8      0.81     -0.82
    3   25    8     -1.42      0.02
    2   25    8      0.71     -0.71
    1   25    8     -2.42     -0.55
    0   25    8     -0.01      0.25
    9   26    8      0.57      1.70
    8   26    8     -1.28     -0.26
    7   26    8      0.31     -0.07
    6   26    8      1.61     -0.33
    5   26    8     -1.58     -2.19
    4   26    8      0.31      0.17
    3   26    8     -0.86      0.72
    2   26    8     -0.55     -0.10
    1   26    8      0.86      0.50
    0   26    8      1.00     -0.03
    8   27    8      0.67     -0.77
    7   27    8     -0.83     -1.17
    6   27    8      0.97      0.18
    5   27    8     -1.19     -0.99
    4   27    8      0.20      0.16
    3   27    8      1.20      0.72
    2   27    8     -0.55      1.40
    1   27    8      1.85     -0.13
    0   27    8     -0.01      0.80
    7   28    8      0.09     -1.01
    6   28    8      0.21      0.69
    5   28    8     -0.12      0.85
    4   28    8     -0.45      1.10
    3   28    8      1.94      1.04
    2   28    8     -0.72      0.82
    1   28    8     -0.26      0.04
    0   28    8     -1.55      0.00
    6   29    8     -0.37      0.34
    5   29    8      1.10      1.03
    4   29    8      0.74     -0.23
    3   29    8      0.20     -0.56
    2   29    8      0.13      0.25
    1   29    8     -0.04      0.10
    0   29    8      0.02      0.30
    4   30    8     -0.62      0.16
    3   30    8      0.23      0.41
    2   30    8      0.43      0.11
    1   30    8      0.55     -0.14
    0   30    8      0.75      0.02
    2   31    8     -0.35      0.31
    1   31    8      0.85     -0.13
    1    0    9     -0.01     -6.86
    1    1    9     -4.48     -3.23
    1    2    9     -6.05     -4.85
    2    1    9     -1.64      0.01
    2    2    9     -2.82      0.03
    0    3    9      0.09     -4.24
    2    3    9     -4.48     -2.45
    3    3    9     -0.66     -0.20
    3    4    9     -0.27     -3.51
    4    4    9     -0.71     -0.88
    5    4    9     -1.37      1.44
    5    3    9      1.83      1.28
    3    5    9      2.53      0.10
    2    5    9     -2.92      2.46
    5    1    9     -0.57     -0.43
    5    0    9      0.01      1.07
    0    5    9     -0.04      4.35
    4    5    9     -1.65      1.69
    5    5    9      3.39      0.20
    6    5    9      0.38     -3.25
    4    6    9     -2.40      2.73
    6    4    9     -1.82     -0.97
    6    3    9      0.58     -0.89
    6    1    9      0.58      1.47
    6    0    9      0.00     -2.03
    1    6    9     -2.73      3.21
    5    6    9      3.71     -1.80
    6    6    9      0.37     -2.33
    7    6    9      0.15     -2.40
    5    7    9     -1.61     -1.67
    7    5    9     -1.49      0.84
    7    3    9      0.21      1.84
    7    0    9      0.00      1.55
    2    7    9      4.71     -0.48
    3    7    9      2.27      0.51
    4    7    9     -2.24      1.43
    6    7    9     -0.58      1.13
    7    7    9     -0.91      1.18
    8    7    9      1.58      0.64
    8    6    9      0.40     -1.92
    8    5    9      3.38     -0.46
    8    2    9      0.97      1.42
    8    1    9     -1.53     -1.39
    2    8    9     -0.16      2.27
    3    8    9      3.32      0.83
    4    8    9      1.96      2.40
    5    8    9      0.63     -1.57
    6    8    9     -2.54     -1.04
    7    8    9      1.11      3.05
    8    8    9      3.98     -0.64
    9    8    9     -0.01     -2.11
    9    7    9      0.23     -0.40
    9    6    9      1.60     -1.81
    9    5    9     -0.47     -0.61
    9    2    9     -2.13     -0.89
    9    1    9      0.88     -0.31
    1    9    9     -1.10     -1.47
    2    9    9      0.58     -3.42
    3    9    9     -0.78      5.11
    4    9    9      2.86      1.99
    5    9    9      0.72      0.27
    6    9    9      0.91      0.19
    7    9    9      0.00      0.86
    8    9    9     -0.88     -0.52
    9    9    9     -2.00      0.36
   10    9    9     -0.99     -2.54
   10    8    9      0.98     -0.19
   10    7    9      0.36      0.72
   10    6    9     -0.53     -0.48
   10    5    9      0.53      0.65
   10    4    9     -2.03     -0.30
   10    3    9     -0.97      0.83
   10    2    9     -0.33     -0.17
    1   10    9     -1.12     -1.06
    4   10    9      1.66     -2.17
    5   10    9      0.86      0.78
    6   10    9     -2.26      0.93
    7   10    9     -2.72     -0.51
    8   10    9     -1.75      0.66
    9   10    9     -0.35      0.76
   10   10    9     -0.40      1.65
   11   10    9      1.30      1.07
   11    9    9     -1.12     -0.27
   11    8    9      0.06     -1.78
   11    7    9     -0.05     -0.01
   11    6    9      0.15     -0.98
   11    5    9      0.91      0.02
   11    4    9      1.45      1.90
   11    3    9     -0.66      0.85
    1   11    9     -1.09      1.69
    5   11    9      4.71      1.70
    6   11    9     -3.32      1.01
    7   11    9      0.67      1.44
    8   11    9      0.91      1.72
    9   11    9     -0.17     -2.83
   10   11    9     -1.29      0.36
   11   11    9      2.07      0.32
   12   11    9     -0.86     -0.74
   12   10    9     -0.44     -0.37
   12    9    9     -0.71      0.52
   12    8    9      0.57     -0.95
   12    7    9      0.42     -1.66
   12    6    9     -0.71     -0.08
   12    5    9     -1.67     -0.58
   12    3    9      0.26     -0.43
   12    2    9      1.28      0.38
    2   12    9      0.07      0.15
    1   12    9      0.79      0.40
    5   12    9      0.10      2.15
    6   12    9      3.40     -2.24
    7   12    9      0.91      0.46
    8   12    9      1.30     -0.20
    9   12    9      1.00     -0.81
   10   12    9     -0.73      0.98
   11   12    9     -4.32     -1.82
   12   12    9     -0.27      1.32
   13   12    9     -1.36      1.49
   13   11    9     -1.39     -1.01
   13   10    9     -2.24      0.05
   13    9    9     -0.61     -0.31
    8   13    9     -1.55      0.58
   13    7    9      0.47      1.75
   13    6    9      1.49      1.58
   13    5    9     -1.36     -0.46
    6   13    9     -0.01      0.13
    7   13    9     -1.21     -0.32
    9   13    9      1.19      1.29
   10   13    9      1.56     -0.25
   11   13    9     -0.55     -0.12
   12   13    9      0.25     -0.15
   13   13    9      0.95      0.25
   14   13    9      1.77      0.26
   14   12    9     -0.47     -0.18
   14   11    9      1.08      1.71
   14   10    9     -0.62     -0.05
   14    9    9     -0.99      1.31
    9   14    9      1.03      0.32
   14    8    9      0.83      0.56
    8   14    9      1.32      0.95
   14    7    9      1.04     -1.01
   14    6    9      0.79      1.24
   14    5    9      0.59      0.48
    4   14    9      0.73      0.43
   14    0    9      0.01      0.81
   14    1    9     -1.15     -0.11
    6   14    9      1.43     -3.59
    7   14    9      0.10      2.09
   10   14    9      0.09      0.13
   11   14    9      1.44      1.16
   12   14    9     -1.03     -1.33
   13   14    9      0.02     -1.10
   14   14    9     -0.28     -1.56
   15   11    9     -0.74     -0.76
   15   10    9      0.41     -0.57
   10   15    9      0.80     -1.77
   15    9    9      0.64      0.11
    9   15    9     -0.66      1.05
    8   15    9      1.82     -1.12
   15    8    9     -0.67      0.19
    7   15    9     -1.33     -0.69
   15    5    9     -0.51     -0.80
    4   15    9      0.59     -1.45
   15    4    9      0.53      0.21
    2   15    9      0.53     -1.61
   15    2    9     -0.38      0.42
   15    0    9      0.00     -1.18
   15    1    9     -0.40     -2.33
   15    3    9      0.32      1.33
    6   15    9      1.02     -1.43
   11   15    9      0.88     -1.11
   12   15    9      0.79      0.27
   13   15    9      0.28      0.70
   10   16    9     -0.64     -1.53
    9   16    9      0.71      2.59
    8   16    9     -1.07     -0.42
    7   16    9      1.05     -0.45
    6   16    9     -1.22      2.38
    5   16    9      1.10     -0.08
    4   16    9      0.03     -0.21
    3   16    9     -1.60     -2.36
   16    0    9      0.00     -0.82
   16    1    9     -0.73     -0.26
   11   16    9      0.63      0.55
   12   16    9      0.59     -0.23
   10   17    9      0.81     -0.66
    9   17    9      0.23     -0.82
    8   17    9     -0.71     -1.48
    7   17    9     -0.58     -1.15
    6   17    9     -0.04     -0.71
    5   17    9     -0.94      0.66
    4   17    9     -0.84     -0.41
    3   17    9     -0.45      7.64
    2   17    9     -1.60     -0.37
   11   17    9     -0.41      1.81
   12   17    9      0.38     -0.86
   13   17    9      2.37     -0.45
   10   18    9     -1.33      0.20
    9   18    9     -1.05      1.19
    8   18    9     -3.13      0.34
    7   18    9     -0.77     -1.82
    6   18    9     -1.38      0.76
    5   18    9     -1.39      0.89
    4   18    9      0.65     -1.27
    3   18    9      0.96     -0.68
    2   18    9     -0.68     -0.16
    1   18    9      1.56     -1.65
   11   18    9     -0.29     -1.19
   12   18    9      1.09      2.08
   10   19    9      0.49      0.24
    9   19    9      0.94      0.53
    8   19    9     -0.92      0.63
    7   19    9      3.48      0.26
    6   19    9      0.35     -0.81
    5   19    9     -0.86     -1.00
    4   19    9     -0.82      1.79
    3   19    9     -2.76     -3.38
    2   19    9     -0.02      0.53
    1   19    9      0.98      0.24
    0   19    9      0.02      0.37
   11   19    9     -1.13     -0.05
   12   19    9     -0.82      0.29
   10   20    9      1.36     -0.54
    9   20    9      0.13     -0.61
    8   20    9     -0.54     -1.24
    7   20    9     -2.87     -0.28
    6   20    9      1.87      2.62
    5   20    9     -0.16      1.51
    4   20    9      0.61      2.14
    3   20    9     -0.19      1.42
    2   20    9     -0.14     -1.22
    1   20    9      0.08     -1.53
    0   20    9     -2.24     -0.04
   11   20    9     -0.51      0.78
   12   20    9     -0.16      0.28
   10   21    9     -0.79      2.18
    9   21    9     -0.83      0.46
    8   21    9      0.74      1.58
    7   21    9     -0.84     -2.26
    6   21    9      0.99      1.49
    5   21    9      0.13      0.85
    4   21    9     -0.50     -1.49
    3   21    9      0.45     -1.68
    2   21    9     -0.64     -0.56
    1   21    9      1.91     -0.21
    0   21    9      0.00      0.93
   11   21    9     -1.92      0.60
   10   22    9      0.20     -1.59
    9   22    9     -0.97      0.65
    8   22    9      0.14      0.94
    7   22    9      1.74      1.34
    6   22    9     -2.22      0.72
    5   22    9     -0.19      0.49
    4   22    9     -0.06      0.44
    3   22    9      0.87     -0.08
    2   22    9      1.05      0.57
    1   22    9      0.15      1.23
    0   22    9      2.76      0.00
   11   22    9      1.47      1.26
   10   23    9      0.10     -0.32
    9   23    9      1.02     -0.01
    8   23    9     -1.31     -0.63
    7   23    9      0.03      0.55
    6   23    9      0.19      0.56
    5   23    9     -1.50     -0.97
    4   23    9      2.73     -0.73
    3   23    9      0.51      1.70
    2   23    9      0.29     -0.49
    1   23    9     -0.42     -0.33
    0   23    9      0.05     -0.50
   10   24    9     -0.87     -0.51
    9   24    9     -0.42      0.25
    8   24    9     -0.45      0.01
    7   24    9     -1.36     -1.02
    6   24    9      3.17      0.05
    5   24    9      0.44     -0.44
    4   24    9     -0.69     -1.33
    3   24    9     -0.13     -0.91
    2   24    9     -3.09      0.15
    1   24    9      0.41     -0.34
    0   24    9     -2.38      0.03
    9   25    9      0.58     -0.32
    8   25    9     -1.22      1.95
    7   25    9     -0.18     -1.93
    6   25    9      0.79     -1.48
    5   25    9      0.47     -0.83
    4   25    9     -1.35     -1.11
    3   25    9      0.64     -0.77
    2   25    9     -0.51     -0.39
    1   25    9     -1.10     -0.73
    0   25    9      0.02     -0.39
    8   26    9      0.59      0.97
    7   26    9      0.08     -0.54
    6   26    9      0.98     -1.88
    5   26    9      0.10      1.52
    4   26    9      0.15     -1.07
    3   26    9      0.15     -0.26
    2   26    9     -0.08      0.75
    1   26    9      0.12     -0.52
    0   26    9      0.11     -0.04
    8   27    9      0.25     -0.72
    7   27    9     -0.47     -0.05
    6   27    9      0.90     -0.56
    5   27    9      1.09      1.10
    4   27    9     -0.96      0.65
    3   27    9     -0.52      0.15
    2   27    9      0.61      0.78
    1   27    9     -1.86      1.33
    0   27    9      0.00      1.15
    7   28    9      0.76     -0.60
    6   28    9     -0.71     -0.20
    5   28    9     -0.01     -0.33
    4   28    9     -0.12     -0.28
    3   28    9     -1.02      1.08
    2   28    9      0.63      0.55
    1   28    9      0.27      0.75
    0   28    9      0.39     -0.02
    5   29    9     -1.05      0.49
    4   29    9      0.63      1.59
    3   29    9      0.50      1.01
    2   29    9      0.14      0.38
    1   29    9     -0.17     -0.51
    0   29    9      0.04     -0.45
    4   30    9      0.61      0.00
    3   30    9      0.49      0.09
    2   30    9     -0.42      0.64
    1   30    9     -0.60     -0.36
    0   30    9      0.03     -0.05
    0    0   10     -3.38      0.00
    1    1   10     -2.82     -0.68
    2    2   10     -0.55     -1.17
    3    2   10     -2.76     -0.10
    1    3   10     -3.16     -1.47
    0    3   10     -0.06     -1.05
    3    1   10     -1.06     -0.88
    3    3   10     -0.58     -0.49
    4    3   10      1.42     -1.22
    3    4   10     -2.00      2.28
    1    4   10     -4.25     -3.33
    4    1   10     -2.66      3.07
    0    4   10      1.47      0.01
    4    4   10      3.86     -0.25
    3    5   10     -1.66      2.10
    5    3   10     -1.40     -2.90
    2    5   10     -6.86     -0.34
    5    2   10     -0.33     -1.79
    4    5   10      0.59      0.90
    5    5   10     -0.57     -0.71
    6    5   10      0.24     -2.11
    5    6   10     -2.51      1.41
    6    3   10     -1.30      2.29
    3    6   10     -1.65     -1.42
    6    2   10      0.44      0.76
    6    1   10      0.11      1.02
    1    6   10      0.88      3.90
    6    0   10     -1.98      0.01
    0    6   10     -1.92     -0.03
    6    6   10     -0.76      0.24
    7    6   10      2.33     -0.93
    7    5   10     -0.49      0.64
    2    7   10     -0.88      5.81
    7    2   10     -1.30      0.31
    7    1   10     -1.00     -0.03
    1    7   10     -0.08      1.73
    3    7   10      0.28      0.39
    4    7   10     -0.42     -1.90
    5    7   10     -0.52      0.05
    6    7   10      1.89     -0.55
    7    7   10      1.57     -1.14
    8    7   10      1.96     -2.05
    8    6   10     -1.32     -0.35
    8    5   10      1.52      0.09
    8    4   10     -0.03      0.77
    3    8   10      1.84      1.97
    8    3   10     -1.26      0.33
    1    8   10      0.80     -6.45
    8    1   10     -2.43      1.09
    8    0   10     -1.51     -0.01
    2    8   10     -1.93      1.76
    4    8   10      0.66      2.46
    5    8   10     -0.54      0.59
    6    8   10     -0.26     -1.71
    7    8   10      0.32     -2.26
    8    8   10     -0.11      1.60
    9    8   10      0.41     -0.23
    9    7   10      1.05      0.01
    9    6   10      2.29      0.57
    9    5   10     -1.45      0.17
    3    9   10      2.78      0.25
    9    3   10     -1.41     -0.59
    9    2   10     -0.77     -1.43
    4    9   10     -0.12      0.69
    5    9   10      0.14      0.18
    6    9   10      1.58     -0.53
    7    9   10     -3.85     -0.56
    8    9   10     -2.32      3.55
    9    9   10     -0.07      1.30
   10    9   10      0.95     -0.84
   10    8   10     -0.38      0.32
   10    7   10     -1.07     -2.56
   10    6   10      1.14      1.00
   10    5   10      1.33      1.18
   10    4   10      0.10      0.23
   10    2   10      0.78      0.89
    1   10   10      1.48     -1.44
    4   10   10     -0.79      2.84
    5   10   10      2.19      0.33
    6   10   10      2.17     -0.47
    7   10   10     -1.93      1.54
    8   10   10      0.79     -1.40
    9   10   10      0.74     -1.67
   10   10   10      0.03     -0.23
   11   10   10     -0.29     -0.26
   11    9   10      0.74     -1.17
   11    8   10     -0.86     -1.47
   11    7   10      1.54     -1.03
   11    6   10      0.29      1.73
   11    5   10     -1.60     -0.24
    4   11   10      1.05      2.22
   11    4   10     -0.96     -1.28
   11    3   10      1.40     -1.31
    1   11   10      0.48      0.04
    5   11   10      1.92      0.22
    6   11   10     -0.73      0.37
    7   11   10     -1.57      0.29
    8   11   10      0.64     -0.98
    9   11   10      0.07     -1.55
   10   11   10     -1.65     -1.58
   11   11   10     -0.39      1.71
   12   11   10     -2.06      0.70
   12   10   10     -0.74     -2.76
   12    9   10     -0.15     -0.97
   12    8   10     -0.35     -0.47
   12    7   10     -0.15     -1.35
   12    6   10     -0.50      1.02
   12    5   10     -0.80      1.52
    4   12   10      1.96     -2.12
   12    4   10     -0.37     -0.38
    5   12   10     -0.69      0.91
    6   12   10      0.27     -1.42
    7   12   10     -2.06      1.71
    8   12   10     -1.34      2.05
    9   12   10      1.00      0.60
   10   12   10      0.88     -0.41
   11   12   10     -0.65      0.82
   12   12   10     -0.18      0.99
   13   12   10      1.87     -1.34
   13   11   10     -0.52      0.29
   13   10   10     -1.12      2.02
   13    9   10      0.39      0.25
    9   13   10      0.41      0.85
   13    7   10     -0.86      0.98
   13    6   10      1.11     -1.04
   13    5   10      1.01      0.20
   13    3   10      0.83      0.31
   13    2   10     -0.61      0.07
    2   13   10     -0.59      1.36
   13    0   10     -0.98      0.00
    6   13   10     -2.51      2.03
    7   13   10      1.77     -0.88
    8   13   10      1.70      2.46
   10   13   10     -2.33     -0.65
   11   13   10      1.64     -1.08
   12   13   10     -0.06      0.45
   13   13   10     -2.29     -1.14
   14   13   10     -0.30      0.39
   14   12   10     -1.18      0.68
   14   11   10     -0.49     -1.58
   14   10   10      0.20     -2.01
   14    9   10     -0.58      0.78
   14    8   10      1.48      1.33
    8   14   10      1.67      1.33
    7   14   10      1.10     -0.67
   14    6   10     -0.67     -0.04
   14    5   10      1.79     -0.03
    4   14   10      0.39     -1.40
   14    2   10     -0.14     -0.15
    2   14   10     -1.76     -0.64
    1   14   10      1.73      1.54
   14    0   10      0.42     -0.01
   14    1   10     -1.28      0.51
    6   14   10     -1.22     -0.42
    9   14   10      0.32     -1.98
   10   14   10     -0.45      2.41
   11   14   10     -0.69     -0.32
   12   14   10      0.34     -2.01
   13   14   10      0.50      0.45
   14   14   10     -0.50      1.47
   15   10   10     -0.37      0.70
   10   15   10      1.78      2.02
   15    8   10     -0.39      0.19
    8   15   10     -0.68      0.02
    7   15   10      0.14     -0.33
   15    6   10      1.17      0.25
    6   15   10      2.39     -0.71
    4   15   10     -2.51     -2.14
   15    1   10     -0.21      0.02
   15    0   10     -1.83      0.00
   15    2   10      1.27     -0.20
   15    3   10     -0.29     -0.27
   15    4   10     -0.49      0.00
    9   15   10      0.43     -0.70
   11   15   10     -0.98      1.54
   12   15   10      0.96      0.63
   13   15   10     -0.83     -0.35
   10   16   10     -1.66     -1.14
    9   16   10      0.74     -1.10
    8   16   10     -2.18     -0.71
    7   16   10      1.10     -1.84
    6   16   10      0.08     -0.76
    5   16   10     -1.24      0.09
    4   16   10      1.41      3.17
    3   16   10      1.86     -2.31
    2   16   10     -0.19      3.14
   11   16   10      1.26      0.32
   12   16   10      2.56      0.34
   13   16   10     -0.78      0.09
   10   17   10     -0.36      0.06
    9   17   10     -0.23     -0.96
    8   17   10      0.35      0.50
    7   17   10     -2.33     -0.18
    6   17   10      2.24      1.11
    5   17   10     -1.27      1.17
    4   17   10     -1.32     -0.94
    3   17   10     -0.07     -1.43
    2   17   10      0.28     -2.48
   11   17   10      0.68      0.78
   12   17   10      0.32     -0.91
   13   17   10      0.90     -0.44
   10   18   10     -0.57     -0.56
    9   18   10      0.71     -0.44
    8   18   10      1.73     -0.77
    7   18   10      0.24     -2.19
    6   18   10      0.65      0.28
    5   18   10      0.62      1.15
    4   18   10     -2.30      0.45
    3   18   10     -3.51      1.79
    2   18   10      0.32      0.01
    1   18   10      1.34     -0.14
    0   18   10     -0.59      0.04
   11   18   10     -0.19     -1.70
   12   18   10      0.40     -0.56
   10   19   10     -0.78     -1.67
    9   19   10     -1.88      0.91
    8   19   10     -1.31     -0.90
    7   19   10      0.50      1.17
    6   19   10     -1.31     -1.44
    5   19   10      1.37      2.37
    4   19   10      0.53      1.28
    3   19   10     -0.34      1.22
    2   19   10     -1.11     -1.21
    1   19   10     -1.37      1.03
    0   19   10     -0.01     -0.86
   11   19   10      0.44      1.09
   12   19   10     -1.10      0.52
   10   20   10      0.07      1.30
    9   20   10      0.51      1.08
    8   20   10     -1.01     -0.21
    7   20   10     -0.33      1.34
    6   20   10      0.77     -0.61
    5   20   10     -0.77      0.58
    4   20   10     -2.14     -2.27
    3   20   10     -1.18      0.38
    2   20   10      0.28     -1.46
    1   20   10      0.36     -1.09
    0   20   10      1.77      0.00
   11   20   10     -0.68      1.33
   12   20   10     -1.37     -0.07
   10   21   10      0.67      1.70
    9   21   10      1.36     -0.61
    8   21   10      0.37     -0.22
    7   21   10     -0.42      0.03
    6   21   10     -0.73      2.37
    5   21   10     -1.34      1.58
    4   21   10     -0.06      1.07
    3   21   10      0.44     -0.73
    2   21   10      0.67      0.72
    1   21   10      0.74     -0.85
    0   21   10      0.00      0.28
   11   21   10      0.54     -1.40
   10   22   10     -1.37      0.34
    9   22   10     -1.04      1.27
    8   22   10     -0.74      0.23
    7   22   10      0.61     -0.04
    6   22   10     -1.29      0.84
    5   22   10      0.18     -0.95
    4   22   10      0.81     -0.16
    3   22   10      2.24     -0.93
    2   22   10      0.23      0.33
    1   22   10     -1.04     -0.45
    0   22   10      1.20     -0.05
   11   22   10      0.24      0.19
   10   23   10      0.51     -0.16
    9   23   10     -0.09     -0.60
    8   23   10     -1.24      0.57
    7   23   10     -1.72      0.03
    6   23   10      0.61     -0.80
    5   23   10      0.29     -0.30
    4   23   10      0.60     -0.29
    3   23   10     -0.52      0.34
    2   23   10      0.17     -0.56
    1   23   10     -0.09      0.20
    0   23   10      0.04      0.83
    9   24   10     -0.67      0.41
    8   24   10      1.23      0.12
    7   24   10     -1.67      0.74
    6   24   10     -0.76     -1.76
    5   24   10      1.13     -0.29
    4   24   10      0.01      0.86
    3   24   10     -0.61     -0.65
    2   24   10      1.16      0.41
    1   24   10      0.34     -0.57
    0   24   10     -0.43      0.02
    9   25   10     -0.06      0.05
    8   25   10     -0.22     -0.36
    7   25   10      1.64      0.37
    6   25   10     -0.14      0.74
    5   25   10      3.29     -0.60
    4   25   10      0.91     -1.43
    3   25   10     -1.64     -1.41
    2   25   10      0.60     -1.65
    1   25   10     -1.40      0.35
    0   25   10      0.00     -0.39
    8   26   10     -1.07     -0.81
    7   26   10      1.74      0.15
    6   26   10      1.47     -2.05
    5   26   10     -0.58     -1.34
    4   26   10     -0.01      0.36
    3   26   10     -1.32     -0.48
    2   26   10     -0.54     -0.13
    1   26   10      1.84      0.70
    0   26   10     -2.32      0.02
    7   27   10     -0.09     -0.86
    6   27   10      0.24      1.36
    5   27   10     -1.03     -1.82
    4   27   10      0.12      0.66
    3   27   10      0.33     -0.21
    2   27   10     -0.56     -0.35
    1   27   10      0.56      0.33
    0   27   10      0.00      0.65
    6   28   10     -0.41      1.52
    5   28   10     -0.61      0.34
    4   28   10      0.32      0.43
    3   28   10      1.08      1.95
    2   28   10     -1.37      0.47
    1   28   10      0.10      0.32
    0   28   10     -0.92      0.03
    5   29   10      0.82      0.64
    4   29   10      0.11     -0.51
    3   29   10     -0.36      1.21
    2   29   10     -0.20      0.27
    1   29   10     -0.94      0.47
    0   29   10      0.01     -0.30
    3   30   10     -0.37      0.58
    2   30   10     -0.04      0.01
    1   30   10      0.25     -0.05
    0   30   10     -0.65      0.02
    0    1   11      0.03     -3.80
    1    1   11      0.62     -2.58
    1    2   11     -0.52      0.34
    2    2   11     -2.86     -1.33
    3    2   11     -0.90     -1.70
    0    3   11      0.03     -9.35
    1    3   11      2.16      1.56
    3    3   11      3.43      0.79
    4    3   11     -1.53      0.89
    2    4   11      0.48     -0.60
    4    2   11     -1.08     -3.49
    1    4   11     -1.72     -3.80
    4    1   11     -2.06     -1.90
    4    4   11      0.76      1.42
    5    1   11     -0.60      1.34
    5    5   11      0.10      0.99
    6    5   11      2.82      0.95
    6    4   11      0.08     -0.15
    6    3   11     -1.00     -0.58
    1    6   11     -5.18      4.00
    6    1   11      0.77     -0.71
    6    0   11     -0.02     -0.53
    6    6   11      0.63      0.51
    7    6   11     -0.26     -2.35
    7    4   11     -1.99      0.59
    7    3   11      0.75      1.12
    2    7   11     -3.15     -0.57
    7    2   11     -1.12      0.15
    7    0   11      0.02      1.68
    7    1   11     -1.00      0.84
    4    7   11     -1.64     -0.32
    5    7   11      1.22     -0.29
    6    7   11     -0.16     -2.89
    7    7   11     -2.02      1.03
    8    7   11      2.84      1.03
    8    6   11      0.43      0.88
    8    5   11      1.49      0.39
    8    1   11     -0.55     -0.37
    8    0   11     -0.01      0.76
    3    8   11     -3.29      1.46
    4    8   11      0.74     -0.08
    5    8   11      0.63     -0.65
    6    8   11     -1.69     -2.93
    7    8   11     -0.54      0.57
    8    8   11      1.85      1.46
    9    8   11      0.91     -0.31
    9    7   11      1.20     -0.05
    9    6   11      2.56     -1.29
    9    4   11      1.43      0.17
    4    9   11      0.26      3.34
    9    3   11      0.39     -0.04
    2    9   11      2.27     -1.74
    9    2   11     -3.14      0.11
    9    1   11      0.53     -0.48
    3    9   11      0.56      2.14
    5    9   11      0.53      0.31
    6    9   11      1.06     -3.05
    7    9   11      2.41      1.38
    8    9   11      0.46      0.50
    9    9   11      0.13     -1.01
   10    9   11     -0.82     -1.66
   10    8   11      0.89     -0.25
   10    7   11      0.45      0.93
   10    6   11     -0.63      0.25
   10    5   11      0.57      0.80
    5   10   11      0.98      2.45
    4   10   11      0.96      1.94
   10    4   11     -2.64     -0.79
   10    3   11     -0.49     -1.80
   10    2   11      0.29     -0.52
   10    1   11      0.46     -2.47
    6   10   11     -1.95      1.07
    7   10   11     -1.08      0.21
    8   10   11     -1.67     -0.54
    9   10   11     -0.99     -1.89
   10   10   11     -1.30      0.78
   11   10   11      0.39      0.82
   11    9   11      0.71     -1.58
   11    8   11      0.62     -1.97
   11    7   11      0.18      1.92
   11    6   11     -0.59     -0.27
   11    5   11      1.55      0.47
    2   11   11      0.20     -0.32
   11    1   11     -0.27      1.42
    5   11   11      0.73     -0.15
    6   11   11     -0.58      1.68
    7   11   11     -1.57     -1.19
    8   11   11      0.61      2.33
    9   11   11     -0.87      0.16
   10   11   11     -0.68     -0.14
   11   11   11      0.34      0.32
   12   11   11      1.50      0.46
   12   10   11      1.31     -1.00
   12    9   11     -0.52      0.15
   12    8   11      1.29     -0.11
   12    7   11     -0.82     -1.30
   12    6   11     -0.92     -1.52
   12    5   11      1.52      0.55
   12    4   11      1.66      0.27
    3   12   11      1.63      0.31
   12    3   11     -0.37     -0.60
   12    1   11      0.15      1.08
   12    0   11      0.00     -0.55
    6   12   11      1.22     -0.25
    7   12   11     -1.49      1.02
    8   12   11      0.58     -1.76
    9   12   11      1.63     -0.18
   10   12   11      1.94      0.33
   11   12   11     -2.68     -0.49
   12   12   11      0.30     -2.01
   13   12   11     -1.35      0.65
   13   11   11     -1.95     -2.15
   13   10   11     -1.33     -0.08
   13    9   11     -0.14     -2.64
    9   13   11      0.55      1.67
   13    8   11     -0.26     -1.15
    8   13   11     -1.89     -1.02
   13    7   11     -0.29      2.04
    7   13   11     -1.22      1.06
   13    6   11     -0.25     -0.31
   13    5   11     -0.71     -0.17
    4   13   11      0.92      0.14
   13    4   11     -0.44      0.25
    3   13   11      0.41     -1.48
   13    2   11     -0.39     -0.11
    2   13   11      1.98      1.28
   13    1   11     -0.04      0.42
   13    0   11      0.00     -0.40
    6   13   11      2.28      1.48
   10   13   11     -0.58     -0.62
   11   13   11      1.24      0.70
   12   13   11     -1.48     -1.83
   13   13   11     -0.24      0.06
   14   13   11      1.22     -1.22
   14   12   11     -0.70      1.02
   14   11   11      0.54      0.84
   14   10   11     -1.90      0.45
   14    9   11     -1.33      1.68
    9   14   11     -1.07      1.78
   14    8   11      0.54      0.25
    8   14   11      0.45      1.64
   14    6   11      0.29      1.92
   14    5   11     -0.51      1.12
    4   14   11      2.32     -1.41
    3   14   11     -0.47     -0.37
   14    1   11     -0.39      0.82
   14    0   11      0.00      0.31
   14    2   11     -0.57     -0.44
   14    3   11     -0.04     -0.56
   14    4   11      0.91     -0.57
    5   14   11     -2.65      0.41
    6   14   11      1.46     -3.65
    7   14   11     -0.35     -0.67
   10   14   11     -0.30     -0.27
   11   14   11      2.35      1.55
   12   14   11     -0.87      1.53
   13   14   11      1.33      0.65
   10   15   11     -0.26      0.13
   15    9   11      0.47     -0.13
    9   15   11     -0.96      1.60
    8   15   11      0.22      0.74
    7   15   11     -0.45     -0.85
   15    6   11      0.58      0.01
    6   15   11     -0.39     -0.59
   15    4   11     -0.01     -0.28
    4   15   11     -0.09     -1.05
    3   15   11      0.84      0.52
    2   15   11     -0.95      0.20
   15    1   11      0.53     -1.30
   15    0   11      0.01      0.70
   15    2   11     -0.74     -0.81
   15    3   11     -0.31      0.97
   11   15   11     -0.53     -0.38
   12   15   11      0.38     -0.09
   13   15   11      0.40      0.56
   10   16   11      0.78      1.62
    9   16   11      0.64      0.27
    8   16   11      0.13     -0.08
    7   16   11      1.28     -1.23
    6   16   11      0.27      0.51
    5   16   11      1.12     -0.58
    4   16   11      0.21     -0.16
    3   16   11     -3.77     -0.59
    2   16   11      0.25      1.00
   11   16   11      0.30      0.77
   12   16   11      0.04      0.26
   13   16   11     -0.63      0.09
   10   17   11      0.83     -1.29
    9   17   11     -1.58     -2.52
    8   17   11      0.35     -2.32
    7   17   11      0.34     -1.77
    6   17   11      0.08     -0.81
    5   17   11     -0.89      0.08
    4   17   11     -0.35      1.91
    3   17   11      1.92      4.18
    2   17   11     -1.14     -2.68
    1   17   11      0.30      0.43
    0   17   11      0.02      2.11
   11   17   11     -0.73     -0.66
   12   17   11     -0.80      0.67
   10   18   11     -0.65      0.48
    9   18   11      0.19      0.04
    8   18   11     -1.86     -1.27
    7   18   11      1.07      0.50
    6   18   11     -1.04      1.11
    5   18   11      0.91     -1.58
    4   18   11      1.34     -0.06
    3   18   11      0.53     -2.43
    2   18   11     -0.05      1.11
    1   18   11      1.11     -1.32
    0   18   11     -1.66     -0.04
   11   18   11     -2.06     -1.57
   12   18   11      1.21      0.47
   10   19   11      1.43     -1.18
    9   19   11      0.08      0.68
    8   19   11      0.70     -0.42
    7   19   11      1.57     -0.57
    6   19   11     -0.55      0.71
    5   19   11     -1.75     -0.99
    4   19   11     -1.69      1.48
    3   19   11     -0.93     -2.48
    2   19   11      0.41      0.43
    1   19   11      0.21      0.29
    0   19   11     -0.04     -0.74
   11   19   11      1.00     -0.14
   12   19   11      0.11      0.58
   10   20   11      0.60     -0.91
    9   20   11     -1.12     -0.73
    8   20   11      0.20      0.28
    7   20   11      0.21      0.19
    6   20   11      2.28      2.72
    5   20   11     -1.09      1.92
    4   20   11     -0.02      1.68
    3   20   11     -0.16     -0.13
    2   20   11     -0.68     -1.02
    1   20   11     -1.39      1.38
    0   20   11     -1.20      0.02
   11   20   11     -0.16     -1.95
   10   21   11      0.08      2.11
    9   21   11     -0.64      0.80
    8   21   11      0.19     -0.73
    7   21   11     -1.16     -0.43
    6   21   11     -1.15      0.27
    5   21   11     -0.57      0.35
    4   21   11     -1.02     -1.80
    3   21   11     -1.28     -0.32
    2   21   11      0.05      0.96
    1   21   11      1.55      1.07
    0   21   11     -0.01     -2.51
   11   21   11     -1.48      2.03
   10   22   11     -1.34     -0.86
    9   22   11     -0.03      0.93
    8   22   11     -0.95      0.74
    7   22   11      0.76      1.27
    6   22   11     -2.49     -0.52
    5   22   11      0.31      0.17
    4   22   11     -0.12     -0.06
    3   22   11      0.64      0.67
    2   22   11      0.71     -0.04
    1   22   11      0.38     -0.07
    0   22   11      0.55      0.00
   10   23   11      0.81     -0.08
    9   23   11      0.82     -0.82
    8   23   11     -0.84     -0.17
    7   23   11      0.19      0.87
    6   23   11     -1.29      0.14
    5   23   11     -0.51     -0.01
    4   23   11      1.88      1.39
    3   23   11      0.75      1.26
    2   23   11     -0.22     -1.67
    1   23   11     -0.03      0.32
    0   23   11      0.03     -0.48
    9   24   11     -0.55      0.60
    8   24   11     -0.65     -1.34
    7   24   11     -0.03     -0.72
    6   24   11      1.66      1.42
    5   24   11      0.51     -1.97
    4   24   11     -0.01      0.55
    3   24   11     -0.31     -0.94
    2   24   11     -0.32     -1.20
    1   24   11      0.66     -0.97
    0   24   11     -0.14      0.04
    8   25   11     -1.09      0.80
    7   25   11      0.23     -2.97
    6   25   11      1.05      0.92
    5   25   11      0.07     -0.61
    4   25   11      0.12     -1.02
    3   25   11      1.26     -0.26
    2   25   11     -0.57     -2.31
    1   25   11      0.29      0.28
    0   25   11      0.06      1.05
    8   26   11      0.45      0.21
    7   26   11      0.70      0.26
    6   26   11      1.07     -0.26
    5   26   11      0.42      1.81
    4   26   11      0.39     -3.47
    3   26   11     -0.28     -0.52
    2   26   11     -0.09      0.71
    1   26   11     -0.43     -1.53
    0   26   11      0.00     -0.03
    7   27   11      1.47      0.87
    6   27   11      1.75     -0.04
    5   27   11     -0.48      0.03
    4   27   11      0.00     -0.70
    3   27   11     -0.49     -0.83
    2   27   11      0.18      2.08
    1   27   11     -1.51      0.32
    0   27   11      0.01      0.19
    6   28   11     -0.50     -0.11
    5   28   11     -0.37     -0.74
    4   28   11     -0.48      0.61
    3   28   11      0.42      0.68
    2   28   11     -0.14      0.62
    1   28   11      0.31     -0.02
    0   28   11     -0.66     -0.01
    4   29   11      0.10      1.25
    3   29   11     -0.48      0.32
    2   29   11      0.13     -0.09
    1   29   11     -0.60     -0.36
    0   29   11      0.00     -0.01
    2   30   11     -0.59      0.00
    1   30   11      0.07     -0.35
    0    0   12      1.96      0.01
    1    1   12     -1.08     -0.31
    2    1   12     -1.16     -0.49
    1    2   12      0.64     -3.59
    2    2   12      2.33      1.04
    3    1   12     -0.62     -2.93
    3    0   12      3.23      0.02
    1    3   12      0.64     -0.89
    3    3   12     -1.28     -1.15
    3    4   12     -1.81      2.07
    4    3   12      1.75      0.06
    4    1   12     -1.00      0.95
    1    4   12      1.41     -2.83
    4    0   12     -0.59      0.01
    4    4   12      0.21      1.05
    5    3   12      1.83     -1.46
    1    5   12      2.30      0.40
    5    1   12     -0.53     -1.50
    5    5   12     -2.06      1.45
    6    4   12      0.97     -1.88
    4    6   12     -0.12      1.13
    6    3   12     -2.01     -0.66
    1    6   12     -4.29      0.43
    6    1   12      1.63      1.37
    6    0   12     -1.59      0.01
    6    6   12     -0.82      0.33
    7    6   12      0.56      1.36
    7    5   12     -1.26      1.07
    7    4   12      0.77     -0.23
    7    3   12      0.33      0.79
    7    2   12     -1.21      1.17
    7    1   12     -1.02     -1.25
    7    0   12      1.41      0.00
    2    7   12     -1.77      1.32
    4    7   12     -0.60      0.14
    5    7   12     -0.58     -1.97
    6    7   12      0.39      0.05
    7    7   12      0.95     -0.49
    8    7   12      1.37     -2.63
    8    6   12     -0.22      0.57
    8    5   12      0.37     -0.26
    8    4   12     -0.99      1.48
    8    3   12     -1.82      0.93
    8    1   12     -1.24     -0.35
    8    0   12     -1.20     -0.01
    3    8   12     -0.73      0.24
    4    8   12      1.71     -1.57
    5    8   12     -0.33     -0.24
    6    8   12      0.44      1.79
    7    8   12      2.23     -4.63
    8    8   12      0.86      0.81
    9    8   12      0.67      0.51
    9    7   12      1.41      1.20
    9    6   12      1.28      0.46
    9    3   12     -1.61     -1.57
    2    9   12     -2.18     -1.01
    9    2   12     -0.85     -1.64
    9    1   12      0.82      1.44
    9    0   12     -0.23      0.01
    3    9   12     -0.87     -0.45
    4    9   12     -3.62     -0.20
    5    9   12      0.52      0.34
    6    9   12      3.68     -0.62
    7    9   12     -0.49     -1.89
    8    9   12     -1.06      1.49
    9    9   12     -0.40      2.32
   10    9   12      0.03     -0.14
   10    8   12      1.91     -1.06
    8   10   12     -2.00     -0.38
   10    7   12      0.11     -0.10
   10    6   12     -0.34      0.48
   10    5   12      0.77     -0.02
    5   10   12      0.29      1.15
   10    4   12      1.01      0.25
   10    1   12     -0.78      0.54
   10    0   12     -2.12     -0.01
    4   10   12     -1.88      1.22
    6   10   12      2.88     -0.40
    7   10   12     -0.52      0.50
    9   10   12      1.79     -0.29
   10   10   12      0.43     -0.07
   11   10   12      0.98      0.76
   11    9   12      1.77      0.16
   11    8   12     -0.85     -0.68
    8   11   12     -0.36      0.76
   11    7   12      0.21     -0.38
   11    6   12      1.08      1.55
   11    5   12     -1.19     -0.89
    4   11   12      0.93      2.23
   11    4   12      0.47     -0.08
    3   11   12      1.50      0.10
   11    3   12      1.59     -0.32
    2   11   12      0.06     -0.42
   11    2   12      0.78     -0.98
   11    1   12     -0.15      0.69
   11    0   12     -0.87      0.01
    5   11   12     -1.56      1.68
    6   11   12     -0.41      0.96
    7   11   12     -0.56      0.01
    9   11   12      2.03     -0.58
   10   11   12      0.04     -1.79
   11   11   12     -0.47     -1.13
   12   11   12     -0.78      1.41
   12   10   12     -0.11     -2.90
   12    9   12      0.62     -1.75
    9   12   12     -1.18     -0.84
   12    7   12      0.45     -2.14
    7   12   12     -0.59     -0.48
   12    6   12     -0.68      1.81
   12    5   12     -0.84      1.15
   12    3   12     -0.01     -0.04
    2   12   12     -0.50     -0.71
   12    1   12      0.64     -0.65
   12    0   12      0.56      0.01
   12    2   12     -1.27      0.59
    6   12   12     -1.52     -2.24
    8   12   12     -2.47      2.66
   10   12   12      0.73     -1.25
   11   12   12     -1.10     -0.40
   12   12   12     -0.53      0.84
   13   12   12      0.53     -1.68
   13   11   12     -0.87     -0.66
   13   10   12     -0.18      1.12
   13    9   12     -0.32     -0.06
    9   13   12      1.95      0.16
   13    8   12     -1.07     -0.85
    8   13   12     -0.09      1.30
    7   13   12     -1.43     -2.01
   13    6   12      0.03      1.00
   13    5   12     -0.40      0.70
   13    4   12     -0.36      0.09
    3   13   12      0.35     -0.45
   13    1   12     -0.26     -0.99
   13    0   12      0.42      0.01
   13    2   12     -0.64     -0.05
   13    3   12      0.64      0.15
    5   13   12      2.11     -1.31
    6   13   12     -1.53      0.80
   10   13   12     -2.75      0.75
   11   13   12     -0.77     -1.31
   12   13   12      1.51      0.24
   13   13   12     -0.40      0.19
   14   12   12      0.10     -0.42
   14   11   12     -0.52     -0.67
   14   10   12      0.43     -0.78
   14    9   12      0.07      0.95
    9   14   12      1.41      0.23
   14    8   12     -0.03      0.55
    7   14   12     -1.05      0.94
    6   14   12     -0.96      0.75
   14    5   12      0.75      0.18
    4   14   12      1.09     -0.96
   14    4   12      0.23      1.08
    3   14   12      1.06      1.70
   14    1   12     -0.03      0.05
   14    0   12      0.74     -0.01
   14    2   12     -1.11     -0.65
   14    3   12     -1.56     -0.49
    5   14   12      1.63     -0.64
   14    6   12     -0.30      0.03
    8   14   12      1.20      0.78
   10   14   12      0.58      0.24
   11   14   12     -1.20      0.52
   12   14   12     -0.06     -1.39
   13   14   12      0.78     -1.50
   10   15   12      1.30     -0.33
    9   15   12      0.47      1.01
    8   15   12     -0.84      0.36
    7   15   12      1.46      1.24
    6   15   12      3.14     -1.90
    5   15   12      0.18     -2.60
    4   15   12     -0.98      0.62
   15    4   12     -0.54     -0.31
    3   15   12      1.72      2.95
   15    3   12      0.45     -0.47
   15    2   12      0.14      0.25
   15    1   12     -0.68      0.11
   15    0   12     -0.17      0.00
   11   15   12      0.95      2.70
   12   15   12      1.26      1.42
   13   15   12     -1.07      0.83
   10   16   12     -2.94     -0.55
    9   16   12      0.41     -1.13
    8   16   12     -0.59     -1.49
    7   16   12      0.02     -1.45
    6   16   12      0.68      0.52
    5   16   12     -1.88      1.45
    4   16   12      2.28      0.00
    3   16   12     -1.10     -0.03
    2   16   12      0.08      1.68
   11   16   12     -1.31      0.96
   12   16   12      0.35      1.41
   13   16   12      0.51      0.83
   10   17   12     -0.53     -1.01
    9   17   12      0.20     -0.02
    8   17   12      0.13      0.67
    7   17   12      0.78      0.43
    6   17   12      0.25      1.32
    5   17   12     -2.09      0.10
    4   17   12     -1.49     -2.24
    3   17   12      0.50     -0.67
    2   17   12     -0.12     -0.83
    1   17   12      0.39     -0.24
    0   17   12     -0.04      0.34
   11   17   12      0.17      1.20
   12   17   12     -0.61      1.25
   10   18   12      0.37     -0.63
    9   18   12      1.39      0.03
    8   18   12      0.40     -0.94
    7   18   12      0.62     -1.88
    6   18   12     -0.73     -0.25
    5   18   12     -1.04      1.72
    4   18   12     -1.73     -0.27
    3   18   12     -1.50      0.94
    2   18   12      2.99     -0.68
    1   18   12      0.02      0.41
    0   18   12     -1.58      0.04
   11   18   12     -0.21     -0.56
   12   18   12      1.89     -1.72
   10   19   12     -1.25     -1.38
    9   19   12     -1.14      0.08
    8   19   12      0.19     -1.65
    7   19   12      0.47     -0.50
    6   19   12      1.42      0.11
    5   19   12      1.70      2.67
    4   19   12      1.11     -1.20
    3   19   12     -0.48     -0.16
    2   19   12     -0.39     -0.03
    1   19   12     -0.54      1.04
    0   19   12      0.01      0.18
   11   19   12     -0.61     -1.02
   12   19   12     -0.42     -0.41
   11   20   12      0.57      0.90
   10   20   12      0.70      1.45
    9   20   12      0.15     -0.61
    8   20   12     -1.34     -0.20
    7   20   12     -0.04      0.09
    6   20   12     -0.29     -0.27
    5   20   12     -1.51     -1.26
    4   20   12     -1.40     -0.54
    3   20   12      0.44     -0.06
    2   20   12      0.90     -0.78
    1   20   12     -0.65     -1.12
    0   20   12     -0.43     -0.06
   10   21   12     -0.06     -0.05
    9   21   12     -0.49     -0.08
    8   21   12      0.73      0.17
    7   21   12     -0.56      0.88
    6   21   12     -0.42      1.32
    5   21   12     -1.09     -0.09
    4   21   12      0.26      0.65
    3   21   12      0.55     -0.50
    2   21   12      0.67      0.00
    1   21   12      0.20      0.07
    0   21   12     -0.03      2.35
   11   21   12      1.36     -0.45
   10   22   12     -1.03      0.76
    9   22   12     -0.50      0.47
    8   22   12      0.98     -0.23
    7   22   12     -0.13     -0.82
    6   22   12     -0.10      1.75
    5   22   12     -0.76     -0.11
    4   22   12      0.36      0.34
    3   22   12      0.24     -0.19
    2   22   12     -2.05      1.74
    1   22   12      0.53      0.27
    0   22   12      0.59     -0.03
    9   23   12     -1.52     -0.23
    8   23   12     -1.54      0.09
    7   23   12     -0.83     -0.42
    6   23   12      0.23     -1.09
    5   23   12     -0.10      0.83
    4   23   12     -0.36     -0.14
    3   23   12     -0.84      0.82
    2   23   12      0.17     -0.11
    1   23   12      1.09     -0.98
    0   23   12      0.04     -0.55
    9   24   12      0.10      0.59
    8   24   12     -0.31     -0.54
    7   24   12     -1.10      0.05
    6   24   12      0.00     -2.01
    5   24   12      0.61      2.09
    4   24   12      0.79      0.23
    3   24   12      0.04     -1.63
    2   24   12      1.75      0.63
    1   24   12      0.61     -1.71
    0   24   12      0.17      0.00
    8   25   12      0.42     -0.44
    7   25   12      0.33      0.55
    6   25   12      1.20      0.40
    5   25   12      1.65      0.20
    4   25   12     -1.45     -0.91
    3   25   12      1.02     -1.32
    2   25   12      0.10     -0.44
    1   25   12     -1.31      0.92
    0   25   12     -0.03     -2.04
    7   26   12      1.43      0.26
    6   26   12      0.07     -0.94
    5   26   12      0.82      0.25
    4   26   12     -0.25      0.45
    3   26   12      0.75     -1.38
    2   26   12      1.95     -0.11
    1   26   12     -1.13      0.61
    0   26   12     -0.91      0.05
    6   27   12      0.76      0.94
    5   27   12      0.66     -2.31
    4   27   12      1.15     -0.02
    3   27   12     -0.27     -1.42
    2   27   12     -1.13     -1.03
    1   27   12      0.59      1.13
    0   27   12     -0.02     -1.03
    5   28   12      0.67     -0.21
    4   28   12     -0.08      0.01
    3   28   12     -0.19      1.61
    2   28   12     -1.25     -0.56
    1   28   12      0.20     -0.12
    0   28   12     -0.76      0.04
    4   29   12      0.12      0.77
    3   29   12     -1.44      1.08
    2   29   12      0.05      0.36
    1   29   12     -0.57      0.27
    0   29   12     -0.01     -0.38
    1    1   13     -1.38     -1.08
    1    2   13     -2.62      1.52
    2    0   13     -0.01      1.04
    0    2   13      3.03      0.01
    2    2   13     -0.70      0.59
    3    2   13      0.92      0.05
    1    3   13      1.81     -1.44
    0    3   13      0.05     -4.29
    3    0   13      0.01     -2.04
    3    3   13      0.67     -0.05
    3    4   13     -0.47      2.92
    4    1   13      0.01      0.61
    4    0   13     -0.01     -2.27
    0    4   13      4.44      0.02
    1    4   13      0.22     -0.77
    4    4   13     -0.26     -1.14
    5    4   13      0.86      1.22
    4    5   13      0.20      0.16
    3    5   13     -1.09      0.10
    5    3   13      0.78      0.01
    1    5   13      1.18     -1.04
    5    1   13     -2.56     -0.89
    5    0   13      0.01      2.02
    5    5   13     -0.11      1.09
    4    6   13     -1.50      1.70
    6    4   13      0.33      1.26
    6    3   13     -0.21     -0.35
    6    2   13     -0.10      0.49
    2    6   13      1.93     -0.90
    6    1   13     -0.03      1.00
    6    0   13     -0.02     -3.30
    0    6   13      2.66      0.03
    1    6   13      0.03      0.64
    3    6   13     -0.51      0.66
    6    6   13     -0.48      1.41
    7    6   13      0.17     -1.54
    5    7   13     -2.04      1.24
    7    5   13      0.90      0.26
    7    4   13     -1.31      1.67
    4    7   13     -0.06     -1.64
    7    3   13     -1.75     -0.80
    7    2   13     -1.02      0.10
    2    7   13     -2.76     -1.55
    7    1   13     -0.59     -0.29
    1    7   13     -3.05     -1.19
    6    7   13      1.31     -1.04
    7    7   13     -1.34      0.00
    8    7   13      0.25      0.23
    8    6   13     -0.65      1.53
    5    8   13      0.38      0.78
    8    5   13     -0.51      1.54
    8    3   13     -0.46     -0.33
    8    2   13      0.70     -0.96
    8    1   13     -0.18     -0.20
    1    8   13     -1.33     -1.34
    3    8   13     -3.91     -1.20
    4    8   13     -1.75     -0.40
    6    8   13      1.97     -3.53
    7    8   13     -1.73     -1.47
    8    8   13     -0.13      1.11
    9    8   13      2.15      0.71
    9    7   13      1.71      0.72
    9    6   13      0.66     -0.01
    9    3   13      0.78      0.80
    3    9   13      1.09     -3.09
    9    2   13     -1.90     -0.04
    9    1   13     -1.39      0.17
    9    0   13      0.01      1.76
    4    9   13     -0.60      3.04
    5    9   13      0.92      1.00
    6    9   13      1.25     -5.00
    7    9   13      1.83     -0.51
    8    9   13      1.79      1.12
    9    9   13      0.28     -0.93
   10    9   13      0.12     -0.65
   10    8   13      0.57      1.03
    8   10   13      0.57      0.72
   10    7   13      0.33     -0.74
   10    6   13     -0.09      0.76
    5   10   13      1.57     -0.06
   10    5   13     -0.41      0.16
    3   10   13     -0.40     -0.92
   10    3   13      0.33     -1.63
   10    2   13      0.14      1.46
   10    0   13      0.01      0.80
   10    1   13      0.05     -2.63
    4   10   13      0.57     -2.36
    6   10   13     -0.32      3.50
    7   10   13      1.54      0.81
    9   10   13      0.20     -1.15
   10   10   13      0.08     -1.05
   11   10   13     -0.26      1.60
   11    9   13      2.22     -0.54
   11    8   13     -0.58     -0.91
    8   11   13      1.05     -1.13
   11    7   13      0.00      0.54
    7   11   13     -2.26     -1.46
   11    6   13      0.16      1.35
    5   11   13      0.05     -1.50
   11    5   13      0.38      0.19
    4   11   13     -1.28     -0.32
   11    4   13     -0.86      0.31
   11    2   13     -1.74     -0.82
   11    1   13     -0.79     -0.19
   11    0   13      0.01      0.06
   11    3   13      1.10      0.52
    6   11   13      0.26      1.72
    9   11   13     -0.25      2.49
   10   11   13     -1.52     -0.19
   11   11   13     -0.93      0.55
   12   11   13      1.93      1.71
   12   10   13      1.26     -0.21
   12    9   13      0.91      0.09
    9   12   13     -0.82     -0.91
   12    8   13      1.18     -0.20
    8   12   13     -1.02     -0.87
   12    7   13      0.16      0.16
    7   12   13     -1.77      1.25
   12    6   13     -0.52     -0.72
   12    5   13      1.22      1.88
    4   12   13     -0.41      1.11
   12    4   13      1.27      1.07
    3   12   13      1.14      1.53
   12    1   13     -0.58      0.08
   12    0   13      0.00     -0.65
   12    2   13     -0.68     -0.03
   12    3   13      0.04     -0.79
    6   12   13      0.34     -0.22
   10   12   13      1.04      0.22
   11   12   13     -1.32      1.01
   12   12   13     -0.73     -1.59
   13   12   13     -0.14     -0.68
   13   11   13      0.50     -1.46
   13   10   13      1.88     -0.74
   13    9   13      0.01     -1.63
    9   13   13      0.04     -0.83
    7   13   13      0.51      0.60
    6   13   13      0.89      1.01
   13    5   13      1.59     -0.15
    4   13   13      3.16      0.87
    3   13   13      0.81     -1.40
   13    1   13     -0.29     -0.26
   13    0   13     -0.01      0.14
   13    2   13      0.21     -0.12
   13    3   13     -0.75     -0.55
   13    4   13     -0.81      0.05
    5   13   13     -2.74     -1.94
    8   13   13     -1.74      0.26
   10   13   13     -0.06     -0.17
   11   13   13      0.92     -1.07
   12   13   13     -0.77     -0.68
   13   13   13     -1.22     -1.68
   13   14   13      0.89     -0.13
   14   12   13     -0.05      1.04
   14   11   13     -1.53     -0.58
   14   10   13     -2.00     -0.59
   14    9   13      0.09     -0.44
    9   14   13     -2.03      1.56
    8   14   13      0.15     -0.97
   14    7   13      0.22      0.74
    7   14   13      0.75     -2.28
    6   14   13     -1.21     -2.09
   14    5   13     -1.66      1.51
    5   14   13     -0.13      1.15
    4   14   13      3.76     -1.26
   14    4   13      0.04     -0.73
    3   14   13      0.05      0.30
   14    3   13      0.53     -0.91
    2   14   13     -0.91      1.32
   14    1   13      0.08      0.50
   14    0   13      0.00     -0.11
   14    2   13      0.11     -0.09
   10   14   13     -0.25     -0.64
   11   14   13      0.24     -0.61
   12   14   13      1.24      0.41
   10   15   13     -1.11      0.55
    9   15   13     -1.52     -0.13
    8   15   13      0.60      0.03
    7   15   13      1.59     -1.25
    6   15   13      1.05      0.49
    5   15   13      1.89      0.50
    4   15   13     -1.18      0.11
   15    4   13     -0.23     -0.63
    3   15   13      0.27     -0.81
   15    1   13      0.21      0.10
   15    0   13      0.00      1.04
    2   15   13     -3.44     -1.56
   15    2   13     -0.31     -0.21
   11   15   13     -1.83      1.04
   12   15   13     -0.16     -0.26
   13   15   13     -1.14      1.47
   12   16   13      0.07      0.34
   10   16   13      1.24      1.51
    9   16   13      1.17     -1.00
    8   16   13      0.62      0.82
    7   16   13      1.91     -0.22
    6   16   13      1.24      2.40
    5   16   13      0.25     -0.64
    4   16   13     -1.51      0.16
    3   16   13     -2.90      0.72
    2   16   13      1.05      1.93
    1   16   13     -0.59      1.21
    0   16   13      1.25     -0.02
   11   16   13      1.53      0.82
   12   17   13     -0.43     -0.14
   11   17   13      0.89     -0.31
   10   17   13      0.17     -0.39
    9   17   13      0.91     -0.15
    8   17   13     -0.01     -1.09
    7   17   13     -0.34     -0.07
    6   17   13     -0.20      1.17
    5   17   13     -0.15      0.20
    4   17   13     -0.53      3.53
    3   17   13      1.89      0.69
    2   17   13     -1.21     -1.05
    1   17   13      2.28      3.32
    0   17   13      0.04      0.34
   11   18   13     -1.89     -0.09
   10   18   13     -0.06     -0.16
    9   18   13     -0.33     -1.45
    8   18   13      0.01     -0.47
    7   18   13      0.61      1.29
    6   18   13      0.37     -1.13
    5   18   13      0.03     -0.78
    4   18   13     -1.09     -0.46
    3   18   13     -0.18      0.20
    2   18   13      1.55     -0.29
    1   18   13      0.75     -0.65
    0   18   13     -1.02     -0.01
   12   18   13     -1.18     -0.35
   11   19   13      1.31     -1.64
   10   19   13      0.67     -0.17
    9   19   13     -0.75      0.74
    8   19   13      0.76      0.05
    7   19   13      0.07      0.46
    6   19   13     -1.86      0.18
    5   19   13     -2.48     -1.14
    4   19   13     -0.88     -0.01
    3   19   13      1.36     -1.95
    2   19   13     -0.45      0.96
    1   19   13     -0.64     -0.59
    0   19   13     -0.09     -1.77
   11   20   13     -0.31     -1.45
   10   20   13      0.24      0.65
    9   20   13     -0.08     -0.07
    8   20   13      0.75      0.03
    7   20   13      1.28     -0.66
    6   20   13     -1.07      1.49
    5   20   13      0.08      0.95
    4   20   13      0.42     -0.43
    3   20   13     -0.24     -1.42
    2   20   13     -0.91     -1.27
    1   20   13     -0.55      1.75
    0   20   13      0.68      0.02
   10   21   13      0.25     -0.02
    9   21   13     -0.36     -0.84
    8   21   13     -0.24     -2.47
    7   21   13     -0.38      0.99
    6   21   13      0.13     -0.47
    5   21   13     -0.26      1.98
    4   21   13     -0.78     -1.57
    3   21   13     -1.00      1.29
    2   21   13      0.83      0.71
    1   21   13      0.06     -1.27
    0   21   13     -0.02     -0.39
   10   22   13     -0.85     -0.27
    9   22   13     -0.34      0.51
    8   22   13     -0.81      0.80
    7   22   13      0.09      0.00
    6   22   13     -0.95     -1.21
    5   22   13     -0.07     -1.20
    4   22   13     -0.20      0.49
    3   22   13      0.89      0.31
    2   22   13      0.54     -0.30
    1   22   13     -1.71      0.25
    0   22   13      2.38     -0.01
    9   23   13      0.39      0.02
    8   23   13     -0.28      0.22
    7   23   13     -0.46      0.68
    6   23   13     -1.56      0.03
    5   23   13      1.13     -0.75
    4   23   13      0.09      1.36
    3   23   13     -0.08      0.39
    2   23   13      0.61     -1.33
    1   23   13     -0.04      1.55
    0   23   13      0.01     -1.03
    9   24   13     -0.07      0.41
    8   24   13      0.43     -1.02
    7   24   13      0.06      0.15
    6   24   13      0.62      1.10
    5   24   13     -0.39     -0.72
    4   24   13     -1.28      1.12
    3   24   13     -0.25     -0.49
    2   24   13      0.68     -0.12
    1   24   13      0.45      0.41
    0   24   13     -1.68      0.03
    8   25   13     -0.36      0.19
    7   25   13      0.02     -1.44
    6   25   13     -0.49      1.40
    5   25   13      0.32      0.29
    4   25   13      1.60     -0.20
    3   25   13      1.79     -1.00
    2   25   13      0.82     -0.77
    1   25   13      1.90      1.19
    0   25   13      0.06     -0.49
    7   26   13      0.89      0.76
    6   26   13      0.13     -0.34
    5   26   13      0.61     -0.49
    4   26   13      1.75     -2.85
    3   26   13     -0.96      0.32
    2   26   13      0.54      0.34
    1   26   13     -0.83     -2.73
    0   26   13     -0.56      0.01
    6   27   13      0.71     -0.41
    5   27   13     -1.31     -0.46
    4   27   13      1.08     -0.96
    3   27   13      0.28      0.47
    2   27   13     -1.38      0.86
    1   27   13     -0.49     -0.74
    0   27   13      0.02      0.76
    5   28   13      0.78     -0.26
    4   28   13      0.48      0.33
    3   28   13      1.23      0.07
    2   28   13     -0.41      0.19
    1   28   13      0.29      0.25
    0   28   13      0.60      0.01
    3   29   13     -0.13      0.11
    2   29   13      0.27     -0.59
    1   29   13     -0.47      0.22
    0   29   13     -0.02      0.04
    0    0   14     -4.40      0.02
    0    1   14      0.02      0.50
    1    1   14     -0.25      1.55
    0    2   14     -1.23      0.01
    1    2   14     -2.02     -2.38
    2    2   14      0.20     -2.23
    3    2   14     -0.73      0.02
    3    1   14      1.58     -1.04
    1    3   14      3.87     -0.11
    3    0   14      0.83      0.00
    3    3   14     -0.66     -1.65
    4    3   14      1.70      0.79
    3    4   14      1.70      2.74
    4    2   14     -0.19      0.81
    1    4   14      1.29     -0.99
    4    4   14     -0.52      0.51
    5    2   14      2.01      1.26
    5    1   14     -1.73     -1.55
    2    5   14      0.31      1.01
    5    5   14     -0.44      2.76
    5    6   14      0.75      0.26
    6    4   14      1.83      0.07
    6    2   14     -1.57     -2.48
    6    0   14     -2.04     -0.01
    4    6   14     -2.56      0.16
    6    5   14      2.18      1.43
    6    6   14     -0.94      1.78
    7    6   14     -0.52      1.83
    5    7   14     -0.15      0.73
    7    5   14     -1.89      2.30
    7    4   14      0.69     -1.54
    7    2   14     -0.96      0.80
    7    1   14      0.36     -0.65
    6    7   14     -1.49     -0.11
    7    7   14      0.62      0.05
    8    7   14     -1.25      0.02
    8    6   14      0.21      1.29
    8    5   14     -1.59     -0.22
    8    4   14      0.23      0.50
    8    3   14     -0.77     -0.35
    8    1   14     -0.34     -0.65
    8    2   14     -0.17     -0.33
    5    8   14      1.41     -0.90
    6    8   14     -1.12      2.08
    7    8   14      1.36     -2.87
    8    8   14      1.77     -0.33
    9    8   14     -0.39      1.76
    8    9   14      0.92     -1.52
    9    7   14     -0.53      1.27
    9    6   14     -0.53      0.37
    5    9   14     -3.21     -1.39
    9    5   14      0.34      0.30
    9    4   14     -0.51     -0.57
    3    9   14      0.31     -2.63
    9    3   14     -0.42     -1.22
    9    1   14      0.13      0.09
    9    2   14     -0.48     -1.67
    4    9   14     -1.81     -2.31
    6    9   14      2.06      1.02
    7    9   14      2.32     -0.22
    9    9   14      0.11      1.20
   10    9   14      0.30      1.66
   10    8   14      0.87      0.16
    8   10   14     -4.15     -0.32
   10    7   14      0.97      0.48
    7   10   14      3.13     -0.62
   10    6   14     -0.90      0.02
   10    5   14      0.53      0.43
   10    4   14      0.94     -0.33
   10    3   14     -2.63     -0.48
   10    2   14      0.76      0.42
    0   10   14     -0.57     -0.02
   10    0   14     -2.45      0.01
   10    1   14     -1.31      0.76
    4   10   14     -0.92     -0.13
    6   10   14      2.70     -0.83
    9   10   14      0.96      0.08
   10   10   14      2.19      0.52
   11   10   14      0.20      1.15
   11    9   14      1.01      0.23
    9   11   14      1.48      0.98
   11    8   14      1.26     -0.24
   11    6   14      0.44      0.45
   11    5   14      1.00     -0.30
   11    4   14     -0.08      0.81
    2   11   14     -0.22      0.27
   11    2   14      1.48     -0.99
   11    0   14     -1.71      0.00
   11    1   14     -0.87      0.36
   11    3   14     -0.92      0.48
    5   11   14      0.14      2.25
    6   11   14      0.41     -0.05
    7   11   14      0.29      0.61
    8   11   14     -0.68      0.14
   10   11   14      1.81     -0.74
   11   11   14     -0.01     -0.72
   12   11   14      0.73      0.40
   11   12   14      0.13     -0.89
   12   10   14      1.21      0.34
   12    9   14      1.98     -0.69
   12    7   14     -0.53     -0.24
    7   12   14     -0.40     -1.03
    6   12   14     -1.66      0.21
    5   12   14      1.06      1.33
   12    5   14     -0.32      0.28
    4   12   14     -0.73     -2.90
    3   12   14      1.56      0.43
   12    3   14     -0.02     -1.65
    2   12   14      1.26      1.84
    1   12   14      1.12      1.61
   12    0   14      0.47      0.00
   12    1   14      0.24      0.64
   12    2   14     -1.17     -0.72
   12    4   14      0.78     -0.31
    8   12   14      0.11      1.80
    9   12   14     -1.24      1.81
   10   12   14     -0.17     -1.20
   12   12   14     -0.65     -0.47
   13   12   14      0.05      0.53
   12   13   14     -0.55      0.01
   13   11   14     -0.78      0.54
   11   13   14     -1.27     -1.17
   13   10   14      0.19     -1.02
   13    9   14     -0.34     -0.70
    9   13   14      1.39      0.95
   13    7   14      0.41     -1.15
    7   13   14     -1.73     -2.10
    6   13   14     -0.38      1.21
   13    5   14     -0.60      0.78
    5   13   14      0.72     -1.43
    4   13   14     -1.29      1.02
    3   13   14      0.27      1.73
   13    3   14      0.12     -0.46
    2   13   14      2.04     -0.96
   13    0   14      0.54      0.00
   13    1   14     -0.45      0.07
   13    2   14      0.27     -0.25
    8   13   14     -3.45     -1.03
   10   13   14     -1.96      0.28
   13   13   14      2.10     -0.22
   13   14   14      0.14     -1.21
   12   14   14     -2.30     -0.27
   11   14   14     -1.34      0.51
   10   14   14     -0.14     -0.68
   14    9   14      0.50      0.11
    9   14   14      0.21      1.10
   14    8   14     -1.15      0.43
    8   14   14     -0.69     -1.48
    7   14   14     -1.55      0.34
   14    7   14     -0.98      0.75
    6   14   14      1.34     -0.07
    5   14   14      1.75      0.50
    4   14   14      0.33      0.11
    3   14   14     -1.15      1.49
   14    0   14     -0.37      0.01
   14    1   14      0.56      0.04
    2   14   14     -3.99     -4.50
   12   15   14      1.27      0.60
   11   15   14      1.05     -0.69
   10   15   14      1.26     -0.33
    9   15   14     -0.62      0.09
    8   15   14      1.32      1.15
    7   15   14      0.48     -1.37
    6   15   14      2.40     -3.24
    5   15   14     -1.25     -0.28
    4   15   14      0.63      1.07
    3   15   14      0.44      1.30
   15    3   14     -0.34     -0.22
    2   15   14     -0.47      0.49
    1   15   14     -1.66     -0.81
    0   15   14     -0.01      2.37
   12   16   14     -0.50      1.77
   11   16   14     -2.22     -0.10
   10   16   14      0.35     -0.83
    9   16   14      0.26     -1.17
    8   16   14     -0.52     -0.12
    7   16   14      0.65      0.90
    6   16   14      0.74      0.45
    5   16   14      0.79      1.01
    4   16   14      2.76     -0.68
    3   16   14     -2.78     -0.14
    2   16   14      1.39      0.47
    1   16   14      0.13     -1.08
    0   16   14      0.40      0.06
   12   17   14     -0.26      1.73
   11   17   14     -1.18     -0.04
   10   17   14     -0.36     -2.61
    9   17   14      0.97      0.53
    8   17   14      1.30     -0.19
    7   17   14      2.42      0.85
    6   17   14     -1.08      0.89
    5   17   14     -0.72     -0.85
    4   17   14     -0.85     -0.50
    3   17   14     -0.71     -0.70
    2   17   14     -1.73     -0.30
    1   17   14      2.59      0.42
    0   17   14      0.04      1.67
   11   18   14     -0.03     -0.01
   10   18   14      1.54     -0.04
    9   18   14      0.75      1.06
    8   18   14      0.57     -0.65
    7   18   14     -0.47      0.03
    6   18   14     -2.25      1.36
    5   18   14     -1.82      1.66
    4   18   14      0.17     -0.42
    3   18   14      0.32      1.72
    2   18   14      2.48      2.17
    1   18   14     -1.26      0.38
    0   18   14      0.16      0.04
   11   19   14     -0.09     -0.31
   10   19   14     -0.70      0.15
    9   19   14      0.24      0.95
    8   19   14     -0.47     -1.19
    7   19   14      1.01      0.36
    6   19   14      1.93      1.98
    5   19   14     -0.24     -1.36
    4   19   14     -0.42      0.24
    3   19   14     -1.32      0.61
    2   19   14      0.52      1.50
    1   19   14     -0.26     -0.69
    0   19   14      0.06     -0.87
   10   20   14     -0.18     -0.30
    9   20   14     -0.43     -1.84
    8   20   14     -0.63      0.13
    7   20   14      0.93     -0.54
    6   20   14     -0.53      0.55
    5   20   14     -1.31     -0.65
    4   20   14     -0.46      0.66
    3   20   14      0.21      0.27
    2   20   14     -0.52     -1.70
    1   20   14     -0.66     -0.03
    0   20   14     -0.82     -0.06
   11   20   14      0.92      1.19
   10   21   14     -1.13      0.24
    9   21   14     -0.46      0.38
    8   21   14      1.41      0.19
    7   21   14     -1.15     -0.14
    6   21   14     -1.65     -0.51
    5   21   14     -1.11     -0.86
    4   21   14      0.72     -1.52
    3   21   14      2.07     -1.36
    2   21   14     -0.97      0.09
    1   21   14      0.46      0.64
    0   21   14     -0.01      0.39
    9   22   14      0.07     -1.50
    8   22   14      0.81     -0.07
    7   22   14      0.05     -0.84
    6   22   14     -1.06      1.86
    5   22   14     -1.05     -0.82
    4   22   14      0.68      0.73
    3   22   14     -0.79     -0.80
    2   22   14     -0.70      1.22
    1   22   14      1.10      0.25
    0   22   14     -1.77     -0.01
    9   23   14     -0.86     -0.59
    8   23   14     -0.34     -0.43
    7   23   14      1.31      0.50
    6   23   14      0.70     -0.42
    5   23   14     -0.92      1.38
    4   23   14     -0.55      0.10
    3   23   14     -1.43      0.62
    2   23   14      0.41     -0.70
    1   23   14      0.83     -0.47
    0   23   14      0.01      1.61
    8   24   14      0.00     -0.53
    7   24   14     -0.85     -0.18
    6   24   14      1.03     -0.87
    5   24   14     -0.14      1.52
    4   24   14      0.71     -2.25
    3   24   14      0.67     -0.30
    2   24   14      1.86      0.07
    1   24   14      0.46     -0.91
    0   24   14      1.60     -0.01
    7   25   14      0.05      0.51
    6   25   14      0.60      0.48
    5   25   14     -0.58     -0.19
    4   25   14     -0.89      0.01
    3   25   14      2.25      0.51
    2   25   14     -1.36      0.62
    1   25   14     -0.84      0.31
    0   25   14     -0.03     -2.82
    6   26   14     -0.57      1.08
    5   26   14      0.23      1.01
    4   26   14     -0.48      0.46
    3   26   14      2.29     -0.24
    2   26   14      0.10      0.05
    1   26   14     -1.34      0.12
    0   26   14      2.09      0.01
    5   27   14      1.22     -0.88
    4   27   14      0.90     -0.85
    3   27   14     -0.37     -1.60
    2   27   14      0.24      0.10
    1   27   14      1.64     -0.71
    0   27   14     -0.03     -0.90
    4   28   14     -0.04      0.31
    3   28   14     -0.93     -0.60
    2   28   14     -0.03     -1.30
    1   28   14     -0.44     -0.11
    0   28   14     -0.25      0.01
    1   29   14     -0.14      0.54
    0    1   15     -0.03     -2.40
    1    1   15     -3.08     -2.11
    1    2   15      0.15      1.41
    2    1   15     -2.07      0.35
    2    2   15      0.95     -0.28
    3    1   15      1.44      0.33
    1    3   15     -0.24     -1.71
    3    3   15      1.54     -1.64
    4    3   15      2.09      0.16
    3    4   15     -0.09      1.17
    1    4   15      0.61      0.91
    4    4   15     -1.64      0.57
    4    5   15      0.29      1.31
    5    4   15      1.58      2.46
    3    5   15     -1.39     -0.45
    5    3   15     -0.80      0.42
    5    2   15      0.14     -2.12
    2    5   15      2.26      2.31
    5    1   15     -0.35     -0.48
    1    5   15      2.35      1.09
    5    5   15      0.07      1.02
    5    6   15     -0.07      0.26
    6    5   15     -0.22     -0.07
    6    3   15     -0.10     -0.09
    6    2   15     -1.64     -1.38
    6    1   15      0.45     -0.41
    1    6   15      0.63     -0.93
    2    6   15      1.36      0.34
    6    6   15      0.05      2.61
    7    5   15      0.80      2.14
    7    4   15     -0.20     -0.64
    4    7   15     -0.40     -0.81
    7    3   15     -0.92     -2.53
    7    2   15     -0.17     -0.49
    7    1   15     -1.02     -0.78
    0    7   15     -0.02      1.96
    7    0   15      0.00     -0.60
    3    7   15     -1.49     -0.35
    5    7   15     -2.19      1.77
    7    7   15     -0.06      0.38
    8    7   15     -2.42      0.14
    7    8   15     -0.35     -0.24
    8    6   15     -1.20      0.41
    5    8   15     -1.73      1.38
    8    5   15      0.11     -0.33
    4    8   15     -3.24     -1.04
    8    4   15     -1.53      0.89
    3    8   15     -0.51     -0.22
    8    3   15     -0.69     -1.90
    8    2   15      0.54     -0.58
    1    8   15      0.89     -2.82
    8    1   15      0.99      1.04
    0    8   15     -0.85      0.01
    8    0   15      0.00     -0.81
    6    8   15      2.15      0.18
    8    8   15     -0.35      0.74
    9    8   15      0.48     -0.18
    8    9   15      1.56      2.00
    9    7   15      1.30      1.33
    7    9   15      0.48     -2.81
    9    6   15     -0.51      0.93
    6    9   15     -0.27     -2.15
    9    5   15     -0.13      0.02
    9    3   15      0.84     -0.04
    3    9   15      1.80     -3.81
    9    2   15     -3.01     -1.79
    2    9   15     -2.61     -0.29
    9    1   15     -1.17      1.02
    5    9   15      0.72      3.20
    9    9   15     -0.95      1.48
   10    9   15     -0.42     -0.78
    9   10   15      1.67      0.06
   10    8   15      0.35      0.26
   10    6   15      1.14     -0.55
    6   10   15     -0.09      2.39
   10    5   15     -0.73      0.01
    5   10   15      2.53     -2.94
   10    4   15      0.21     -0.58
    4   10   15     -0.59     -2.19
   10    1   15     -0.51     -1.38
    0   10   15     -0.02     -0.04
   10    0   15     -0.02     -0.05
    1   10   15     -1.38      0.38
   10    2   15      0.10      1.43
   10    3   15     -0.35     -0.61
    7   10   15      1.88     -0.55
    8   10   15      1.47      1.13
   10   10   15      0.27     -1.37
   11   10   15      0.29      1.09
   10   11   15     -0.08      1.55
   11    9   15      0.79     -0.12
    9   11   15      1.23     -0.34
   11    8   15      0.34      1.24
    8   11   15      1.53     -2.15
   11    7   15     -0.50     -1.03
    7   11   15     -1.28      2.02
   11    6   15      0.01      1.11
    6   11   15      0.60      0.11
    5   11   15     -2.38     -2.57
    4   11   15     -0.57     -0.81
   11    4   15     -0.72     -0.96
   11    3   15     -0.43     -0.82
   11    2   15     -0.93      0.00
    1   11   15      1.60     -0.45
   11    1   15      1.04     -1.48
   11    5   15     -0.26      0.40
   11   11   15     -1.13      0.08
   12   11   15      0.53      1.32
   11   12   15     -0.72      0.21
   12   10   15     -0.32      1.95
   10   12   15      2.18      0.66
   12    9   15      1.31      0.63
    9   12   15     -1.36     -1.40
   12    8   15     -0.08     -0.22
    8   12   15     -0.58      0.77
   12    7   15      0.79      0.32
    7   12   15      0.16      0.30
    6   12   15      0.44     -0.30
   12    6   15      0.03      0.34
    5   12   15      0.44      0.98
    4   12   15      0.59      1.33
    3   12   15      0.85     -0.54
   12    3   15      0.42     -0.10
    2   12   15     -1.18     -0.21
    1   12   15     -0.31     -2.06
   12    1   15     -0.32     -0.14
    0   12   15      0.81      0.07
   12    0   15     -0.01     -0.28
   12    2   15     -1.22     -0.43
   12   12   15     -0.39      0.57
   13   12   15      0.46     -0.79
   12   13   15      0.84      0.05
   13   11   15      1.38      0.60
   11   13   15      0.09     -1.71
   13   10   15      2.41     -0.23
   10   13   15      0.10     -0.40
    9   13   15     -0.86     -0.41
   13    8   15      0.74      0.27
    8   13   15     -1.46      0.98
    7   13   15      1.66      0.48
    6   13   15     -1.00     -0.33
   13    5   15      1.20     -0.49
    5   13   15     -0.53     -0.34
    4   13   15      3.18      2.41
    3   13   15     -2.18     -0.35
    2   13   15     -1.11      2.89
   13    1   15     -0.31      0.70
   13    9   15      0.68     -0.18
   13   13   15     -0.67     -0.89
   12   14   15      0.75     -1.47
   11   14   15     -0.01     -0.14
   10   14   15     -1.12     -0.02
    9   14   15     -1.38      0.87
    8   14   15      0.47     -1.60
    7   14   15     -0.93      0.52
    6   14   15     -2.20     -0.90
    5   14   15      1.49     -0.13
    4   14   15      1.06     -0.81
   14    3   15      0.53      0.15
    3   14   15      1.31      1.78
    2   14   15     -1.42      0.26
    1   14   15      1.03     -0.60
    0   14   15     -2.65      0.02
   12   15   15     -1.06      0.27
   11   15   15     -1.49      0.53
   10   15   15     -2.30      0.17
    9   15   15     -0.10     -0.76
    8   15   15      1.97     -0.21
    7   15   15      1.10     -0.29
    6   15   15     -0.60      0.71
    5   15   15      0.85     -0.33
    4   15   15     -1.60      1.42
    3   15   15     -0.41     -2.19
    2   15   15     -2.47     -2.45
    1   15   15     -1.35     -2.23
    0   15   15      0.10     -0.84
   12   16   15     -0.68      0.39
   11   16   15      0.36      0.40
   10   16   15     -0.27     -0.59
    9   16   15      1.69     -1.09
    8   16   15      0.69     -0.30
    7   16   15      2.57      0.06
    6   16   15      0.27      1.74
    5   16   15     -0.82     -2.41
    4   16   15     -2.01     -0.36
    3   16   15     -1.89      0.72
    2   16   15      0.46     -2.50
    1   16   15     -0.50      1.29
    0   16   15      1.23     -0.04
   11   17   15      1.51      0.46
   10   17   15      1.31      0.47
    9   17   15      0.90     -0.51
    8   17   15     -1.24      0.27
    7   17   15     -1.39      0.86
    6   17   15      0.50      1.25
    5   17   15     -0.20      0.34
    4   17   15      0.96     -0.68
    3   17   15      2.37      0.20
    2   17   15     -0.29      1.28
    1   17   15      1.04      3.11
    0   17   15     -0.02     -0.25
   12   17   15      0.69     -1.08
   11   18   15     -0.74     -0.18
   10   18   15      0.88     -0.28
    9   18   15     -1.46     -0.89
    8   18   15      0.73      0.72
    7   18   15      0.63      0.90
    6   18   15      0.36     -1.43
    5   18   15      0.39      1.46
    4   18   15     -1.16     -0.27
    3   18   15      1.39      0.83
    2   18   15      0.12     -0.49
    1   18   15     -1.18      0.59
    0   18   15      2.00      0.01
   11   19   15      0.27     -1.97
   10   19   15     -0.40     -0.25
    9   19   15      0.28      0.13
    8   19   15      1.16      0.29
    7   19   15      1.40      0.33
    6   19   15     -1.18      0.13
    5   19   15     -1.60     -0.44
    4   19   15     -0.09      0.76
    3   19   15     -0.28     -0.15
    2   19   15     -0.01      1.89
    1   19   15      0.73     -0.84
    0   19   15     -0.03     -0.07
   10   20   15      0.24      1.21
    9   20   15      0.52      0.53
    8   20   15      0.95     -0.28
    7   20   15     -1.75      0.99
    6   20   15     -1.35      0.41
    5   20   15     -0.96     -0.45
    4   20   15     -0.37     -2.25
    3   20   15     -0.50     -0.55
    2   20   15      0.74      0.82
    1   20   15      0.87      0.68
    0   20   15     -0.26     -0.03
   10   21   15     -0.23     -0.30
    9   21   15     -0.54     -0.03
    8   21   15     -0.23     -2.07
    7   21   15     -0.10      2.14
    6   21   15      0.22     -0.72
    5   21   15     -0.57      1.52
    4   21   15     -1.01     -0.64
    3   21   15     -0.54      0.93
    2   21   15      1.08     -0.18
    1   21   15     -1.67     -1.14
    0   21   15      0.01      2.17
    9   22   15     -0.29     -0.27
    8   22   15      0.01     -0.39
    7   22   15      0.59     -1.73
    6   22   15     -0.85     -0.48
    5   22   15      0.02     -0.60
    4   22   15      0.40      1.82
    3   22   15      0.00     -0.21
    2   22   15     -0.68     -1.19
    1   22   15     -0.95      0.71
    0   22   15      1.98      0.01
    8   23   15     -0.16      0.22
    7   23   15     -0.99     -0.19
    6   23   15     -0.64     -1.21
    5   23   15      1.40     -1.57
    4   23   15     -1.18     -0.28
    3   23   15      1.59     -0.52
    2   23   15      0.02     -0.42
    1   23   15     -0.27      0.30
    0   23   15      0.00     -0.98
    8   24   15      0.74      0.16
    7   24   15     -0.03     -0.04
    6   24   15      0.13      0.24
    5   24   15     -0.22     -0.07
    4   24   15     -0.68      0.65
    3   24   15      0.03     -0.21
    2   24   15      0.55      2.43
    1   24   15     -1.63     -0.07
    0   24   15     -1.45      0.01
    7   25   15      0.86     -0.22
    6   25   15     -0.17      1.21
    5   25   15      1.15      0.91
    4   25   15      2.22      0.17
    3   25   15      0.01     -0.78
    2   25   15      0.89      0.78
    1   25   15      1.14     -0.18
    0   25   15      0.01     -2.31
    6   26   15      0.39     -1.29
    5   26   15      0.58     -0.12
    4   26   15      0.75     -0.74
    3   26   15     -0.73      1.97
    2   26   15      1.04     -1.36
    1   26   15     -0.76     -1.14
    0   26   15      1.64      0.03
    5   27   15     -0.48      0.09
    4   27   15      1.13      0.81
    3   27   15     -0.27      0.64
    2   27   15     -1.53     -0.58
    1   27   15      0.69     -0.08
    0   27   15     -0.01      0.46
    3   28   15      0.47      0.00
    2   28   15     -0.35      0.11
    1   28   15      0.59      0.45
    0   28   15     -0.54      0.01
    0    0   16     -4.17      0.02
    1    1   16      1.01      0.85
    1    2   16     -0.68     -0.58
    2    1   16      0.40      1.22
    2    2   16     -0.20     -1.98
    1    3   16      2.26     -0.94
    3    3   16     -2.26      0.24
    4    3   16      0.23      0.71
    3    4   16      2.54     -0.36
    4    1   16     -1.67     -0.43
    1    4   16      0.88      2.46
    4    4   16     -0.90      0.19
    4    5   16      0.34     -0.27
    5    4   16     -0.45      0.43
    3    5   16     -0.41      0.53
    5    3   16      0.02     -0.29
    5    2   16      0.09     -0.31
    2    5   16      0.06     -0.80
    5    5   16     -1.08      0.64
    6    5   16     -0.15      1.15
    4    6   16     -1.55      0.60
    6    4   16     -0.83     -0.14
    3    6   16      0.40      1.69
    6    2   16     -0.58     -0.69
    6    1   16      0.40     -0.52
    1    6   16      1.57      2.79
    6    0   16      0.82     -0.01
    6    3   16      1.47     -1.86
    5    6   16     -0.54      1.38
    6    6   16      0.30      1.63
    7    6   16     -1.56     -0.44
    7    5   16     -0.39      0.98
    5    7   16      0.24      1.94
    7    4   16      0.79     -2.10
    7    3   16     -0.83     -1.90
    7    2   16     -1.24      0.23
    2    7   16      0.86     -0.69
    7    0   16      1.40      0.01
    4    7   16      0.30      0.62
    7    7   16      1.09      1.32
    8    7   16     -0.96     -0.26
    7    8   16     -1.16      1.35
    8    6   16     -1.05      0.74
    8    5   16     -0.70      0.15
    8    4   16      1.72     -0.86
    4    8   16     -0.07     -0.60
    8    3   16     -1.95      0.34
    8    2   16     -0.09      0.44
    5    8   16      1.50     -2.18
    6    8   16     -0.35      1.24
    8    8   16      1.24     -1.45
    9    8   16     -0.74      1.27
    9    7   16     -1.20     -0.14
    7    9   16      2.18      2.19
    9    6   16     -0.70      0.05
    9    4   16     -0.54     -1.55
    9    2   16     -1.08     -0.54
    9    3   16      0.79     -0.54
    4    9   16      0.32     -1.36
    5    9   16     -2.32     -1.81
    6    9   16      0.79      1.37
    8    9   16     -0.07     -1.06
    9    9   16     -0.72     -0.29
   10    9   16      0.47      1.84
    9   10   16     -1.21      0.24
   10    8   16     -1.11      1.40
    8   10   16     -1.36      0.35
   10    7   16     -0.40      0.37
   10    6   16     -0.16      0.33
    6   10   16     -1.70      0.71
    5   10   16     -3.92     -0.31
    3   10   16      1.54     -1.36
   10    2   16      0.17     -1.70
   10    1   16     -1.58     -0.33
   10    0   16     -0.21      0.01
    1   10   16     -1.76      0.32
    2   10   16      0.77     -3.09
   10    3   16     -1.01     -0.41
    7   10   16      4.53     -0.37
   10   10   16      0.55      0.25
   11   10   16      0.45      1.13
   10   11   16      1.63     -0.17
   11    9   16     -0.66      1.36
    9   11   16      0.12      1.35
   11    8   16      1.27      0.06
    8   11   16      0.51     -1.14
   11    7   16      0.58      0.68
    7   11   16     -0.16      0.01
    6   11   16      1.18     -0.91
   11    6   16     -0.97      0.30
    5   11   16      1.69      0.67
    4   11   16      1.11     -1.52
   11    4   16     -0.38      0.07
    3   11   16     -0.74     -0.15
   11    3   16     -1.10      1.03
    2   11   16     -1.27     -0.65
    0   11   16      0.03      0.18
   11    0   16     -1.54      0.01
   11   11   16      1.02     -0.32
   12   11   16      0.08      0.44
   11   12   16      0.41     -0.74
   12   10   16      0.48      1.92
   10   12   16     -0.05     -0.11
    9   12   16     -0.03      2.15
   12    9   16      1.36      0.83
   12    8   16      2.04     -1.17
    8   12   16      0.72     -0.98
    7   12   16     -0.95     -1.80
    6   12   16      0.02      0.89
   12    6   16     -0.15      0.41
    5   12   16      2.15     -1.65
    4   12   16     -1.23     -1.34
    3   12   16      0.51      0.66
    2   12   16      1.66      1.63
   12    2   16     -0.40     -0.40
   12   12   16     -0.31     -0.50
   13   12   16      0.47      0.38
   12   13   16     -0.09     -0.94
   13   11   16     -0.88      0.54
   11   13   16     -0.46     -0.40
   13   10   16      0.44      0.52
   10   13   16     -0.66      0.86
    9   13   16     -0.42      0.25
   13    8   16      0.25     -0.94
    8   13   16     -1.60     -1.32
    7   13   16      0.18      0.12
    6   13   16      0.19      1.52
   13    6   16      0.35      0.46
    5   13   16     -0.86     -0.64
    4   13   16      1.39      0.91
    3   13   16      1.30      1.62
    2   13   16      3.17     -1.84
   13    2   16     -0.31      0.50
    1   13   16     -1.28      1.67
    0   13   16     -0.05     -1.01
   13    0   16     -0.26     -0.02
   13    7   16      0.10     -0.93
   12   14   16     -1.50     -0.21
   11   14   16     -0.34      0.22
   10   14   16      0.73     -0.45
    9   14   16     -1.14     -0.79
    8   14   16      0.16     -0.82
    7   14   16      0.46      0.88
    6   14   16      2.19      0.79
    5   14   16      1.00      2.26
    4   14   16     -0.51     -0.11
    3   14   16     -2.84      0.68
    2   14   16     -3.25     -2.01
   14    2   16      0.39     -0.49
    1   14   16      1.05     -2.12
   14    1   16      0.30      0.30
    0   14   16      2.22     -0.01
   14    0   16     -0.24      0.01
   14    5   16     -0.21     -0.32
   14    6   16      0.10     -0.31
   12   15   16      0.38     -0.75
   11   15   16     -0.14     -1.65
   10   15   16      0.71      0.33
    9   15   16     -0.76      0.00
    8   15   16      0.60      0.26
    7   15   16      0.28     -2.28
    6   15   16      0.74     -1.17
    5   15   16     -1.87      1.64
    4   15   16      0.00      1.98
    3   15   16     -1.09     -1.50
    2   15   16      0.74      0.01
    1   15   16     -0.15     -2.32
    0   15   16     -0.04      2.03
   11   16   16      0.73     -0.36
   10   16   16      0.75     -0.23
    9   16   16      0.20      1.12
    8   16   16     -0.84      1.59
    7   16   16      0.70      0.16
    6   16   16      0.79     -0.50
    5   16   16     -0.05     -0.49
    4   16   16      0.43     -1.71
    3   16   16     -1.46     -0.95
    2   16   16      1.20     -0.19
    1   16   16     -0.04     -0.23
    0   16   16     -4.47      0.09
   12   16   16     -0.62      0.51
   11   17   16     -0.63     -1.39
   10   17   16     -0.60     -0.61
    9   17   16      1.21      0.61
    8   17   16      1.42     -0.39
    7   17   16     -0.35      0.51
    6   17   16     -0.14     -0.62
    5   17   16     -0.42     -0.53
    4   17   16     -1.20      0.94
    3   17   16     -1.58     -2.28
    2   17   16     -1.73      1.10
    1   17   16      1.41     -1.39
    0   17   16      0.04     -0.06
   11   18   16      0.15     -0.69
   10   18   16      1.67     -0.50
    9   18   16     -0.17      0.11
    8   18   16      0.68     -1.76
    7   18   16     -0.59      1.20
    6   18   16     -2.00      1.54
    5   18   16      2.00      0.46
    4   18   16      0.84     -0.12
    3   18   16      0.66      0.93
    2   18   16      1.25      0.28
    1   18   16     -0.80      0.76
    0   18   16      2.29      0.02
   10   19   16      0.47      0.75
    9   19   16      0.39     -0.29
    8   19   16     -0.93      0.86
    7   19   16      1.06      1.13
    6   19   16     -0.52      0.61
    5   19   16     -1.54     -1.87
    4   19   16     -0.02      0.86
    3   19   16     -0.12      0.87
    2   19   16      0.67     -0.83
    1   19   16      0.00      0.59
    0   19   16      0.01      0.78
   10   20   16      0.02     -0.87
    9   20   16     -0.87     -0.92
    8   20   16      0.81      1.65
    7   20   16      1.21      0.58
    6   20   16     -0.96      0.51
    5   20   16      0.77     -0.19
    4   20   16     -1.36      0.42
    3   20   16     -0.15      0.71
    2   20   16     -1.52     -0.68
    1   20   16      1.21      1.12
    0   20   16      0.59      0.00
    9   21   16      0.98      0.54
    8   21   16      0.64     -0.39
    7   21   16     -0.57     -0.26
    6   21   16     -2.18     -0.43
    5   21   16     -0.07     -2.06
    4   21   16      0.66     -0.81
    3   21   16      0.33     -0.16
    2   21   16     -0.97      1.68
    1   21   16      0.92     -0.01
    0   21   16      0.01     -0.38
    9   22   16     -0.09     -0.69
    8   22   16      0.05      0.67
    7   22   16     -1.45      0.06
    6   22   16     -1.81      0.37
    5   22   16     -1.72     -1.41
    4   22   16      1.83     -0.06
    3   22   16     -0.17     -0.62
    2   22   16      0.72      0.66
    1   22   16      0.15      0.76
    0   22   16     -2.19      0.00
    8   23   16      0.46     -0.22
    7   23   16      0.72      0.95
    6   23   16     -0.34     -1.37
    5   23   16     -1.42      1.28
    4   23   16     -0.53     -0.05
    3   23   16     -0.13      0.63
    2   23   16      1.04     -0.34
    1   23   16     -1.13      0.55
    0   23   16      0.01      0.90
    7   24   16     -0.41     -0.67
    6   24   16      1.15      0.04
    5   24   16     -0.03     -1.14
    4   24   16      0.41     -1.41
    3   24   16      0.45     -0.17
    2   24   16      0.22     -0.95
    1   24   16     -0.23     -0.21
    0   24   16     -0.22      0.00
    6   25   16     -0.07      0.06
    5   25   16      0.01     -1.24
    4   25   16      0.59      0.48
    3   25   16      1.53      0.83
    2   25   16     -1.98      0.44
    1   25   16      0.95     -0.66
    0   25   16      0.02     -0.61
    5   26   16      0.39      0.83
    4   26   16      0.80      0.71
    3   26   16      1.21      0.05
    2   26   16     -0.53      0.30
    1   26   16      0.46     -0.39
    0   26   16      2.89     -0.03
    4   27   16      0.42     -0.50
    3   27   16     -0.39     -0.24
    2   27   16      2.02      0.44
    1   27   16      0.71     -0.45
    0   27   16     -0.04      1.44
    1   28   16     -0.42      0.56
    0   28   16      0.20     -0.02
    1    0   17     -0.01     -1.17
    0    1   17     -0.03     -1.46
    1    1   17     -2.15     -1.05
    2    1   17     -3.72     -0.95
    0    2   17      0.83      0.05
    1    2   17      1.31     -0.66
    2    2   17     -1.29     -1.10
    3    2   17     -0.28      3.54
    0    3   17     -0.02      4.97
    3    3   17     -0.33     -2.85
    4    2   17     -0.60      0.75
    4    4   17     -2.22      0.11
    4    5   17      0.75      0.05
    5    4   17     -0.64      0.01
    5    3   17     -1.11      0.20
    3    5   17     -1.29      0.83
    2    5   17      0.48      1.75
    5    2   17      1.43     -2.37
    5    5   17     -0.59      1.31
    6    5   17      0.36     -1.46
    6    4   17      0.70     -0.26
    6    3   17     -0.04      0.76
    6    2   17     -1.32     -1.08
    1    6   17     -0.68      0.03
    6    1   17      0.32     -0.08
    3    6   17      1.33     -1.36
    6    6   17     -0.34      2.03
    7    6   17     -0.42     -0.82
    6    7   17     -1.90      1.30
    7    5   17      0.10     -0.60
    7    4   17     -0.20      0.63
    7    3   17      0.13     -0.62
    7    2   17     -0.15     -1.49
    2    7   17      1.05      1.78
    7    1   17     -0.37      1.99
    5    7   17     -1.86      0.64
    7    7   17      0.45     -0.26
    8    7   17     -1.90     -0.85
    8    6   17     -0.33     -0.50
    6    8   17      2.42      1.15
    5    8   17     -2.10      1.71
    8    5   17     -0.10      0.35
    8    4   17      0.50     -0.41
    4    8   17     -1.51      0.12
    8    2   17     -0.08      0.47
    2    8   17      0.91     -0.59
    8    3   17     -1.82     -2.82
    8    8   17     -0.45      0.91
    9    8   17     -1.52      0.10
    8    9   17      1.12      1.13
    9    7   17      0.01     -0.10
    9    6   17     -0.86      0.83
    6    9   17     -0.46      2.41
    9    5   17      0.24     -0.17
    9    4   17     -0.23      0.16
    9    2   17     -2.45     -0.81
    0    9   17      0.02     -0.01
    9    0   17      0.00     -1.09
    9    3   17      1.03     -1.63
    4    9   17      0.35     -2.90
    5    9   17      1.51      3.13
    7    9   17      0.30     -0.93
    9    9   17      0.33      2.62
   10    9   17     -0.30     -0.37
    9   10   17      1.48      0.23
   10    8   17     -0.60     -0.72
    8   10   17     -0.51      1.20
   10    7   17      1.01      1.46
    7   10   17      0.03      1.05
   10    6   17      0.43     -0.68
    6   10   17     -0.12      0.21
   10    5   17      0.15      0.46
    5   10   17      1.56     -3.95
    4   10   17      0.37      0.33
   10    4   17     -0.34     -0.78
    3   10   17      0.13      1.18
   10    3   17     -1.33     -0.80
    1   10   17      0.20     -1.18
   10    0   17     -0.02      0.76
   10    1   17     -0.20      0.00
   10    2   17      1.16      0.02
   10   10   17      0.60     -0.68
   11   10   17      0.21      0.07
   10   11   17      0.36      1.75
   11    9   17     -0.90      0.09
    9   11   17      0.23     -0.66
    8   11   17     -0.54      0.22
   11    8   17      0.16      0.13
    7   11   17     -0.40      2.36
    6   11   17     -1.12     -3.62
   11    5   17     -0.19      0.09
    5   11   17     -1.86     -0.75
    4   11   17      0.80      0.02
    3   11   17      0.81      0.06
    2   11   17      0.62     -0.98
    1   11   17      0.07     -2.07
   11    1   17      0.04     -1.44
    0   11   17     -0.02      1.36
   11    0   17     -0.01      1.44
   11   11   17     -0.71      0.98
   12   11   17     -0.68      1.01
   11   12   17      1.21      0.66
   12   10   17      0.24      0.87
   10   12   17      0.86      0.17
    9   12   17     -0.40     -1.10
   12    9   17      0.02      0.80
   12    8   17     -0.23      1.08
    8   12   17     -0.16      0.21
    7   12   17      1.30     -0.17
   12    7   17      0.08     -1.62
   12    6   17     -0.25      0.09
    6   12   17     -0.53      0.24
    5   12   17      0.40     -0.63
    4   12   17      0.39      0.52
    3   12   17      0.47     -2.56
   12    3   17      0.64     -0.79
    2   12   17      0.18      0.25
    1   12   17      1.08      0.85
   12    1   17     -0.10     -0.36
    0   12   17      0.25      0.07
   12    0   17      0.01     -0.92
   12   12   17     -1.16      1.00
   12   13   17      0.41     -0.30
   13   11   17     -0.02      1.35
   11   13   17      0.43     -1.89
   13   10   17      0.58      0.82
   10   13   17     -0.88      0.04
    9   13   17      0.30     -0.53
   13    9   17      1.51      0.21
   13    8   17      0.33      0.32
    8   13   17      0.56      0.34
    7   13   17      0.51     -0.12
    6   13   17      0.12     -0.17
   13    6   17     -0.81      0.22
    5   13   17      1.88      0.25
    4   13   17      1.79      1.17
    3   13   17     -1.89      0.95
   13    3   17     -0.30     -0.85
    2   13   17     -0.66      0.04
    1   13   17      2.39     -1.98
   13    1   17     -0.45      0.81
    0   13   17      0.02     -2.11
   12   14   17      0.40     -0.26
   11   14   17      0.20     -0.63
   10   14   17     -0.97      0.03
    9   14   17     -0.66      0.42
    8   14   17     -0.04      0.08
    7   14   17     -2.15      0.82
    6   14   17     -0.02     -1.57
    5   14   17      2.29      0.38
    4   14   17     -0.47      1.12
   14    4   17     -0.21     -0.11
    3   14   17      2.27      0.68
    2   14   17     -0.72     -0.13
    1   14   17      1.64     -0.13
    0   14   17      2.00      0.00
   14    3   17      0.44      0.05
   11   15   17     -1.39      0.10
   10   15   17     -0.33     -0.11
    9   15   17      1.12      0.03
    8   15   17      1.62      0.31
    7   15   17     -1.01      0.93
    6   15   17     -0.93      0.15
    5   15   17      1.63      0.56
    4   15   17     -1.14      0.26
    3   15   17     -0.50     -1.15
    2   15   17      0.04     -2.45
    1   15   17     -2.52      1.48
    0   15   17      0.03     -0.62
   12   15   17     -0.10     -0.16
   11   16   17     -0.97      0.44
   10   16   17      0.30     -1.08
    9   16   17      1.64     -1.01
    8   16   17      0.95      0.92
    7   16   17      1.05      0.28
    6   16   17     -1.26     -0.55
    5   16   17     -1.38     -1.30
    4   16   17     -2.04      0.21
    3   16   17     -1.95      1.60
    2   16   17     -0.73     -2.95
    1   16   17     -0.96      1.36
    0   16   17      0.62     -0.02
   11   17   17      0.74      0.56
   10   17   17      1.28      0.12
    9   17   17     -0.50     -0.14
    8   17   17     -0.93      0.53
    7   17   17     -0.13      0.62
    6   17   17      0.25     -0.02
    5   17   17      0.48     -1.53
    4   17   17      1.28     -1.15
    3   17   17      1.50     -0.07
    2   17   17      0.94      1.33
    1   17   17     -0.04     -0.55
    0   17   17     -0.03      0.26
   10   18   17      0.02     -0.39
    9   18   17     -0.83      0.70
    8   18   17      0.25     -0.25
    7   18   17      0.14      0.51
    6   18   17     -0.23      0.18
    5   18   17     -0.37     -0.20
    4   18   17      0.55     -0.92
    3   18   17     -0.06     -0.32
    2   18   17     -2.05      0.32
    1   18   17      0.67     -0.32
    0   18   17     -0.09      0.01
   10   19   17     -1.59     -0.54
    9   19   17      1.41     -1.17
    8   19   17      1.47      0.71
    7   19   17     -0.34     -0.15
    6   19   17      0.62      0.59
    5   19   17     -2.31      0.90
    4   19   17      1.75      1.13
    3   19   17     -0.63      0.42
    2   19   17      0.27      0.55
    1   19   17      0.52     -2.08
    0   19   17      0.05      1.18
    9   20   17      0.80      0.24
    8   20   17      0.59     -0.27
    7   20   17     -1.81      2.07
    6   20   17      0.19     -0.71
    5   20   17     -0.93     -0.97
    4   20   17     -0.49     -2.08
    3   20   17      0.78      0.12
    2   20   17      1.14      1.33
    1   20   17     -0.66     -0.04
    0   20   17     -0.03     -0.02
    9   21   17     -0.35      0.07
    8   21   17      0.06     -0.07
    7   21   17      0.19      1.14
    6   21   17     -0.35     -0.25
    5   21   17     -0.43     -0.11
    4   21   17     -0.89     -1.16
    3   21   17      0.45      0.42
    2   21   17      0.48      0.52
    1   21   17     -0.76      1.36
    0   21   17      0.01      1.83
    8   22   17      1.23      0.25
    7   22   17     -0.36     -1.09
    6   22   17     -0.58      0.76
    5   22   17      1.28      0.97
    4   22   17     -0.56      0.78
    3   22   17     -0.46      0.03
    2   22   17     -1.07     -0.27
    1   22   17      0.44      0.56
    0   22   17      0.73      0.01
    7   23   17     -0.56     -0.17
    6   23   17     -0.62     -1.74
    5   23   17      0.02     -0.33
    4   23   17     -1.75      0.31
    3   23   17      0.83     -0.41
    2   23   17     -0.68      0.22
    1   23   17     -0.73     -0.87
    0   23   17     -0.04     -0.18
    7   24   17     -0.14     -0.21
    6   24   17     -0.27     -0.23
    5   24   17     -0.58     -0.10
    4   24   17      0.23      0.03
    3   24   17      0.24      1.02
    2   24   17      0.35      1.30
    1   24   17     -1.04     -0.92
    0   24   17      0.52      0.00
    6   25   17     -0.08     -0.01
    5   25   17      1.07      0.52
    4   25   17      0.78     -1.06
    3   25   17     -0.97     -0.40
    2   25   17     -0.07     -0.25
    1   25   17     -0.02     -2.15
    0   25   17     -0.01     -1.41
    4   26   17     -0.42      0.71
    3   26   17      0.13      0.01
    2   26   17      0.79     -1.79
    1   26   17      0.46      0.73
    0   26   17      2.04      0.04
    3   27   17     -0.08     -0.55
    2   27   17     -0.16      0.16
    1   27   17      1.40      0.23
    0   27   17     -0.01      0.81
    0    1   18      0.07     -0.28
    1    0   18     -4.26      0.02
    1    1   18     -0.87     -1.88
    1    2   18      1.89      1.83
    2    1   18     -0.41     -0.09
    2    0   18     -0.26      0.02
    0    2   18     -1.51      0.02
    2    2   18      0.96     -1.42
    1    3   18     -0.17      2.05
    0    3   18     -0.09     -2.12
    3    1   18     -0.14     -0.18
    3    3   18     -0.14     -0.90
    3    4   18      0.26      0.57
    4    3   18      0.44      0.48
    4    2   18     -0.37     -1.55
    1    4   18     -2.01      3.11
    4    0   18      1.52      0.00
    4    1   18      2.77      0.53
    2    4   18     -2.89     -0.13
    4    4   18     -0.27      0.24
    5    4   18      1.80     -1.20
    5    3   18     -0.19      0.92
    5    2   18     -1.28      0.95
    2    5   18     -0.18     -0.61
    5    1   18     -0.73     -0.63
    5    0   18      0.89     -0.01
    0    5   18      0.01      1.51
    5    5   18     -2.16     -0.46
    6    5   18     -0.25      1.33
    5    6   18     -0.50     -0.46
    6    3   18      0.92     -1.86
    6    2   18      0.24      1.85
    2    6   18      1.73      1.15
    6    0   18      0.33     -0.01
    6    6   18     -0.43      0.17
    5    7   18      0.97      0.66
    7    5   18      0.42      0.12
    7    4   18     -0.76     -1.19
    4    7   18      1.04      1.52
    7    3   18      0.80     -0.42
    7    1   18     -1.22     -0.29
    7    2   18     -0.18     -1.25
    7    7   18      0.11     -0.08
    7    8   18     -1.53      1.62
    8    7   18      0.21     -0.34
    6    8   18      0.21      0.18
    8    6   18     -0.90     -0.77
    5    8   18     -0.92     -0.17
    8    4   18      1.35     -1.31
    4    8   18     -1.05      1.60
    8    3   18     -1.61      0.32
    3    8   18      0.64      1.01
    8    2   18     -0.56      0.67
    2    8   18      1.81      1.22
    8    1   18      0.03     -0.88
    1    8   18      2.12      0.10
    8    5   18     -1.36     -0.27
    8    8   18      1.53     -0.72
    8    9   18     -0.21      0.76
    9    8   18      1.50     -1.28
    7    9   18      1.33      2.45
    6    9   18     -1.27      1.29
    5    9   18     -0.24     -2.88
    9    4   18     -0.84     -0.92
    3    9   18      1.37      1.29
    1    9   18     -1.59      0.47
    9    0   18      2.66     -0.01
    2    9   18      0.64      1.17
    4    9   18      2.30     -0.05
    9    7   18     -1.06     -1.44
    9    9   18     -1.36     -1.20
    9   10   18     -1.51      1.07
   10    9   18     -0.26     -1.04
   10    8   18     -1.67      1.13
    8   10   18      1.28      1.07
    7   10   18      0.42      0.25
   10    6   18     -0.81     -0.59
    6   10   18     -2.57      2.89
    5   10   18     -0.43      0.04
    4   10   18      2.02     -0.86
    3   10   18      0.89      0.19
   10    3   18      0.80     -1.16
    2   10   18     -2.25     -1.22
   10    2   18      0.71     -1.11
    1   10   18     -0.86      0.52
    0   10   18      0.66      0.00
   10   10   18     -0.87      1.50
   10   11   18      1.21      0.44
    9   11   18     -0.38      0.38
    8   11   18      0.91     -0.96
   11    8   18     -1.12      0.13
   11    7   18     -0.28      0.93
    7   11   18      0.22      0.80
    6   11   18      1.36      0.03
   11    6   18      0.81      1.39
   11    5   18     -0.39     -1.55
    5   11   18      0.65      0.92
    4   11   18     -1.57     -1.94
   11    4   18     -1.11     -0.70
    3   11   18     -0.11     -0.89
   11    3   18     -0.32      0.32
    2   11   18      0.50     -0.91
   11    2   18      0.25     -0.72
    1   11   18      0.17     -0.36
    0   11   18      0.02      1.57
   11    0   18     -1.44      0.00
   11    9   18     -0.06      1.31
   11   10   18     -0.66      0.10
   11   11   18      0.93     -0.68
   12   11   18      0.34      1.35
   11   12   18     -0.24      0.28
   12   10   18     -0.28      0.89
    9   12   18     -0.57      0.35
   12    9   18      0.33      0.23
   12    8   18      1.22     -0.37
    8   12   18      0.66     -1.40
    7   12   18     -0.45     -0.65
   12    6   18     -1.55      0.06
    6   12   18      0.58     -0.20
   12    5   18      0.12      0.02
    5   12   18      0.24     -2.67
   12    4   18      1.37      0.08
    4   12   18     -0.74      0.50
    3   12   18     -0.34      0.64
    2   12   18      2.20      0.17
   12    2   18     -0.26     -0.16
    1   12   18     -0.64     -0.67
   12    1   18      0.44     -0.13
    0   12   18      0.35     -0.07
   12    0   18     -1.00      0.01
   10   12   18      0.04     -0.26
   12   12   18     -0.08     -0.39
   12   13   18      0.24     -0.69
   11   13   18     -0.78      1.36
   10   13   18      0.39      1.03
    9   13   18     -0.72     -0.47
   13    9   18      0.34     -0.03
    8   13   18     -0.20     -0.48
   13    7   18      0.00      0.45
    7   13   18      0.20      0.82
    6   13   18     -0.75     -0.39
    5   13   18     -0.05      0.41
    4   13   18      2.39     -0.23
    3   13   18      1.00     -0.19
    2   13   18      1.52     -0.39
    1   13   18      0.19      0.72
   13    1   18      0.02     -0.20
    0   13   18     -0.05      0.62
   13    0   18     -0.43     -0.02
   13    6   18      0.56      0.72
   11   14   18      0.90     -0.22
   10   14   18      0.08     -1.17
    9   14   18     -0.45     -0.57
    8   14   18      0.38      0.37
    7   14   18      1.69      1.52
    6   14   18      0.72      1.86
    5   14   18      0.84      0.78
    4   14   18     -1.09      0.34
    3   14   18     -1.11     -1.30
    2   14   18      0.18      1.33
    1   14   18      2.07     -1.63
    0   14   18     -0.59      0.01
   11   15   18      0.37     -0.54
   10   15   18     -0.49      0.46
    9   15   18      0.00     -0.20
    8   15   18      0.00      0.02
    7   15   18      0.07     -0.20
    6   15   18     -0.36      1.17
    5   15   18     -2.06      1.43
    4   15   18      1.77      1.58
    3   15   18     -1.17     -1.72
    2   15   18      0.71     -0.10
    1   15   18      1.94     -0.60
    0   15   18      0.01      1.43
   11   16   18      2.13     -0.50
   10   16   18     -0.66      1.30
    9   16   18      0.03      1.28
    8   16   18     -0.62      0.46
    7   16   18      0.06     -1.78
    6   16   18      1.43     -0.27
    5   16   18     -1.16     -1.17
    4   16   18     -0.36     -1.83
    3   16   18      0.87     -0.52
    2   16   18      0.54     -0.32
    1   16   18      0.23      0.66
    0   16   18     -1.08      0.01
   10   17   18      0.10      0.99
    9   17   18      0.50      0.49
    8   17   18     -0.08     -0.86
    7   17   18      0.31     -0.10
    6   17   18     -0.36     -1.25
    5   17   18     -0.55      0.89
    4   17   18     -2.51     -0.50
    3   17   18     -0.91     -0.83
    2   17   18     -1.27      0.38
    1   17   18     -2.07     -1.17
    0   17   18     -0.04      0.56
   10   18   18      0.34     -0.63
    9   18   18     -0.24     -0.73
    8   18   18      0.49     -0.21
    7   18   18     -0.33      0.77
    6   18   18     -1.14      0.63
    5   18   18      2.81      0.04
    4   18   18     -1.17     -0.62
    3   18   18      0.61      1.21
    2   18   18     -0.08     -0.98
    1   18   18      0.52      0.76
    0   18   18      1.30      0.00
    9   19   18     -0.14     -0.98
    8   19   18     -0.73      2.55
    7   19   18     -0.55     -0.19
    6   19   18     -1.28     -0.60
    5   19   18      0.16      0.45
    4   19   18      0.79     -0.16
    3   19   18      0.43     -1.20
    2   19   18      1.04     -1.15
    1   19   18     -0.65      1.98
    0   19   18     -0.02     -0.31
    9   20   18     -0.52      1.01
    8   20   18      0.13     -0.13
    7   20   18      0.44      0.59
    6   20   18     -0.21     -1.20
    5   20   18      0.83     -0.97
    4   20   18     -1.01      0.83
    3   20   18      0.07     -0.38
    2   20   18      0.50      0.35
    1   20   18      1.73      0.87
    0   20   18     -1.70      0.01
    8   21   18     -0.01     -0.56
    7   21   18     -0.56      0.22
    6   21   18     -0.02     -0.82
    5   21   18      0.44     -2.09
    4   21   18      1.26      0.82
    3   21   18     -0.59      1.15
    2   21   18     -0.51      0.43
    1   21   18      0.45     -0.19
    0   21   18      0.01      0.39
    8   22   18      0.11      0.96
    7   22   18     -1.31      0.35
    6   22   18     -0.67     -0.86
    5   22   18      0.23     -0.65
    4   22   18      1.80     -0.03
    3   22   18     -1.08      0.12
    2   22   18     -0.56      1.24
    1   22   18     -0.54      0.65
    0   22   18     -1.01      0.04
    7   23   18      0.09      0.02
    6   23   18     -0.53     -0.36
    5   23   18     -0.47      0.94
    4   23   18      0.64      0.88
    3   23   18      1.14      0.80
    2   23   18      0.39      0.31
    1   23   18     -0.97      0.87
    0   23   18      0.04     -0.50
    6   24   18      0.96      0.03
    5   24   18     -0.46     -1.38
    4   24   18     -0.48     -0.33
    3   24   18     -0.60      0.35
    2   24   18     -1.43     -0.64
    1   24   18     -0.52     -0.69
    0   24   18     -0.73     -0.01
    5   25   18      0.22     -0.07
    4   25   18     -0.65      1.20
    3   25   18      0.08      0.47
    2   25   18     -0.62     -0.30
    1   25   18      1.11     -0.79
    0   25   18      0.02      0.58
    3   26   18      0.22     -0.43
    2   26   18      0.34     -0.21
    1   26   18      0.73     -0.38
    0   26   18      0.88     -0.04
    0   27   18     -0.02      1.24
    1    0   19     -0.02     -1.37
    1    1   19      0.37     -1.55
    1    2   19     -1.35     -1.19
    2    0   19      0.04     -1.08
    2    2   19      1.59     -3.21
    3    2   19      1.52      1.65
    3    1   19     -0.37     -1.35
    3    3   19     -1.60      0.04
    4    3   19      1.05     -0.86
    4    2   19      0.68      1.07
    2    4   19     -1.05      0.65
    4    1   19     -0.84      0.21
    1    4   19     -1.07      0.59
    3    4   19      1.28     -1.27
    4    4   19     -0.51      0.31
    4    5   19      1.49     -2.30
    5    4   19     -2.85      0.95
    3    5   19     -0.63      0.51
    5    2   19      2.67     -0.50
    2    5   19     -1.51      0.24
    5    1   19      0.28     -0.55
    1    5   19     -0.57      0.52
    5    0   19      0.01     -0.44
    5    5   19      0.27     -0.30
    5    6   19     -1.12     -3.15
    6    4   19      0.49      1.24
    4    6   19     -0.65      0.34
    6    3   19     -0.77      0.01
    3    6   19     -1.43     -0.08
    6    2   19     -1.15     -0.71
    6    1   19      0.07     -0.14
    2    6   19     -3.42     -0.54
    6    5   19      1.10     -0.80
    6    6   19     -1.47     -0.44
    6    7   19     -2.47      2.44
    4    7   19     -0.89     -1.73
    7    3   19     -0.02      0.47
    2    7   19      2.58      0.35
    7    2   19     -0.78     -1.57
    7    1   19      0.11      1.06
    1    7   19      1.73     -0.22
    0    7   19      0.01     -0.16
    7    0   19     -0.01      1.03
    3    7   19      0.81      2.09
    7    4   19     -0.18      0.90
    7    7   19      0.22     -0.65
    8    7   19      0.39     -0.76
    8    6   19      0.86     -2.31
    5    8   19     -2.87      0.72
    4    8   19      1.11     -0.82
    3    8   19      2.92     -0.07
    2    8   19      1.30      2.16
    1    8   19     -1.44      0.59
    8    1   19      1.18      0.15
    0    8   19     -0.61      0.05
    6    8   19      1.52     -1.28
    7    8   19      0.37     -0.63
    8    8   19     -0.46      0.01
    8    9   19     -0.37     -0.88
    9    8   19     -0.56      0.89
    7    9   19     -0.31      0.04
    6    9   19     -0.46      1.75
    9    6   19     -1.44      1.00
    5    9   19      0.86      0.70
    9    5   19      0.58     -1.02
    4    9   19     -0.17     -0.23
    9    4   19      0.08     -1.39
    3    9   19     -1.85      0.90
    2    9   19      0.84      2.38
    1    9   19      2.19     -0.19
    9    1   19      0.84      0.83
    0    9   19     -0.01     -0.97
    9    9   19      0.46      2.18
   10    9   19      0.66     -0.14
    9   10   19     -0.04     -0.26
   10    8   19     -2.31      0.07
    8   10   19     -1.26      1.52
    7   10   19      0.02      1.61
   10    7   19      1.11      0.82
   10    6   19     -0.16     -0.06
    6   10   19      1.24     -0.89
    5   10   19      0.49      0.45
   10    5   19      0.82      1.01
   10    4   19      1.22     -0.64
    4   10   19      1.00      1.74
    3   10   19      0.13     -1.07
    2   10   19     -0.43     -1.27
    1   10   19      2.46      0.57
    0   10   19     -0.44     -0.03
   10   10   19      1.29     -0.14
   11   10   19     -0.54     -0.64
   10   11   19     -1.13      0.85
   11    9   19     -0.78      0.00
    9   11   19     -0.12     -0.01
    8   11   19     -1.28      0.08
   11    8   19     -0.31     -0.20
   11    7   19      0.15      1.11
    7   11   19     -0.81      0.25
    6   11   19     -1.98     -2.84
    5   11   19      1.32      0.37
   11    4   19      0.14     -0.29
    4   11   19      1.15      0.25
   11    3   19      0.27      0.64
    3   11   19      0.23     -0.44
    2   11   19     -0.18     -1.05
    1   11   19     -1.41      0.80
    0   11   19     -0.02      1.62
   11   11   19     -0.44      1.09
   12   11   19      0.14      0.46
   11   12   19      1.54      0.63
   12   10   19      0.30     -0.24
   10   12   19     -0.94     -0.39
   12    9   19     -2.03      0.68
    9   12   19     -0.21     -0.39
   12    8   19     -0.41      0.67
    8   12   19     -0.10      0.05
    7   12   19     -0.03      0.06
    6   12   19     -0.38      0.02
   12    6   19      0.84     -0.39
    5   12   19      0.58     -1.28
   12    5   19      0.39      0.62
    4   12   19      0.47      0.86
    3   12   19      0.03     -0.83
    2   12   19      0.66     -0.39
    1   12   19      0.59      1.22
    0   12   19     -1.10      0.04
   12   12   19     -0.95      0.73
   11   13   19      0.01     -1.55
   10   13   19      0.19     -0.19
    9   13   19      1.51     -0.52
    8   13   19      1.13      0.45
   13    7   19     -0.94     -0.57
    7   13   19      0.23      0.24
    6   13   19      1.93     -0.04
    5   13   19      1.44     -0.11
    4   13   19     -2.01     -0.20
   13    3   19     -0.17     -0.75
    3   13   19     -0.28      0.89
   13    2   19      0.19     -0.42
    2   13   19     -0.05     -1.26
    1   13   19      0.36      0.47
    0   13   19      0.02     -0.02
   13    0   19      0.01     -0.51
   13    4   19      0.10     -0.43
   13    5   19      0.89      0.23
   11   14   19     -0.21     -0.41
   10   14   19     -0.21      0.18
    9   14   19     -0.16      1.08
    8   14   19     -0.20      1.07
    7   14   19     -1.60     -0.24
    6   14   19      0.03     -0.71
    5   14   19      1.64      1.69
    4   14   19      0.08      0.29
    3   14   19      1.65      0.80
    2   14   19      1.04     -0.61
    1   14   19      1.38     -0.53
    0   14   19      2.46     -0.02
   11   15   19     -0.29      0.65
   10   15   19      1.06      0.63
    9   15   19     -0.42      0.04
    8   15   19     -0.76      0.80
    7   15   19     -1.83      0.21
    6   15   19      1.09     -0.72
    5   15   19      1.84      1.11
    4   15   19     -0.07     -0.48
    3   15   19      0.30     -0.75
    2   15   19      0.34     -1.37
    1   15   19     -0.49      0.61
    0   15   19      0.01     -1.03
   10   16   19      0.89     -0.49
    9   16   19      0.50     -0.35
    8   16   19      0.26      1.57
    7   16   19     -0.50     -1.19
    6   16   19     -0.52     -0.29
    5   16   19     -0.92      0.80
    4   16   19     -1.62      1.99
    3   16   19     -1.59     -0.47
    2   16   19     -0.73      1.02
    1   16   19     -0.75      0.93
    0   16   19      0.36      0.00
   10   17   19      0.59     -0.58
    9   17   19     -0.07      0.50
    8   17   19      0.39     -0.45
    7   17   19     -0.34      1.14
    6   17   19      0.01     -0.81
    5   17   19     -0.11     -1.98
    4   17   19      1.45      0.36
    3   17   19     -0.20     -0.97
    2   17   19      0.62      0.49
    1   17   19      0.48     -0.76
    0   17   19      0.04      2.43
    9   18   19      0.40      1.25
    8   18   19      0.17     -0.19
    7   18   19     -0.98      0.89
    6   18   19      0.47     -0.43
    5   18   19     -0.70     -1.99
    4   18   19     -0.25      0.05
    3   18   19     -1.48      0.53
    2   18   19     -0.96     -0.20
    1   18   19      2.02     -0.70
    0   18   19     -1.97      0.01
    9   19   19      0.94     -0.21
    8   19   19      0.04      0.90
    7   19   19     -0.77     -0.76
    6   19   19     -0.30      0.29
    5   19   19     -0.53      1.13
    4   19   19      1.51      0.09
    3   19   19     -0.50     -0.41
    2   19   19      0.19     -1.34
    1   19   19     -0.24     -0.88
    0   19   19      0.01      1.26
    8   20   19     -0.52      0.19
    7   20   19     -0.02      0.74
    6   20   19     -1.43     -0.17
    5   20   19     -0.61     -1.86
    4   20   19      0.46     -1.28
    3   20   19      1.56      0.61
    2   20   19     -0.39      0.22
    1   20   19     -0.32     -0.75
    0   20   19      0.47      0.00
    8   21   19     -0.07      1.28
    7   21   19     -0.53     -0.76
    6   21   19     -0.45      0.13
    5   21   19     -0.09     -1.25
    4   21   19      0.35     -1.48
    3   21   19      0.63      1.30
    2   21   19     -0.29      0.95
    1   21   19     -0.76      0.82
    0   21   19      0.01      0.77
    7   22   19     -0.35     -0.45
    6   22   19      1.09      0.30
    5   22   19      1.67      0.30
    4   22   19     -0.31     -0.55
    3   22   19      0.26      0.60
    2   22   19      0.41      0.79
    1   22   19      0.44      0.54
    0   22   19     -0.18     -0.02
    6   23   19     -0.15     -1.01
    5   23   19     -0.69      0.73
    4   23   19     -0.31      0.08
    3   23   19      0.01     -0.08
    2   23   19     -0.92     -0.14
    1   23   19     -0.48     -0.11
    0   23   19     -0.07     -0.27
    5   24   19     -0.40      0.54
    4   24   19      0.47      0.57
    3   24   19     -0.06      0.80
    2   24   19      0.01     -0.12
    1   24   19      0.59     -0.67
    0   24   19      0.86      0.03
    4   25   19      0.25     -0.75
    3   25   19     -0.92      0.12
    2   25   19      0.50     -0.44
    1   25   19     -0.24     -0.76
    0   25   19      0.00      0.33
    1   26   19      0.86      0.88
    0   26   19     -0.23      0.01
    2   26   19      0.18     -0.32
    1    0   20     -1.36      0.04
    1    1   20      1.33     -0.15
    2    1   20     -2.13      0.09
    0    2   20     -2.86     -0.05
    2    0   20      0.00      0.00
    2    2   20      0.77     -1.01
    3    2   20      0.44      0.60
    3    1   20      0.18     -1.00
    3    0   20     -2.50      0.00
    0    3   20     -0.06     -1.43
    2    3   20      1.13      0.64
    3    3   20      0.80     -1.20
    4    3   20      0.02      1.16
    4    2   20     -0.44      0.61
    2    4   20     -0.78     -0.09
    4    1   20      1.92      0.26
    1    4   20     -1.54      0.13
    4    0   20      0.38      0.00
    0    4   20      1.86      0.03
    3    4   20      0.51      1.63
    4    4   20      0.15     -0.55
    5    4   20      3.01     -0.67
    4    5   20     -0.08     -0.26
    5    3   20     -0.42      1.74
    3    5   20     -2.98      0.79
    2    5   20     -2.24     -0.16
    1    5   20     -1.78     -0.78
    5    1   20     -0.37     -1.60
    0    5   20      0.01     -0.13
    5    0   20     -0.94      0.01
    5    2   20     -0.71     -1.01
    5    5   20     -1.08      0.16
    5    6   20      0.12     -0.50
    4    6   20      0.00      0.38
    3    6   20     -0.47     -3.37
    6    2   20      0.54     -0.22
    2    6   20      0.66     -0.36
    6    1   20      0.73     -0.67
    6    0   20     -1.77      0.02
    0    6   20     -1.73      0.05
    1    6   20      0.00      1.80
    6    3   20     -1.04      0.34
    6    4   20     -0.07     -0.12
    6    6   20      1.06      1.16
    7    6   20      0.56      1.23
    6    7   20     -0.09     -3.78
    5    7   20      0.99     -0.33
    4    7   20     -1.23     -0.49
    3    7   20     -0.46     -0.65
    2    7   20     -1.09      0.03
    7    2   20      0.69     -0.52
    1    7   20      0.24      2.94
    7    1   20      0.71      0.34
    7    0   20      1.55      0.00
    0    7   20      0.09     -1.21
    7    4   20     -1.31     -1.02
    7    5   20      0.54      1.16
    7    7   20     -0.65     -2.18
    7    8   20     -1.86      0.47
    8    6   20      0.24     -2.08
    6    8   20     -1.32     -1.35
    5    8   20     -0.24      0.50
    4    8   20     -1.57      3.14
    8    4   20      0.83     -0.95
    8    3   20      0.45     -0.03
    3    8   20      0.27      1.12
    2    8   20      0.51     -0.41
    1    8   20      0.35     -1.00
    8    1   20     -0.58     -0.42
    0    8   20      2.59      0.01
    8    5   20     -2.19     -1.13
    8    7   20     -0.04      1.73
    8    8   20     -0.34      0.08
    9    8   20      3.50     -0.89
    8    9   20      1.38      1.92
    7    9   20      1.12      1.07
    6    9   20     -1.55      1.69
    5    9   20      1.02     -2.65
    9    5   20      0.77     -0.34
    9    4   20      0.07     -0.11
    4    9   20      0.44      0.72
    3    9   20      0.07      2.80
    2    9   20      1.29     -0.89
    1    9   20      0.85      0.51
    9    1   20      0.04      0.53
    0    9   20     -0.02      1.80
    9    0   20      0.04     -0.01
    9    7   20      0.07     -1.54
    9    9   20     -1.32      0.99
   10    9   20     -1.03     -1.66
    9   10   20     -0.28      0.16
    8   10   20      0.50      0.23
    7   10   20     -2.41     -0.18
   10    6   20      0.11     -0.43
    6   10   20     -1.01      1.43
   10    5   20      0.79     -0.14
    5   10   20      0.09     -1.22
    4   10   20      1.82     -1.07
   10    4   20      0.99     -0.78
   10    3   20      0.89     -0.91
    3   10   20      0.87      1.69
    2   10   20     -0.44      0.36
    1   10   20      0.45     -0.17
   10    1   20      0.23      2.11
    0   10   20     -0.62     -0.03
   10    0   20      1.09      0.00
   10    2   20     -0.18      0.38
   10    7   20     -0.59     -0.47
   10    8   20      0.40     -0.43
   10   10   20     -0.84      1.92
   11   10   20     -1.00      1.56
   10   11   20     -0.09     -0.23
   11    9   20      0.28     -0.43
    9   11   20     -0.83     -0.72
    8   11   20     -0.30      0.30
   11    8   20     -2.10      0.22
   11    7   20     -0.49      0.79
    7   11   20      0.09      0.72
    6   11   20     -0.77      0.72
   11    6   20      1.60      0.76
    5   11   20      0.12      0.92
   11    5   20     -0.12     -0.95
    4   11   20      0.48     -0.95
    3   11   20     -0.27     -1.44
    2   11   20      0.68      0.36
    1   11   20      0.11      0.00
   11    1   20     -1.40     -0.17
    0   11   20      0.01      1.25
   11   11   20      0.08     -1.00
   11   12   20     -0.62     -0.81
   12   10   20     -0.93      0.36
   10   12   20      0.21     -0.15
    9   12   20      0.31     -1.05
   12    9   20      0.30      0.33
   12    8   20      0.18      0.23
    8   12   20      1.64     -0.40
    7   12   20      0.16      0.10
   12    7   20      0.69      1.29
   12    6   20      0.08     -0.22
    6   12   20      0.24     -0.91
    5   12   20     -1.67     -0.44
   12    5   20     -0.54     -1.38
    4   12   20      0.95      1.07
   12    4   20     -0.10      0.44
    3   12   20     -0.12     -1.02
    2   12   20      0.80      0.73
    1   12   20     -0.03      0.60
    0   12   20     -3.34     -0.05
   12    0   20     -0.33      0.03
   11   13   20     -0.55      1.06
   10   13   20      0.91     -0.14
    9   13   20     -0.51     -0.97
    8   13   20     -0.37      0.14
    7   13   20     -0.58      0.73
    6   13   20     -0.74     -1.19
    5   13   20      0.82     -0.16
    4   13   20      1.29     -0.70
   13    4   20      0.85     -1.15
   13    3   20     -0.76      0.15
    3   13   20      1.33     -0.13
   13    2   20     -0.27      0.27
    2   13   20      0.08      1.73
    1   13   20      0.01      0.68
    0   13   20      0.01     -0.12
   11   14   20      0.37     -0.30
   10   14   20     -0.82     -0.33
    9   14   20     -0.50      1.16
    8   14   20      0.17      0.04
    7   14   20      0.65      1.71
    6   14   20      1.11      0.18
    5   14   20      1.10     -1.09
    4   14   20     -0.46      0.17
    3   14   20     -0.07     -0.64
    2   14   20      0.22      0.24
    1   14   20     -0.45     -1.36
    0   14   20     -0.99     -0.02
   10   15   20     -0.61      0.19
    9   15   20      0.53      0.13
    8   15   20      0.33      0.01
    7   15   20     -0.07      1.10
    6   15   20     -0.77      1.05
    5   15   20      0.10      1.30
    4   15   20      0.57      0.48
    3   15   20     -0.63     -0.06
    2   15   20      1.40     -0.07
    1   15   20      0.79      1.17
    0   15   20      0.02      0.23
   10   16   20     -1.49      0.64
    9   16   20      0.23     -0.05
    8   16   20     -0.85     -0.47
    7   16   20      0.46     -0.79
    6   16   20     -0.29      0.61
    5   16   20     -0.46     -0.87
    4   16   20     -0.05     -1.34
    3   16   20      2.13      0.38
    2   16   20      1.23     -0.89
    1   16   20      0.83      0.76
    0   16   20      0.73     -0.03
    9   17   20     -0.39     -0.22
    8   17   20     -0.70     -0.61
    7   17   20      1.77     -0.76
    6   17   20     -1.63     -0.62
    5   17   20      0.10      1.35
    4   17   20     -0.98     -0.63
    3   17   20     -0.83      0.79
    2   17   20     -2.52     -0.18
    1   17   20     -1.36      0.42
    0   17   20      0.00      1.27
    9   18   20      0.36     -0.90
    8   18   20      0.26      0.52
    7   18   20     -0.56     -0.59
    6   18   20      0.42      0.46
    5   18   20      0.20      0.44
    4   18   20     -0.83      0.25
    3   18   20     -0.40      0.11
    2   18   20      0.45      0.16
    1   18   20     -0.15     -0.12
    0   18   20     -0.27      0.01
    8   19   20      0.25      1.46
    7   19   20     -1.08      0.06
    6   19   20      0.79      0.26
    5   19   20     -0.80      0.30
    4   19   20      0.14     -2.17
    3   19   20     -0.27     -1.59
    2   19   20      0.79      0.65
    1   19   20     -0.76      1.69
    0   19   20      0.00     -1.79
    8   20   20     -0.68     -1.07
    7   20   20     -0.25      0.47
    6   20   20      0.52     -1.70
    5   20   20     -0.81     -0.18
    4   20   20     -0.46      0.90
    3   20   20      0.69     -0.05
    2   20   20      0.54      0.57
    1   20   20     -0.01      0.19
    0   20   20     -2.29     -0.01
    7   21   20     -0.17      0.01
    6   21   20      0.91     -1.51
    5   21   20      0.96     -0.43
    4   21   20      0.49      1.63
    3   21   20      0.21     -0.29
    2   21   20     -0.31     -0.63
    1   21   20      0.19      0.76
    0   21   20      0.01     -0.27
    6   22   20     -0.92     -0.62
    5   22   20      1.20     -0.52
    4   22   20     -0.18      0.17
    3   22   20     -1.80      0.09
    2   22   20     -0.10      0.31
    1   22   20     -0.43     -0.63
    0   22   20     -1.04      0.05
    5   23   20      0.73      0.69
    4   23   20      0.96      0.72
    3   23   20      0.18      0.06
    2   23   20     -0.50     -0.26
    1   23   20      0.20     -0.01
    0   23   20      0.04     -0.42
    4   24   20     -0.74      0.24
    3   24   20     -0.22      0.72
    2   24   20     -0.53     -0.28
    1   24   20      0.01     -0.16
    0   24   20      0.18     -0.02
    2   25   20      0.34     -0.52
    1   25   20      0.80     -0.06
    0   25   20     -0.02      0.56
    1    0   21     -0.05     -2.51
    1    1   21     -0.30      0.00
    2    1   21     -0.45      0.93
    1    2   21     -1.91      1.42
    0    2   21      0.26      0.03
    2    2   21     -0.45     -1.82
    3    1   21     -1.04      0.28
    1    3   21      0.54     -2.17
    3    0   21      0.06      0.67
    0    3   21      0.04     -3.75
    2    3   21      0.61      2.49
    3    3   21      0.85      1.00
    4    3   21      0.04      0.94
    3    4   21      0.69      0.16
    2    4   21     -2.97     -0.70
    4    1   21     -0.88     -0.60
    0    4   21     -1.63      0.01
    4    0   21      0.01     -1.29
    4    4   21      0.54      1.27
    4    5   21      0.63     -0.95
    5    4   21     -2.06      1.42
    5    3   21     -0.24     -1.51
    3    5   21     -0.53      0.01
    5    2   21      1.05     -0.18
    2    5   21      1.18     -1.41
    1    5   21      0.77     -0.41
    5    1   21      0.86     -0.40
    5    0   21      0.00      0.09
    5    5   21      1.02     -0.75
    6    5   21      1.04      0.11
    5    6   21      1.40     -2.02
    4    6   21      1.19      0.10
    6    4   21     -0.85      0.01
    6    3   21     -0.03     -1.01
    3    6   21     -2.04     -0.76
    2    6   21     -0.86     -0.19
    1    6   21     -1.36     -0.31
    6    1   21      0.58     -1.73
    6    0   21      0.02     -0.78
    0    6   21     -0.30      0.03
    6    6   21     -1.86     -0.99
    6    7   21     -0.40      2.24
    7    6   21     -2.00     -0.80
    5    7   21      0.80      0.07
    4    7   21      0.51     -0.87
    7    3   21      0.81     -0.20
    3    7   21     -0.76      0.94
    2    7   21     -0.26     -0.05
    7    2   21     -0.63     -0.26
    1    7   21     -0.77     -2.23
    7    0   21     -0.01     -0.32
    0    7   21      0.03      0.19
    7    1   21     -1.44     -0.44
    7    7   21     -1.24      0.76
    7    8   21      3.28      0.33
    8    7   21      1.58      0.70
    8    6   21      1.55     -1.61
    6    8   21      1.05     -1.20
    5    8   21     -2.84      0.54
    4    8   21      1.72     -0.48
    3    8   21      0.04     -0.86
    2    8   21     -0.92      3.92
    8    2   21      0.58      0.30
    1    8   21      0.21      1.34
    8    1   21      0.37      0.85
    0    8   21      1.04      0.07
    8    0   21      0.01      0.47
    8    4   21      0.05      1.32
    8    5   21     -0.80     -0.51
    8    8   21      0.78     -1.12
    9    8   21      0.06      0.61
    8    9   21     -1.38     -1.28
    9    7   21      0.31     -2.69
    7    9   21     -0.17      0.02
    6    9   21      0.41     -0.43
    9    6   21     -0.22     -0.93
    5    9   21     -1.48     -0.21
    9    5   21     -0.32     -0.54
    4    9   21     -0.27      0.54
    9    4   21     -0.12     -0.70
    3    9   21      0.59      1.53
    9    2   21      0.60      0.58
    2    9   21     -0.45      0.15
    1    9   21      1.06      0.83
    9    1   21      0.72      0.97
    0    9   21     -0.03     -2.67
    9    0   21     -0.01      1.14
    9    9   21     -0.46      0.73
    9   10   21     -0.51      0.49
   10    9   21      0.22      1.67
   10    8   21      0.01      0.86
    8   10   21     -0.65      1.82
   10    7   21      0.49     -2.07
    7   10   21     -0.04      0.69
    6   10   21      1.01     -0.60
   10    5   21      0.36      1.00
    5   10   21      0.32      1.89
    4   10   21     -2.05      0.66
    3   10   21     -0.67     -1.13
   10    3   21     -0.17     -0.83
   10    2   21     -0.66     -0.08
    2   10   21      0.62     -0.53
    1   10   21      1.18     -0.21
    0   10   21      1.47     -0.06
   10    6   21     -1.60      0.42
   10   10   21      0.05     -0.61
   11   10   21     -0.77      0.08
   10   11   21     -0.79      0.20
   11    9   21      0.32     -0.17
    9   11   21      0.07     -0.08
    8   11   21      0.02     -1.22
   11    8   21     -0.50      0.53
   11    7   21      0.49      0.72
    7   11   21     -0.97     -0.09
    6   11   21     -1.25      0.34
    5   11   21      1.92      0.14
   11    5   21      1.17     -0.15
    4   11   21     -1.34      0.92
    3   11   21      1.12      0.61
   11    3   21     -1.45      0.60
   11    2   21     -0.59     -0.23
    2   11   21      2.21     -0.40
    1   11   21     -1.65      2.00
   11    0   21     -0.01      1.97
    0   11   21     -0.02      1.53
   11    6   21      0.67     -0.45
   11   11   21     -0.99      0.71
   11   12   21      1.13     -0.06
   10   12   21     -1.28     -0.96
    9   12   21     -0.20      0.00
    8   12   21     -0.62     -0.69
    7   12   21     -1.66     -0.76
    6   12   21     -0.81     -0.39
    5   12   21      1.00      0.21
    4   12   21      2.07     -0.21
   12    4   21     -0.66     -0.67
    3   12   21      1.50      0.12
   12    3   21      1.08     -0.31
    2   12   21      1.12     -0.14
    1   12   21     -1.71      1.11
   12    1   21     -0.48      0.33
    0   12   21     -2.14      0.04
   12    6   21      0.69      0.15
   12    7   21     -0.52     -0.07
   12    8   21      0.16     -0.50
   10   13   21      0.51     -0.64
    9   13   21      0.86      0.61
    8   13   21     -0.65      0.93
    7   13   21      0.99     -1.16
    6   13   21      1.42     -1.20
    5   13   21     -0.07      0.16
    4   13   21     -1.80      0.61
    3   13   21     -0.54      0.03
    2   13   21     -1.00      0.47
    1   13   21     -0.38      0.15
    0   13   21     -0.04     -2.05
   10   14   21      0.90      1.05
    9   14   21      0.27      0.06
    8   14   21      0.02      0.86
    7   14   21     -0.52     -0.66
    6   14   21      0.94      0.91
    5   14   21      0.70      1.41
    4   14   21      0.40     -0.25
    3   14   21      0.03     -0.24
    2   14   21      0.30     -0.42
    1   14   21      1.07      0.38
    0   14   21     -0.37      0.02
   10   15   21      0.22      0.80
    9   15   21     -1.65     -0.95
    8   15   21     -0.92      1.54
    7   15   21     -0.51     -0.67
    6   15   21      2.37     -0.51
    5   15   21      0.01      0.12
    4   15   21      0.66     -0.74
    3   15   21      0.45     -1.99
    2   15   21      0.51      0.01
    1   15   21      0.26     -0.43
    0   15   21      0.06      0.05
    9   16   21     -0.19      0.60
    8   16   21     -0.20      0.05
    7   16   21     -1.37     -1.61
    6   16   21      1.67      0.47
    5   16   21     -0.17      0.96
    4   16   21     -0.87      1.52
    3   16   21     -0.37      0.10
    2   16   21     -0.75      1.40
    1   16   21     -0.26     -0.18
    0   16   21     -0.74      0.00
    9   17   21      0.00      0.69
    8   17   21     -0.25     -0.96
    7   17   21     -0.82      1.29
    6   17   21     -0.12     -0.51
    5   17   21      0.68      0.03
    4   17   21     -0.60      0.10
    3   17   21     -0.10     -0.20
    2   17   21      0.43     -0.52
    1   17   21      0.63      1.25
    0   17   21      0.07      2.19
    8   18   21     -0.08      0.21
    7   18   21     -0.51      0.16
    6   18   21      0.13     -0.91
    5   18   21     -0.88     -0.48
    4   18   21     -1.60      0.94
    3   18   21      0.64     -0.66
    2   18   21      0.95     -0.72
    1   18   21      0.88      0.23
    0   18   21     -1.50      0.03
    8   19   21     -0.86      0.35
    7   19   21     -0.26     -1.86
    6   19   21     -1.23     -0.35
    5   19   21      1.99      0.66
    4   19   21      0.06     -0.56
    3   19   21     -0.70     -0.14
    2   19   21     -0.51     -0.24
    1   19   21     -0.06      0.41
    0   19   21     -0.01      0.76
    7   20   21      1.01     -0.10
    6   20   21     -1.46     -0.04
    5   20   21      0.98     -1.40
    4   20   21      1.64      0.15
    3   20   21     -0.36      0.54
    2   20   21     -0.19      0.33
    1   20   21      0.21     -0.73
    0   20   21     -0.47     -0.04
    6   21   21     -0.17      0.10
    5   21   21     -0.25     -1.84
    4   21   21      0.53     -0.40
    3   21   21     -1.06      1.31
    2   21   21     -1.22      0.21
    1   21   21     -1.14      0.61
    0   21   21     -0.01      0.06
    5   22   21      0.04     -0.26
    4   22   21      0.02      0.69
    3   22   21      0.09      1.29
    2   22   21      0.09      0.00
    1   22   21     -0.48     -0.18
    0   22   21     -0.10      0.00
    4   23   21      0.62     -0.07
    3   23   21      0.06      0.00
    2   23   21     -0.37      0.10
    1   23   21      0.04      0.49
    0   23   21     -0.04     -1.46
    3   24   21     -0.68     -0.27
    2   24   21      0.69     -0.61
    1   24   21      0.25     -0.77
    0   24   21      0.07      0.01
    0    0   22      0.24      0.01
    1    0   22     -0.95      0.01
    0    1   22     -0.07     -1.18
    1    1   22      1.84     -1.18
    1    2   22     -0.63      0.64
    0    2   22     -0.12     -0.04
    2    0   22      0.01      0.02
    2    2   22     -0.14     -0.66
    3    2   22      0.10      0.25
    2    3   22     -1.24      1.58
    1    3   22     -2.50     -0.62
    3    1   22     -2.19     -1.59
    0    3   22     -0.04      0.04
    3    0   22      0.64      0.00
    3    3   22     -1.95      0.02
    3    4   22      0.27      0.37
    4    3   22     -1.41     -0.43
    2    4   22      0.07     -2.38
    1    4   22      2.00     -0.50
    4    1   22      0.17      0.54
    0    4   22      2.55      0.07
    4    0   22      1.36     -0.03
    4    4   22     -1.77      0.74
    4    5   22      0.11      0.36
    5    4   22      0.41     -0.43
    3    5   22     -0.43     -0.08
    5    3   22      0.12      1.28
    5    2   22      0.25     -0.38
    5    1   22     -0.52     -0.18
    0    5   22     -0.03     -2.02
    1    5   22     -0.67     -1.38
    2    5   22     -0.67     -1.32
    5    5   22     -0.68     -0.46
    5    6   22      0.29     -0.16
    6    4   22      0.24     -2.48
    4    6   22      0.02     -0.29
    3    6   22      0.84     -2.45
    6    3   22     -1.40      0.12
    2    6   22     -0.07     -1.22
    1    6   22     -1.59      1.14
    6    1   22      0.71     -0.50
    0    6   22      0.17      0.01
    6    0   22     -1.05      0.00
    6    2   22      0.67      0.66
    6    6   22      1.68     -0.14
    7    6   22      0.52      1.66
    6    7   22      1.17     -1.05
    5    7   22      1.57      1.57
    7    5   22      0.69      0.60
    4    7   22     -1.78     -0.72
    7    4   22     -1.48     -0.24
    3    7   22      2.43     -0.02
    2    7   22      1.04      0.92
    1    7   22      0.07      1.32
    7    1   22     -0.48      0.42
    0    7   22      0.04      1.43
    7    0   22     -0.21     -0.01
    7    2   22      1.89      0.45
    7    3   22     -0.12      0.27
    7    7   22      0.27     -3.91
    7    8   22     -1.50     -0.68
    8    6   22      0.11     -1.63
    6    8   22     -0.95      0.23
    5    8   22      2.20      0.78
    4    8   22     -0.26      0.45
    8    4   22      0.27     -0.56
    3    8   22     -0.57     -0.23
    2    8   22     -0.17      0.45
    1    8   22     -1.17     -0.62
    8    1   22      0.86     -0.11
    0    8   22      0.23      0.03
    8    7   22      0.30     -0.22
    8    8   22     -2.13     -0.14
    9    8   22      0.94     -0.01
    8    9   22      2.52      2.32
    9    7   22      0.49      1.15
    7    9   22      0.52      0.69
    6    9   22      0.21      0.77
    5    9   22      0.17     -1.43
    9    5   22     -1.19     -1.06
    4    9   22     -0.82      1.38
    3    9   22     -2.71      1.71
    2    9   22      0.50     -1.38
    1    9   22      0.67      0.31
    0    9   22     -0.01     -0.08
    9    0   22      0.81      0.01
    9    6   22      0.84     -1.53
    9    9   22      0.87      2.16
   10    9   22     -0.84     -0.05
    9   10   22      0.01     -0.51
   10    8   22      2.82     -0.22
    8   10   22     -0.66     -0.19
   10    7   22      0.05     -1.28
    7   10   22     -0.08      0.99
    6   10   22     -0.28     -0.41
    5   10   22     -1.07     -0.42
   10    5   22      0.85      0.77
   10    4   22      0.59      1.52
    4   10   22      1.81      0.76
    3   10   22      0.19     -0.80
    2   10   22      0.23      2.20
   10    2   22     -1.40      0.00
    1   10   22      0.44      0.55
   10    1   22      0.76      1.32
    0   10   22     -1.08      0.02
   10   10   22      0.20      0.41
   11   10   22     -0.23      2.84
   10   11   22     -0.54      0.57
   11    9   22      0.07     -1.11
    9   11   22     -1.23     -0.64
   11    8   22     -0.70     -0.30
    8   11   22     -1.13      1.07
   11    7   22     -0.01      0.14
    7   11   22     -0.26      0.17
   11    6   22      0.39     -0.94
    6   11   22     -1.43      0.10
   11    5   22     -0.64      0.62
    5   11   22      0.60     -1.76
    4   11   22      1.03     -1.48
   11    4   22      1.23     -1.42
    3   11   22      0.76     -0.10
   11    3   22      0.56     -0.22
    2   11   22     -0.14      1.51
    1   11   22      0.95      1.53
   11    0   22     -0.97     -0.01
    0   11   22      0.05     -2.21
   11   11   22     -1.14     -1.36
   10   12   22      0.56     -0.26
    9   12   22      1.82     -0.91
    8   12   22     -0.08      0.43
    7   12   22     -1.60     -0.67
    6   12   22     -0.77     -1.15
    5   12   22     -1.05      1.11
   12    5   22      0.48     -0.74
    4   12   22      0.63      1.75
   12    4   22     -0.18     -0.24
    3   12   22     -0.46      0.95
   12    3   22     -1.02     -0.48
    2   12   22      0.26      0.31
    1   12   22     -1.72     -0.70
    0   12   22     -1.95     -0.03
   10   13   22      0.44     -1.17
    9   13   22     -0.51      0.26
    8   13   22      0.18     -0.46
    7   13   22     -1.21      0.21
    6   13   22     -0.21     -0.12
    5   13   22      1.03      0.39
    4   13   22      0.16      1.44
    3   13   22      1.67      1.08
    2   13   22      0.39      0.67
    1   13   22     -0.98     -0.01
    0   13   22      0.02     -0.05
    9   14   22     -0.63      0.68
    8   14   22      0.83     -1.19
    7   14   22      0.16      0.90
    6   14   22      0.98     -1.31
    5   14   22      0.87     -0.89
    4   14   22     -0.20     -1.26
    3   14   22      0.07      0.55
    2   14   22     -0.38     -0.86
    1   14   22     -1.38     -0.28
    0   14   22      0.30     -0.03
   10   14   22     -1.56      0.01
    9   15   22      0.73     -0.15
    8   15   22      0.15      0.48
    7   15   22      0.13     -0.05
    6   15   22     -0.05     -0.25
    5   15   22      1.30      0.79
    4   15   22      0.42      0.04
    3   15   22     -0.72     -0.25
    2   15   22      0.75      0.58
    1   15   22     -0.73     -0.07
    0   15   22      0.01     -0.98
    9   16   22      0.40     -0.13
    8   16   22     -0.53      0.54
    7   16   22      1.20      0.84
    6   16   22     -0.34      0.33
    5   16   22      0.11     -0.07
    4   16   22      0.20     -0.90
    3   16   22      0.86     -0.77
    2   16   22      0.13     -0.89
    1   16   22      0.71      0.59
    0   16   22     -0.72     -0.01
    8   17   22      0.40     -0.29
    7   17   22      1.28     -0.23
    6   17   22     -1.18      0.34
    5   17   22     -0.30      0.97
    4   17   22      0.29     -0.34
    3   17   22     -1.60     -0.25
    2   17   22     -0.72      0.72
    1   17   22     -0.03      0.06
    0   17   22      0.04     -0.50
    8   18   22     -0.95      0.25
    7   18   22     -2.15     -0.68
    6   18   22      0.80      0.41
    5   18   22     -1.16     -0.02
    4   18   22      0.38      0.49
    3   18   22     -0.33     -0.29
    2   18   22      0.29      0.27
    1   18   22     -1.87     -0.27
    0   18   22      0.64      0.08
    7   19   22     -0.40      0.80
    6   19   22      0.63      0.44
    5   19   22     -1.55     -0.95
    4   19   22     -0.31     -1.48
    3   19   22      1.39      0.45
    2   19   22      0.70      0.54
    1   19   22      0.35      0.93
    0   19   22      0.00     -1.16
    6   20   22      0.39     -0.71
    5   20   22     -0.98     -0.45
    4   20   22      0.58     -0.25
    3   20   22      1.20      0.10
    2   20   22     -0.26      0.25
    1   20   22     -0.95      0.12
    0   20   22     -1.11      0.01
    5   21   22      1.03      0.78
    4   21   22     -0.17      0.59
    3   21   22     -0.50     -0.76
    2   21   22     -1.28      1.07
    1   21   22      0.37      0.43
    0   21   22      0.04     -0.62
    4   22   22     -1.57      0.28
    3   22   22     -0.43     -0.09
    2   22   22      0.49     -0.06
    1   22   22     -0.79     -0.13
    0   22   22     -1.29      0.02
    3   23   22     -0.45     -0.49
    2   23   22     -0.10     -0.47
    1   23   22      0.02      0.00
    0   23   22     -0.01     -0.55
    1    0   23     -0.05     -2.08
    0    1   23     -0.01      1.78
    1    1   23      0.11     -0.45
    2    0   23     -0.01     -3.80
    0    2   23      1.11     -0.01
    1    2   23     -0.74      1.18
    2    2   23     -1.99      0.52
    3    2   23     -0.91      1.07
    2    3   23      0.26      0.18
    1    3   23      0.84     -3.57
    3    1   23      0.96     -0.24
    0    3   23      0.00      0.39
    3    0   23      0.01      0.08
    3    3   23     -1.75     -0.25
    3    4   23     -1.23     -0.21
    4    3   23     -0.02      0.67
    2    4   23     -2.97      0.25
    4    2   23     -0.58     -0.15
    4    1   23      0.16      1.03
    1    4   23     -0.46     -0.14
    4    0   23     -0.01      0.31
    0    4   23     -1.62      0.02
    4    4   23     -0.66     -0.03
    4    5   23     -0.92     -1.09
    5    4   23     -0.88      0.36
    5    3   23     -0.36      0.21
    3    5   23     -0.91     -0.65
    2    5   23      1.08     -1.09
    1    5   23     -0.07     -1.08
    5    1   23      1.06     -0.11
    0    5   23     -0.01     -0.52
    5    5   23     -0.98     -1.30
    6    5   23     -0.38     -0.87
    5    6   23      1.38      0.19
    6    4   23     -0.90      0.93
    4    6   23      0.57      0.48
    3    6   23     -0.66     -1.60
    6    2   23     -0.70      0.38
    2    6   23      1.78     -0.15
    6    1   23      2.51      0.31
    1    6   23      1.38     -0.69
    0    6   23      1.54      0.05
    6    3   23      0.21     -0.61
    6    6   23      0.74     -2.24
    6    7   23      0.91     -0.03
    7    6   23     -2.14     -1.51
    5    7   23      0.52     -0.44
    4    7   23      0.77      0.65
    7    4   23     -0.43     -0.06
    3    7   23      1.11     -0.65
    7    3   23     -1.41      0.11
    2    7   23     -1.18     -0.45
    1    7   23     -0.13     -2.11
    0    7   23      0.01      0.83
    7    5   23      0.88     -1.85
    7    7   23     -0.61      1.01
    8    7   23      0.13      0.57
    7    8   23      2.86      0.90
    6    8   23     -0.56      0.86
    5    8   23     -1.45      1.13
    8    5   23     -0.64      0.31
    4    8   23      0.89      0.67
    3    8   23     -0.22      1.19
    8    3   23     -0.15      0.92
    2    8   23     -0.76      0.40
    1    8   23      0.33      0.94
    8    0   23     -0.01     -0.28
    0    8   23      1.08      0.04
    8    2   23     -0.78      1.13
    8    6   23     -0.05     -0.43
    8    8   23      2.71     -0.28
    9    8   23      1.05     -0.96
    8    9   23     -0.53     -0.94
    7    9   23      0.08      0.08
    9    7   23      0.55     -1.38
    6    9   23      0.90      1.02
    5    9   23     -0.21      0.92
    9    5   23     -0.30     -1.36
    4    9   23      0.14     -1.07
    9    3   23      0.64      0.62
    3    9   23      0.85      0.16
    9    2   23      1.45      1.20
    2    9   23     -0.64     -0.40
    1    9   23     -0.40      1.76
    9    1   23      0.44     -0.55
    0    9   23      0.01      0.43
    9    4   23     -1.15      0.83
    9    6   23      1.42     -1.09
    9    9   23      0.06     -0.35
    9   10   23     -0.70      2.09
   10    9   23     -0.73      1.87
    8   10   23      0.55      1.01
   10    8   23      0.66      0.35
   10    7   23      0.76     -3.05
    7   10   23     -0.20      0.04
   10    6   23     -1.85      0.38
    6   10   23      0.54     -0.33
    5   10   23      0.11     -0.59
   10    5   23     -1.12     -0.47
    4   10   23     -2.84     -1.68
   10    4   23     -0.37     -0.16
   10    3   23      1.51     -0.14
    3   10   23      0.35     -0.47
    2   10   23      1.27      1.46
   10    2   23      0.77     -0.09
    1   10   23     -0.14     -1.66
    0   10   23      1.07     -0.05
   10   10   23     -0.56     -0.75
    9   11   23      0.74     -0.11
    8   11   23      0.99      0.39
   11    8   23     -0.13     -1.01
    7   11   23     -1.00      0.62
   11    7   23      0.10     -0.14
   11    6   23      0.16     -0.04
    6   11   23     -0.10      0.25
    5   11   23      0.07      0.48
   11    5   23      0.18      0.67
   11    4   23      0.28      0.60
    4   11   23     -0.32      1.20
    3   11   23      0.47      1.45
    2   11   23     -0.45     -0.46
   11    2   23     -0.80     -0.53
    1   11   23     -1.01      0.66
    0   11   23     -0.03     -0.26
   10   11   23      0.65     -0.31
    9   12   23     -0.23     -0.12
    8   12   23     -1.93     -0.36
    7   12   23     -0.69     -0.08
    6   12   23      0.07     -0.06
    5   12   23      0.94      1.57
    4   12   23      2.28     -0.10
    3   12   23     -0.43     -0.18
    2   12   23     -0.38      2.20
    1   12   23     -0.72      0.51
    0   12   23     -0.18      0.01
   10   12   23     -0.54     -0.37
    9   13   23     -1.06      0.28
    8   13   23     -1.20     -0.88
    7   13   23      1.32     -1.98
    6   13   23     -0.73     -0.61
    5   13   23     -1.58      0.78
    4   13   23     -1.19      1.51
    3   13   23      1.05      0.06
    2   13   23     -1.07      1.13
    1   13   23      0.60     -1.17
    0   13   23     -0.06     -2.63
    9   14   23     -0.09     -1.19
    8   14   23     -0.77     -0.06
    7   14   23     -0.45     -0.75
    6   14   23      0.83      1.13
    5   14   23     -0.25      0.27
    4   14   23     -0.42     -0.07
    3   14   23      0.29      0.30
    2   14   23     -0.16     -0.68
    1   14   23      0.09      0.02
    0   14   23      0.39      0.03
    8   15   23      0.16      1.14
    7   15   23      0.68     -1.40
    6   15   23      1.59      0.77
    5   15   23     -0.15     -0.55
    4   15   23     -0.30     -0.42
    3   15   23      0.14     -1.42
    2   15   23      1.02     -0.28
    1   15   23     -1.21     -0.25
    0   15   23      0.01      0.45
    8   16   23      0.11     -1.83
    7   16   23      0.84     -0.63
    6   16   23      2.30      0.42
    5   16   23      0.50      0.26
    4   16   23     -0.58     -0.14
    3   16   23      0.71      0.45
    2   16   23     -0.89     -0.12
    1   16   23     -0.90     -0.04
    0   16   23     -2.16      0.01
    7   17   23     -0.58      0.08
    6   17   23      0.41      0.42
    5   17   23      0.35      0.06
    4   17   23     -0.82     -0.63
    3   17   23      0.14      0.16
    2   17   23      0.07     -0.08
    1   17   23     -0.15      1.06
    0   17   23      0.07     -0.48
    7   18   23      0.19     -0.13
    6   18   23     -0.50      0.55
    5   18   23     -1.33      1.98
    4   18   23     -0.62     -0.53
    3   18   23      1.17     -1.83
    2   18   23      0.57     -0.02
    1   18   23      0.86      0.45
    0   18   23     -0.63      0.04
    6   19   23     -0.96     -0.47
    5   19   23      1.24      0.65
    4   19   23     -0.47     -1.21
    3   19   23     -0.24      0.20
    2   19   23     -0.37      0.09
    1   19   23      0.07      0.17
    0   19   23      0.00     -0.18
    5   20   23      1.02     -0.52
    4   20   23      0.99      0.70
    3   20   23     -1.24      0.75
    2   20   23      0.52     -0.23
    1   20   23     -0.91     -0.93
    0   20   23      0.38     -0.02
    4   21   23     -0.40      1.09
    3   21   23     -0.81      0.10
    2   21   23     -0.60      0.17
    1   21   23      0.12      0.42
    0   21   23     -0.01      0.00
    3   22   23     -0.45     -0.07
    2   22   23     -0.86     -0.94
    1   22   23     -1.05      0.43
    0   22   23      0.42      0.00
    0   23   23      0.00     -0.91
    0    0   24     -0.01      0.02
    0    1   24     -0.08     -0.93
    1    0   24      1.56      0.01
    1    1   24      0.60     -1.70
    1    2   24      0.35      0.55
    2    1   24      0.43      0.03
    2    0   24      1.41      0.04
    0    2   24      1.53     -0.13
    2    2   24     -0.41     -2.03
    3    2   24      0.96     -0.22
    2    3   24      0.09      1.30
    1    3   24     -1.73      1.80
    3    1   24      1.06     -0.48
    3    0   24      0.42      0.04
    0    3   24     -0.08      1.96
    3    3   24     -1.34     -0.07
    3    4   24      0.03     -1.23
    4    3   24     -1.50      0.05
    2    4   24     -1.09     -2.34
    4    1   24      0.14     -0.25
    1    4   24      0.57      0.78
    4    0   24      2.51      0.00
    0    4   24     -0.14     -0.01
    4    2   24     -0.72      0.43
    4    4   24     -1.76     -0.60
    5    4   24     -1.08     -0.07
    4    5   24     -0.67     -0.65
    3    5   24     -0.85      0.38
    5    3   24      0.05      1.00
    2    5   24      0.53     -1.61
    5    2   24      0.61      0.37
    1    5   24     -0.63     -1.02
    0    5   24     -0.07     -0.04
    5    0   24     -0.17     -0.03
    5    1   24     -1.61      0.43
    5    5   24      0.47     -0.31
    6    5   24     -0.18     -0.98
    5    6   24     -0.07     -0.61
    4    6   24     -0.35     -1.60
    3    6   24     -0.04     -0.88
    6    3   24      1.20      0.46
    2    6   24     -0.43      0.24
    6    2   24      0.40      0.10
    1    6   24     -0.66     -0.53
    6    1   24     -1.16     -0.22
    6    0   24      1.76     -0.03
    0    6   24      0.01     -0.01
    6    4   24     -1.03     -1.11
    6    6   24      0.83     -1.47
    6    7   24      0.71      1.23
    7    6   24      0.65      0.02
    5    7   24     -0.77      1.35
    7    5   24     -0.89     -0.86
    4    7   24     -0.38     -0.11
    7    4   24     -1.84     -0.32
    3    7   24      2.34      0.48
    7    3   24     -0.40      0.86
    2    7   24      0.49      0.91
    7    2   24      2.02      1.08
    1    7   24      1.35     -0.31
    7    1   24     -0.12      1.04
    0    7   24      0.05      0.05
    7    0   24     -0.12     -0.02
    7    7   24      1.13     -1.95
    8    7   24      1.12     -2.68
    7    8   24      0.13     -0.18
    8    6   24      0.58     -1.02
    6    8   24      0.83      0.46
    5    8   24      1.07      0.86
    8    5   24     -0.31      0.22
    8    4   24     -0.28     -0.41
    4    8   24      0.17      0.09
    8    3   24      1.01      0.80
    3    8   24     -0.59     -0.24
    2    8   24      1.26      0.64
    8    2   24      0.39     -0.79
    1    8   24      0.43      0.40
    8    1   24      0.88      0.22
    0    8   24     -0.18      0.01
    8    0   24      1.28     -0.04
    8    8   24     -2.05      0.35
    9    8   24     -2.00     -0.44
    8    9   24      0.78      1.02
    7    9   24     -0.02      0.54
    9    7   24      0.26      0.96
    6    9   24     -0.45     -0.68
    9    6   24     -0.07     -1.25
    9    5   24     -1.18     -0.88
    5    9   24     -0.85     -0.46
    4    9   24     -0.45      1.68
    3    9   24      0.46     -0.83
    9    3   24     -0.26     -0.47
    2    9   24      0.23     -0.91
    9    2   24      1.47      0.53
    1    9   24     -0.11     -0.63
    0    9   24     -0.01     -0.34
    9    4   24     -0.89      0.20
    9    9   24      1.84      0.88
    9   10   24      0.82     -0.47
   10    9   24     -0.48      0.94
   10    8   24      1.64      0.55
    8   10   24      0.74      0.48
    7   10   24      0.81      1.38
   10    7   24      0.78     -1.39
    6   10   24     -0.81      0.08
   10    6   24     -0.92     -1.25
    5   10   24      1.18      0.13
    4   10   24      1.84     -0.08
   10    4   24     -0.20      2.40
    3   10   24      0.20     -0.10
    2   10   24     -1.64      1.29
   10    2   24     -1.58     -1.29
    1   10   24     -1.03      0.01
   10    1   24      0.43     -1.10
    0   10   24      1.54      0.08
   10    0   24      1.08     -0.01
   10    5   24      0.20      0.66
   10   10   24      0.38     -0.50
    9   11   24     -0.57      0.63
    8   11   24      0.00      0.61
    7   11   24     -0.23     -0.72
    6   11   24      1.09     -0.46
    5   11   24      1.81     -2.44
    4   11   24     -0.29     -0.86
   11    4   24      0.09     -0.16
    3   11   24     -0.11      2.22
    2   11   24     -0.19      0.56
   11    2   24      0.55      0.83
    1   11   24     -0.36      0.48
   11    1   24     -0.27      0.29
    0   11   24      0.01     -1.81
   11    0   24     -0.79     -0.01
    9   12   24      0.57      0.86
    8   12   24     -1.25     -0.05
    7   12   24     -0.79     -0.94
    6   12   24     -0.40      0.05
    5   12   24      0.53      1.77
    4   12   24     -0.66      1.73
    3   12   24     -1.10      0.69
    2   12   24      0.74      0.05
    1   12   24     -2.57     -1.14
    0   12   24      0.79     -0.04
    9   13   24     -0.28      0.86
    8   13   24     -0.05     -0.70
    7   13   24     -1.39      0.68
    6   13   24     -0.14      0.51
    5   13   24     -0.24      1.49
    4   13   24      0.12      1.48
    3   13   24     -0.12      0.35
    2   13   24     -0.92      0.35
    1   13   24      0.76     -0.71
    0   13   24      0.01     -0.69
    8   14   24      0.07      0.23
    7   14   24     -0.84      0.12
    6   14   24      0.14     -0.98
    5   14   24     -1.32      0.52
    4   14   24     -0.26      0.36
    3   14   24     -0.63      0.88
    2   14   24     -0.41      0.05
    1   14   24      0.04      0.26
    0   14   24      0.65      0.01
    8   15   24      0.34     -0.22
    7   15   24      0.41     -1.15
    6   15   24      0.01     -0.98
    5   15   24      0.94      0.63
    4   15   24      0.92     -0.04
    3   15   24     -0.39     -0.60
    2   15   24      0.75      0.64
    1   15   24     -0.62     -0.54
    0   15   24      0.00     -0.86
    7   16   24      0.95      0.79
    6   16   24      0.08     -1.21
    5   16   24      0.18     -0.64
    4   16   24      0.18     -1.32
    3   16   24      0.69     -1.01
    2   16   24     -0.77     -0.83
    1   16   24      0.55     -0.42
    0   16   24     -0.58      0.00
    7   17   24      0.57      0.03
    6   17   24      0.56      1.44
    5   17   24     -0.18      0.25
    4   17   24     -0.08     -0.33
    3   17   24     -0.55     -0.75
    2   17   24      0.72      0.06
    1   17   24     -1.00     -1.74
    0   17   24      0.01      0.73
    6   18   24      0.62      0.28
    5   18   24      0.16     -0.95
    4   18   24     -0.10      0.49
    3   18   24      0.16      0.27
    2   18   24     -0.99      1.09
    1   18   24     -1.30      0.03
    0   18   24      1.14      0.06
    5   19   24     -0.61     -0.96
    4   19   24      1.11      0.49
    3   19   24      1.20      1.00
    2   19   24     -0.07     -0.14
    1   19   24      0.23      0.20
    0   19   24     -0.02     -1.36
    4   20   24      1.13     -0.23
    3   20   24      0.38     -0.40
    2   20   24     -0.43     -0.14
    1   20   24     -0.24     -0.05
    0   20   24     -0.23      0.02
    3   21   24     -0.65      0.05
    2   21   24     -0.82      0.92
    1   21   24      0.40     -0.64
    0   21   24      0.00     -1.09
    1    0   25     -0.05     -0.60
    0    1   25      0.02      0.44
    1    1   25      0.40     -1.04
    1    2   25      2.26      0.62
    2    1   25      1.33     -0.34
    0    2   25     -1.53     -0.12
    2    0   25      0.05     -1.76
    2    2   25      1.10      0.36
    3    2   25     -0.83      0.90
    2    3   25      0.34     -0.70
    3    1   25      0.23     -0.14
    1    3   25      1.43     -2.12
    3    0   25     -0.02     -0.84
    0    3   25      0.01      1.35
    3    3   25     -1.62     -1.05
    3    4   25      0.07     -0.72
    2    4   25     -2.33      0.25
    4    2   25      0.43      0.84
    1    4   25      0.70      0.81
    4    1   25     -0.09      0.65
    4    0   25     -0.01     -0.96
    4    3   25     -0.46     -0.70
    4    4   25      0.32      0.79
    4    5   25     -0.46     -1.27
    5    4   25      0.11     -0.02
    5    3   25     -0.34     -0.06
    3    5   25     -0.32     -1.24
    2    5   25     -0.17     -0.52
    5    2   25     -0.45      0.04
    1    5   25     -2.20      0.11
    0    5   25     -0.06      1.35
    5    5   25     -1.44     -1.00
    5    6   25      0.18      0.36
    6    5   25     -0.42     -0.25
    6    4   25     -0.25      0.51
    4    6   25     -0.81     -0.77
    3    6   25      0.30     -0.92
    6    3   25     -0.61     -0.37
    2    6   25      0.91     -0.97
    6    2   25     -0.46      0.26
    1    6   25      1.15     -0.36
    6    0   25     -0.01      4.38
    6    6   25      0.67     -0.76
    7    6   25     -0.37     -0.94
    6    7   25      1.03     -0.34
    5    7   25      0.24      0.01
    7    5   25      0.11     -1.75
    4    7   25     -0.17     -0.29
    7    4   25      0.99      0.20
    3    7   25     -0.32      0.46
    2    7   25      0.28     -0.86
    7    2   25      0.60     -0.85
    1    7   25      0.69     -0.30
    7    1   25      2.80     -0.85
    7    0   25      0.01     -1.06
    0    7   25     -0.01      1.85
    7    3   25     -1.14      1.01
    7    7   25     -0.02     -0.59
    8    7   25     -0.26      0.62
    7    8   25     -0.12      0.47
    6    8   25     -1.35      1.11
    8    6   25     -1.01     -0.52
    8    5   25     -0.91      0.36
    5    8   25     -1.34      0.19
    4    8   25      0.02      0.18
    8    4   25     -0.65     -0.59
    3    8   25     -0.04      0.52
    8    2   25      0.42     -0.45
    2    8   25      0.73      0.08
    1    8   25      0.38      0.13
    8    1   25     -0.30     -0.26
    8    0   25      0.00      0.87
    0    8   25      0.54      0.00
    8    3   25     -0.55      1.07
    8    8   25      2.83      0.34
    9    8   25      0.76     -0.64
    8    9   25     -0.65      0.31
    9    7   25     -0.51      0.87
    7    9   25      0.38      1.48
    9    6   25      2.37     -0.83
    6    9   25     -0.21      1.25
    5    9   25     -0.57      0.09
    4    9   25      0.67     -1.45
    9    4   25      0.28      1.65
    3    9   25      1.18      0.44
    9    2   25     -0.19      1.35
    2    9   25     -0.88      1.59
    1    9   25      1.04      0.25
    0    9   25      0.01     -1.10
    9    0   25      0.00     -0.59
    9    9   25      0.29     -1.03
    9   10   25     -0.23      1.63
    8   10   25     -0.59      0.27
    7   10   25     -0.12     -1.04
   10    6   25     -0.03      0.02
    6   10   25      0.69     -1.70
   10    5   25     -1.44     -0.54
    5   10   25     -1.14     -0.59
    4   10   25      0.26     -0.45
   10    4   25     -0.23     -0.08
    3   10   25      1.36      0.52
   10    3   25      1.55     -0.20
   10    2   25      0.73      0.25
    2   10   25      0.44      0.12
   10    1   25      0.34      1.12
    1   10   25      0.49     -1.19
   10    0   25     -0.01     -0.39
    0   10   25     -0.79     -0.02
    8   11   25      0.47      0.73
    7   11   25     -0.25     -0.44
    6   11   25      1.52      0.01
    5   11   25      0.29      0.68
    4   11   25      1.26      1.52
    3   11   25     -0.28     -0.75
    2   11   25     -1.87     -1.18
    1   11   25      0.49      0.85
    0   11   25     -0.02      0.24
    8   12   25     -0.30      0.34
    7   12   25      1.42      0.53
    6   12   25      0.64      0.63
    5   12   25      1.31      0.42
    4   12   25      0.10     -0.55
    3   12   25     -1.34      0.83
    2   12   25     -0.13      0.42
    1   12   25     -0.01     -1.09
    0   12   25      0.54     -0.01
    8   13   25     -0.10     -1.14
    7   13   25      0.04      0.03
    6   13   25     -1.14      1.32
    5   13   25     -1.40      1.40
    4   13   25     -0.90      0.74
    3   13   25      1.03      1.11
    2   13   25     -1.75      0.14
    1   13   25      0.36     -0.57
    0   13   25     -0.03      0.33
    7   14   25     -0.15      0.08
    6   14   25     -0.38      1.43
    5   14   25     -0.21     -0.06
    4   14   25     -1.13      0.11
    3   14   25      0.23      0.95
    2   14   25      0.21     -0.14
    1   14   25     -0.18      0.16
    0   14   25      1.58     -0.03
    7   15   25      0.08     -0.57
    6   15   25     -0.84      0.31
    5   15   25     -0.64     -1.18
    4   15   25     -1.05     -0.16
    3   15   25     -0.25     -0.58
    2   15   25      0.32     -0.36
    1   15   25     -0.57     -0.47
    0   15   25     -0.03     -0.53
    6   16   25      0.90      0.21
    5   16   25     -0.77      0.51
    4   16   25     -0.07     -0.44
    3   16   25      0.20     -0.24
    2   16   25     -0.78     -0.10
    1   16   25     -0.30     -0.09
    0   16   25     -0.35      0.01
    6   17   25      1.00      0.27
    5   17   25     -0.29     -0.52
    4   17   25      1.14     -0.64
    3   17   25      1.10      0.08
    2   17   25      0.42      0.03
    1   17   25     -0.96      0.10
    0   17   25      0.03     -1.72
    5   18   25      0.08      0.64
    4   18   25      0.82     -1.81
    3   18   25      0.81     -0.39
    2   18   25      0.27     -0.40
    1   18   25      0.67      0.36
    0   18   25     -1.09      0.06
    4   19   25     -0.19     -1.06
    3   19   25     -0.79      0.49
    2   19   25      0.04     -0.29
    1   19   25      0.27      0.20
    0   19   25      0.00      1.05
    3   20   25     -0.16      0.25
    2   20   25     -0.13     -0.18
    1   20   25     -0.72     -0.94
    0   20   25      0.91      0.01
    0    0   26     -0.03      0.00
    1    0   26      0.65     -0.03
    0    1   26     -0.15      1.03
    1    1   26     -0.21      0.24
    2    1   26      0.49     -0.12
    1    2   26      0.69     -0.70
    0    2   26      0.75     -0.20
    2    0   26     -0.16     -0.07
    2    2   26      0.13     -1.51
    3    2   26      0.93      0.24
    2    3   26      1.79      1.22
    1    3   26     -1.14      1.05
    3    1   26      1.09     -0.49
    3    0   26      0.27     -0.03
    3    3   26      0.59      1.07
    3    4   26     -0.46     -1.22
    4    3   26     -0.99     -0.19
    2    4   26      0.26      0.08
    4    2   26     -0.88      0.22
    1    4   26     -0.46      1.31
    4    1   26      0.40     -0.06
    0    4   26     -1.58     -0.15
    4    0   26      1.71     -0.01
    4    4   26     -0.40     -1.79
    4    5   26      0.24     -0.06
    5    4   26     -0.69      0.21
    3    5   26     -0.23     -0.90
    2    5   26     -0.13     -0.79
    5    2   26     -0.84     -1.78
    1    5   26      0.19     -1.06
    5    1   26     -0.28      0.56
    5    0   26      0.68     -0.02
    0    5   26     -0.08      0.77
    5    3   26      0.61      0.42
    5    5   26      0.03     -0.19
    5    6   26      0.50     -0.60
    6    5   26      0.66     -0.36
    6    4   26     -0.78      0.39
    4    6   26      0.07      0.09
    3    6   26     -0.53     -0.36
    6    3   26      1.62     -0.62
    6    2   26      0.47      0.78
    2    6   26     -1.77     -0.37
    1    6   26      0.13      0.63
    6    1   26     -1.41      0.49
    0    6   26     -0.59      0.02
    6    0   26      1.22     -0.04
    6    6   26      0.23     -0.93
    6    7   26     -0.13      1.00
    7    6   26      0.82     -0.38
    5    7   26     -2.25      0.32
    7    5   26     -0.46     -0.72
    4    7   26      0.22     -0.14
    7    4   26     -1.21     -0.38
    3    7   26      0.83     -0.19
    7    3   26      0.72     -0.54
    7    2   26      0.26      0.56
    2    7   26      0.60      0.12
    1    7   26     -0.53      0.46
    7    1   26      0.15      2.10
    0    7   26      0.02      0.03
    7    7   26      0.85      0.37
    7    8   26      0.24      0.56
    8    7   26      0.65     -2.15
    6    8   26     -0.07      1.07
    8    6   26     -0.15     -1.34
    8    5   26      1.18      0.95
    5    8   26      0.15     -0.34
    4    8   26     -0.98     -0.35
    8    4   26     -0.31     -0.58
    3    8   26      0.36      0.35
    8    3   26      1.21      0.76
    8    2   26      0.24      1.27
    2    8   26      1.64      1.22
    1    8   26     -0.54      0.40
    0    8   26      0.78      0.06
    8    1   26     -0.70      0.06
    8    8   26      0.25      1.26
    8    9   26     -0.91      0.96
    9    8   26     -1.08     -0.64
    7    9   26     -1.23     -0.45
    9    7   26      0.92     -0.82
    6    9   26     -0.78     -0.55
    9    6   26      0.59     -0.45
    9    5   26     -0.29     -0.70
    5    9   26      0.38      0.33
    4    9   26      0.01      0.28
    9    4   26     -1.67     -0.30
    3    9   26      0.54      0.51
    2    9   26     -0.02     -1.00
    9    1   26      0.07      0.52
    1    9   26      0.18     -0.56
    9    0   26      0.11      0.02
    0    9   26     -0.04      1.42
    9    2   26      1.64     -0.10
    9    3   26     -0.06     -0.17
    9    9   26      0.17      0.76
    8   10   26      0.82      0.23
    7   10   26     -0.55      0.53
    6   10   26      0.15     -0.26
    5   10   26      1.73      0.30
    4   10   26      0.29     -0.45
    3   10   26     -1.30      1.36
   10    3   26     -0.93      0.56
    2   10   26     -0.52      0.19
   10    2   26     -0.59     -0.93
   10    1   26      0.76     -0.76
    1   10   26      1.08     -0.94
   10    0   26      1.46     -0.01
    0   10   26      2.72      0.02
    8   11   26      0.41     -0.43
    7   11   26      0.73     -0.62
    6   11   26      0.78     -1.16
    5   11   26      0.53     -1.13
    4   11   26     -0.79      0.77
    3   11   26     -0.11      0.64
    2   11   26      0.13     -0.65
    1   11   26     -0.14     -1.10
    0   11   26     -0.02     -1.46
    7   12   26      1.01     -0.83
    6   12   26      0.14      0.83
    5   12   26      0.14      1.97
    4   12   26      0.09      0.68
    3   12   26     -0.40     -0.85
    2   12   26      0.16     -0.46
    1   12   26     -0.78     -0.38
    0   12   26      0.70     -0.02
    7   13   26      0.07      1.00
    6   13   26      1.17      0.79
    5   13   26     -0.90      1.25
    4   13   26      0.36      0.47
    3   13   26     -0.35     -0.77
    2   13   26     -0.60      0.88
    1   13   26      1.41     -1.23
    0   13   26      0.02      0.16
    7   14   26     -1.08      0.23
    6   14   26     -0.61     -0.37
    5   14   26     -1.25      0.47
    4   14   26      0.05      1.12
    3   14   26     -0.81      0.10
    2   14   26     -0.72     -0.21
    1   14   26     -0.39      0.63
    0   14   26      0.69      0.01
    6   15   26     -0.38      0.29
    5   15   26      0.51      0.83
    4   15   26     -0.86      0.03
    3   15   26     -1.10      0.69
    2   15   26      0.26     -0.31
    1   15   26      0.10      0.13
    0   15   26      0.00      0.14
    5   16   26     -0.14     -0.57
    4   16   26     -0.25     -1.22
    3   16   26      0.57     -0.39
    2   16   26     -0.25      0.23
    1   16   26      0.67     -1.23
    0   16   26     -0.62      0.00
    4   17   26     -0.04     -0.51
    3   17   26      0.55     -0.99
    2   17   26     -0.16     -0.35
    1   17   26     -0.42     -1.27
    0   17   26     -0.01      1.84
    4   18   26     -0.38      1.58
    3   18   26      0.10      0.51
    2   18   26     -0.37      0.23
    1   18   26      0.70     -0.53
    0   18   26      0.47      0.02
    2   19   26     -0.55     -0.40
    1   19   26     -0.50     -0.09
    0   19   26     -0.02     -1.52
    0    1   27      0.08      0.95
    1    0   27     -0.40      1.12
    1    1   27     -0.54      0.00
    2    1   27      0.34      0.25
    1    2   27      1.32      0.07
    0    2   27     -2.79     -0.36
    2    0   27      0.02      0.40
    2    2   27      1.08      0.94
    2    3   27      1.91     -0.65
    3    2   27     -0.09     -0.70
    1    3   27      0.51      1.01
    3    1   27      0.10     -1.12
    3    0   27      0.01     -0.36
    0    3   27      0.03     -0.08
    3    3   27     -0.13     -0.48
    3    4   27      0.27      0.23
    4    3   27     -2.07     -0.89
    2    4   27     -0.25     -0.27
    4    2   27      1.25      0.70
    1    4   27      1.23     -0.68
    4    0   27     -0.02     -1.91
    0    4   27      0.46      0.22
    4    1   27      0.57      0.12
    4    4   27      1.41     -0.14
    4    5   27     -0.02     -0.54
    5    4   27      0.55     -0.79
    3    5   27     -0.18      0.91
    5    3   27     -0.01     -1.00
    5    2   27     -0.06     -0.21
    2    5   27     -0.84      0.14
    1    5   27     -1.31     -0.24
    5    1   27     -0.45      0.56
    5    0   27      0.02      1.27
    0    5   27     -0.07      1.82
    5    5   27      0.18     -0.60
    5    6   27     -0.41      0.93
    6    5   27      0.11     -0.48
    4    6   27     -0.19     -1.38
    6    4   27      0.34     -0.32
    3    6   27      0.18     -1.36
    6    3   27     -0.37     -0.87
    2    6   27      0.20     -0.59
    6    2   27      0.20      0.42
    6    1   27     -1.13     -0.48
    1    6   27      0.56      1.01
    0    6   27     -2.12     -0.02
    6    6   27     -0.69      0.42
    7    6   27      0.74     -0.45
    6    7   27      0.39     -0.21
    5    7   27     -0.46     -0.33
    7    5   27      0.20     -1.36
    7    4   27      1.36      0.50
    4    7   27     -0.14     -0.39
    3    7   27      0.30     -0.61
    7    3   27     -0.07      1.61
    2    7   27      0.89      0.33
    1    7   27      0.27      0.67
    7    1   27      1.71      0.66
    7    0   27      0.00      1.54
    0    7   27      0.06      0.99
    7    2   27     -0.58     -0.16
    7    7   27     -0.09     -0.32
    7    8   27     -0.88      0.09
    8    7   27      1.09      0.14
    8    6   27     -0.53     -0.81
    6    8   27     -0.99     -0.38
    5    8   27     -0.34     -1.11
    8    5   27     -0.45      0.30
    4    8   27      0.81      1.11
    3    8   27      0.04     -0.17
    8    3   27     -0.88      0.05
    2    8   27     -0.65      0.49
    8    2   27     -0.36     -0.48
    1    8   27      0.26      0.60
    8    1   27      0.64     -0.40
    8    0   27      0.00      0.54
    0    8   27      0.06      0.01
    8    4   27      0.10     -0.65
    8    8   27     -0.02     -0.17
    8    9   27     -1.17      1.10
    7    9   27      0.87      1.05
    6    9   27     -0.23      0.80
    5    9   27     -0.95     -0.64
    9    5   27     -0.29     -0.33
    4    9   27      1.51     -0.03
    3    9   27      0.35      1.42
    9    3   27     -1.61      1.46
    2    9   27     -1.43      0.90
    9    2   27      0.18     -0.17
    1    9   27      1.25     -0.05
    9    0   27      0.01      0.91
    0    9   27     -0.03     -0.30
    9    1   27      0.34     -0.49
    7   10   27     -0.40     -0.54
    6   10   27     -0.04     -0.28
    5   10   27     -0.72     -0.17
    4   10   27      0.31      0.65
    3   10   27      0.66      0.55
    2   10   27      0.18     -0.17
    1   10   27     -0.21      0.10
    0   10   27     -0.39     -0.03
    7   11   27     -0.07     -0.43
    6   11   27      1.52      0.61
    5   11   27      0.36      0.10
    4   11   27     -0.08      0.53
    3   11   27     -1.48     -0.68
    2   11   27      0.58     -0.86
    1   11   27      1.39      1.47
    0   11   27      0.00     -0.65
    7   12   27      1.51     -0.41
    6   12   27      0.16      0.96
    5   12   27      0.19     -0.27
    4   12   27     -1.00     -0.93
    3   12   27      0.06      1.23
    2   12   27      1.33     -1.81
    1   12   27      0.01     -1.41
    0   12   27      0.49     -0.03
    6   13   27     -1.37      0.33
    5   13   27     -0.28      0.34
    4   13   27      0.43     -0.19
    3   13   27      0.62      0.29
    2   13   27     -0.88      0.51
    1   13   27      0.44     -0.73
    0   13   27     -0.01      0.08
    6   14   27     -0.35      0.76
    5   14   27     -0.06      0.11
    4   14   27     -0.23      0.72
    3   14   27     -0.42      0.42
    2   14   27     -0.37     -1.06
    1   14   27      0.39      0.94
    0   14   27      0.38     -0.04
    5   15   27     -1.02     -0.25
    4   15   27     -0.38      0.15
    3   15   27     -0.14     -0.36
    2   15   27     -0.36     -0.34
    1   15   27     -0.60      0.18
    0   15   27     -0.01      0.23
    4   16   27     -0.11     -0.73
    3   16   27     -0.15     -0.03
    2   16   27     -0.12      0.62
    1   16   27     -0.22     -0.08
    0   16   27      1.50      0.00
    3   17   27      0.05      0.46
    2   17   27      0.11     -0.63
    1   17   27     -0.36     -0.08
    0   17   27      0.00     -0.99
    1   18   27     -0.17      0.02
    0   18   27     -2.10      0.04
    0    0   28      0.00     -0.02
    1    0   28     -0.59     -0.10
    0    1   28     -0.30      0.97
    1    1   28     -0.35      0.59
    2    1   28     -0.54     -0.28
    1    2   28      0.36      0.19
    0    2   28     -0.84     -0.07
    2    0   28     -0.05      0.00
    2    2   28     -0.66     -0.68
    3    2   28      0.91     -0.05
    2    3   28      0.29      0.82
    1    3   28     -0.64     -0.50
    3    1   28     -0.21      0.02
    0    3   28      0.82     -3.12
    3    0   28      0.41     -0.13
    3    3   28      1.48      0.12
    3    4   28     -0.12     -0.21
    4    3   28      0.15     -0.47
    2    4   28     -0.20      1.22
    4    2   28     -0.82      0.46
    4    1   28      0.54     -0.01
    1    4   28     -0.79     -0.57
    4    0   28      0.00     -0.01
    0    4   28      1.20     -0.02
    4    4   28      0.64     -0.79
    4    5   28     -0.67     -0.02
    5    4   28      0.31     -1.29
    3    5   28     -0.41     -1.04
    5    3   28      1.31     -0.11
    2    5   28      1.01     -0.38
    5    2   28     -1.41     -0.31
    5    1   28      0.21      0.66
    1    5   28     -0.46     -0.17
    5    0   28     -0.02      0.01
    0    5   28     -0.18      0.88
    5    5   28      0.12     -0.27
    6    5   28      1.10      0.09
    5    6   28      0.14     -0.68
    4    6   28     -0.40      0.12
    6    4   28      0.77      0.75
    3    6   28     -0.81      0.05
    6    3   28     -0.22     -0.72
    2    6   28      0.03     -0.46
    6    2   28      0.08      0.57
    1    6   28      0.32      1.02
    6    1   28     -1.91      1.09
    6    0   28      0.48     -0.03
    0    6   28     -0.87     -0.01
    6    6   28      0.31     -0.61
    6    7   28     -1.53     -0.68
    7    6   28      0.65      0.90
    5    7   28     -0.76      0.26
    7    5   28      0.14     -0.42
    4    7   28      0.29     -0.48
    7    4   28     -0.64     -0.01
    3    7   28      0.44      0.36
    7    3   28      0.89     -0.18
    7    2   28     -0.42      0.27
    2    7   28      0.06     -0.32
    1    7   28     -1.78     -0.04
    7    1   28     -0.49      0.74
    7    0   28     -0.93      0.03
    0    7   28     -0.06      0.22
    7    7   28     -0.54     -0.39
    7    8   28     -0.02      0.06
    6    8   28     -0.44      0.89
    5    8   28     -0.01     -0.55
    8    5   28      0.75      0.54
    4    8   28     -0.17     -1.15
    8    4   28     -0.86      0.40
    3    8   28      0.27      0.95
    8    3   28      0.92     -0.79
    2    8   28      1.08      1.21
    8    2   28     -0.45      1.05
    1    8   28     -0.49     -0.23
    0    8   28      0.30      0.06
    8    0   28      1.25     -0.03
    8    1   28     -0.52      1.11
    8    6   28      0.27     -0.23
    7    9   28     -0.77     -0.72
    6    9   28     -0.07     -0.01
    5    9   28      0.65      0.75
    4    9   28      0.43     -0.34
    3    9   28      0.55      0.02
    2    9   28     -0.58      0.20
    1    9   28      0.52      0.06
    0    9   28      0.01      2.92
    6   10   28      0.53     -0.89
    5   10   28      1.33      0.96
    4   10   28     -1.05      0.79
    3   10   28     -1.01     -0.09
    2   10   28      0.23     -0.11
    1   10   28      1.43      0.56
    0   10   28      1.18     -0.01
    6   11   28      0.37     -0.04
    5   11   28     -1.60      0.10
    4   11   28     -0.32      0.77
    3   11   28     -0.63     -0.44
    2   11   28     -0.04     -0.64
    1   11   28      0.26      0.38
    0   11   28     -0.03     -0.81
    6   12   28     -0.38      0.98
    5   12   28     -0.51      0.04
    4   12   28      0.01     -0.67
    3   12   28      0.81     -0.37
    2   12   28      0.22      0.68
    1   12   28      0.40     -0.92
    0   12   28      0.83     -0.02
    5   13   28     -0.47      0.35
    4   13   28     -0.27      0.32
    3   13   28      0.07     -0.47
    2   13   28      1.04      0.02
    1   13   28      1.39     -1.69
    0   13   28      0.03      0.64
    4   14   28      0.48      0.08
    3   14   28     -0.82     -0.28
    2   14   28     -0.09     -0.68
    1   14   28      0.38      0.77
    0   14   28     -0.51     -0.01
    3   15   28     -0.04     -0.24
    2   15   28      0.22     -0.10
    1   15   28      0.00      0.13
    0   15   28      0.00      0.24
    2   16   28     -0.35     -0.15
    1   16   28      0.30     -0.69
    0   16   28     -0.50     -0.01
    0    1   29     -0.14      2.40
    1    0   29     -0.41     -0.27
    1    1   29     -1.00      0.83
    1    2   29     -1.48     -0.86
    2    1   29     -0.31      0.91
    2    0   29     -0.08      0.54
    0    2   29     -2.10     -0.34
    2    2   29      0.77      1.38
    2    3   29      0.55     -0.35
    3    2   29      0.03      0.15
    3    1   29      0.08      0.16
    1    3   29      0.12      0.85
    0    3   29      0.05     -2.84
    3    0   29     -0.02      0.49
    3    3   29      0.35      0.04
    3    4   29     -0.11     -0.09
    4    2   29      1.04     -0.30
    2    4   29     -0.22     -0.94
    1    4   29      1.56     -0.08
    4    0   29     -0.03     -1.03
    0    4   29     -1.08      0.28
    4    1   29      1.26      0.95
    4    3   29     -0.84     -0.32
    4    4   29      1.17     -0.35
    5    4   29      0.86      0.44
    4    5   29      0.54      0.30
    3    5   29      0.50      0.39
    5    3   29     -0.15     -0.30
    2    5   29     -0.85     -0.27
    5    2   29     -0.57     -0.13
    1    5   29      0.58      0.40
    5    1   29     -0.40      0.58
    5    0   29      0.02     -0.38
    0    5   29      0.09      1.30
    5    5   29      0.94      0.04
    5    6   29      0.31     -0.56
    6    5   29      0.31     -0.28
    4    6   29     -0.08     -1.16
    6    4   29      0.87     -0.37
    6    3   29     -0.81     -1.04
    3    6   29     -0.32     -1.01
    2    6   29     -1.17      0.75
    6    2   29      0.04     -0.29
    6    1   29     -1.15      0.70
    1    6   29      0.22      0.34
    6    0   29      0.03      0.99
    0    6   29     -2.13     -0.02
    6    6   29     -0.05      0.31
    6    7   29      0.51     -0.42
    5    7   29     -1.19     -0.74
    4    7   29     -1.05      0.48
    3    7   29      0.77     -0.49
    7    3   29     -0.82      1.03
    2    7   29      0.57      0.47
    7    2   29     -0.98     -0.25
    7    1   29      0.28     -0.33
    1    7   29     -1.36      0.84
    7    0   29      0.00      2.35
    0    7   29     -0.02     -1.08
    7    4   29      0.74     -0.07
    7    5   29      0.86      0.33
    7    6   29      0.16      0.09
    6    8   29     -0.28     -0.63
    5    8   29     -0.25     -1.07
    4    8   29      0.86      1.32
    3    8   29     -0.45      0.40
    2    8   29      0.02     -0.01
    1    8   29     -0.39      0.39
    0    8   29      0.11      0.00
    6    9   29     -0.36     -0.34
    5    9   29      1.15     -0.07
    4    9   29      0.64      0.50
    3    9   29     -0.41      0.73
    2    9   29     -0.87      0.06
    1    9   29      1.20     -0.40
    0    9   29     -0.02      0.55
    5   10   29      0.33      0.43
    4   10   29     -0.24      0.49
    3   10   29     -0.32      0.16
    2   10   29      0.42      0.07
    1   10   29     -1.09      1.57
    0   10   29     -0.63     -0.01
    5   11   29     -0.61     -0.53
    4   11   29      0.45     -0.38
    3   11   29     -0.76      0.19
    2   11   29      1.00      0.58
    1   11   29      0.12      1.09
    0   11   29      0.03      0.27
    4   12   29     -1.14      0.19
    3   12   29      0.86     -0.04
    2   12   29      0.02     -0.94
    1   12   29      0.40     -0.56
    0   12   29      1.94     -0.01
    3   13   29     -0.24      0.57
    2   13   29      0.63     -0.51
    1   13   29      0.43     -0.16
    0   13   29      0.00     -1.08
    2   14   29      0.26     -0.85
    1   14   29      0.72      0.45
    0   14   29     -0.02     -0.05
    0    0   30     -0.01      0.01
    1    0   30      0.97     -0.04
    1    1   30     -0.26      0.42
    2    1   30     -0.68     -0.47
    1    2   30     -0.77      0.01
    2    0   30     -0.36      0.07
    0    2   30     -0.29      0.07
    2    2   30     -0.56     -0.23
    3    2   30      0.68      0.42
    2    3   30     -0.10      0.05
    3    1   30      0.38     -0.12
    1    3   30     -0.52     -0.95
    0    3   30      0.36      0.32
    3    0   30      1.01     -0.03
    3    3   30     -0.01      0.74
    3    4   30     -0.06      0.13
    2    4   30      0.27      0.33
    4    2   30     -0.89      0.99
    4    1   30      0.29     -1.15
    1    4   30      0.05     -1.79
    0    4   30      2.77      0.13
    4    0   30      0.54      0.03
    4    3   30      0.00      0.94
    4    4   30      1.09     -0.67
    4    5   30     -0.38     -0.94
    5    4   30      0.13     -0.69
    3    5   30      0.18     -0.83
    5    3   30      1.35      0.09
    5    2   30     -1.43      0.23
    2    5   30      0.77     -0.50
    5    1   30      0.37     -0.57
    1    5   30     -0.91     -0.48
    0    5   30     -0.08      0.38
    5    0   30      0.18     -0.01
    5    5   30      0.42     -0.11
    5    6   30      0.28      0.78
    4    6   30     -0.28     -0.47
    6    3   30     -0.30      0.32
    3    6   30     -0.57     -0.31
    6    2   30     -0.81     -0.68
    2    6   30      0.49      0.46
    1    6   30     -0.11      1.07
    6    1   30     -0.88      0.89
    6    0   30      0.54      0.00
    0    6   30     -2.28     -0.02
    6    4   30      0.69      0.83
    6    5   30      0.38     -0.18
    5    7   30      0.48      0.12
    4    7   30      0.93     -0.33
    3    7   30     -0.21      0.26
    2    7   30     -0.61      0.45
    1    7   30     -0.90      0.73
    0    7   30      0.00     -0.59
    5    8   30     -0.27     -1.56
    4    8   30     -0.07     -0.32
    3    8   30      0.10      1.08
    2    8   30     -0.17      0.09
    1    8   30      0.31     -1.68
    0    8   30     -0.31      0.02
    4    9   30     -0.70     -0.13
    3    9   30      0.76     -0.42
    2    9   30     -0.81      0.45
    1    9   30      0.10      0.49
    0    9   30     -0.02      1.62
    4   10   30     -0.03      0.04
    3   10   30      0.03      0.09
    2   10   30      0.69      0.30
    1   10   30     -0.07      1.88
    0   10   30      0.44     -0.01
    3   11   30     -0.47     -0.08
    2   11   30     -0.45      0.55
    1   11   30      0.53     -0.13
    0   11   30     -0.01      1.04
    2   12   30     -0.30      1.12
    1   12   30      0.24     -0.52
    0   12   30     -0.76      0.01
    0    1   31     -0.07      0.14
    1    0   31     -0.03     -1.86
    1    1   31     -0.15      0.61
    1    2   31     -0.78     -0.19
    2    1   31     -0.60      0.53
    0    2   31     -0.41     -0.07
    2    0   31     -0.09     -0.56
    2    2   31     -0.54      0.70
    2    3   31     -0.28     -0.10
    3    2   31     -0.18      1.05
    3    1   31     -0.76     -0.35
    1    3   31      1.03     -0.34
    0    3   31     -0.02     -3.39
    3    0   31     -0.03     -0.34
    3    3   31      0.15      0.07
    3    4   31      0.22     -0.38
    4    3   31     -0.50      0.33
    2    4   31     -0.09     -1.04
    4    2   31      0.81      0.92
    4    1   31      1.50     -0.09
    1    4   31      0.27      0.20
    4    0   31      0.00     -1.03
    0    4   31     -0.95      0.08
    4    4   31      0.07      0.37
    4    5   31      0.13      0.71
    3    5   31      0.44     -0.34
    2    5   31     -0.14     -0.91
    5    2   31      0.42      0.49
    1    5   31      0.25      1.38
    5    1   31      0.38     -0.21
    0    5   31      0.01      0.67
    5    0   31      0.02     -1.10
    5    3   31     -0.62     -0.43
    4    6   31      0.27     -0.89
    3    6   31     -0.19      0.10
    2    6   31      0.34      0.08
    1    6   31     -0.79     -0.21
    0    6   31     -0.91      0.05
    3    7   31      0.11     -0.64
    2    7   31     -0.40     -0.06
    1    7   31     -1.17     -0.45
    0    7   31     -0.01     -1.56
    3    8   31     -0.80     -0.05
    2    8   31     -0.48      0.34
    1    8   31     -0.21     -0.04
    0    8   31     -0.07      0.00
    2    9   31      0.40      0.57
    1    9   31      0.33     -0.24
    0    9   31     -0.01     -0.83
    0   10   31      0.67      0.02
    1   10   31     -0.91      0.88
    0    0   32     -0.52      0.00
    0    1   32      0.00     -0.36
    1    0   32      0.53     -0.01
    1    1   32     -0.30     -0.12
    1    2   32     -0.75     -1.01
    2    1   32     -0.34     -0.45
    0    2   32      0.94      0.10
    2    0   32     -0.26     -0.07
    2    2   32      0.27     -0.73
    2    3   32      0.19      0.21
    3    2   32      0.47     -0.33
    1    3   32      0.05      0.09
    3    1   32     -0.28      0.54
    0    3   32     -0.05      1.28
    3    0   32      0.63      0.03
    2    4   32      0.00      0.53
    1    4   32      1.45     -0.92
    0    4   32      0.28      0.04
    2    5   32     -0.28     -0.08
    1    5   32     -0.04     -0.03
    0    5   32     -0.03     -0.40
    1    6   32     -1.06     -0.10
    0    6   32     -0.91      0.00
    6    0    0     -1.59      0.00
    8    0    0     -2.26      0.00
   10    0    0     -1.29      0.01
   12    0    0     -1.34      0.00
   14    0    0     -1.21      0.00
   16    0    0      0.32      0.00
    3    1    0     -0.06     23.69
    6    1    0     -0.75     -0.07
    7    1    0     -0.09      2.40
    8    1    0     -1.36     -0.04
    9    1    0     -0.03     -3.39
   10    1    0      0.61      0.01
   11    1    0     -0.01     -0.10
   12    1    0      1.44     -0.01
   13    1    0     -0.03      0.33
   14    1    0     -0.09      0.01
   15    1    0     -0.02      0.00
   16    1    0     -0.20     -0.02
    0    2    0    -62.79     -0.07
    1    2    0      0.95     42.87
    4    2    0      2.90     -0.01
    7    2    0     -0.04      1.09
    8    2    0      4.15     -0.03
    9    2    0     -0.03      1.98
   10    2    0      0.35      0.01
   11    2    0     -0.02      0.10
   12    2    0     -0.95      0.02
   13    2    0     -0.05      0.28
   14    2    0      1.09     -0.01
   15    2    0     -0.01     -0.23
   16    2    0     -0.76      0.02
    5    3    0     -0.02      2.66
    6    3    0     -0.92      0.01
    7    3    0      0.08     -0.67
    8    3    0     -0.90      0.03
    9    3    0      0.05      2.10
   10    3    0      0.74     -0.01
   12    3    0      1.03      0.01
   13    3    0      0.03     -0.31
   14    3    0     -0.42      0.01
   15    3    0      0.02      0.56
    1    4    0     -1.13    -29.94
    3    4    0      0.07     -3.92
    6    4    0      4.70     -0.01
    7    4    0      0.04      1.89
    8    4    0     -4.87      0.00
    9    4    0     -0.01      1.48
   12    4    0      1.19     -0.02
   13    4    0      0.01     -1.18
   14    4    0     -0.39     -0.01
   15    4    0     -0.01     -0.29
    1    5    0     -0.03     13.74
    2    5    0     -6.76     -0.46
    6    5    0      1.79     -0.02
    7    5    0     -0.01     -2.10
   13    5    0     -0.01      0.25
   14    5    0      0.09      0.01
   13    6    0      0.02      0.34
   15    6    0      0.00      0.96
   16    6    0     -1.50      0.02
    1    7    0     -0.57      0.11
    2    7    0     -6.50      0.32
   16    7    0      0.07      0.01
    0    8    0    -18.13      0.34
    1    8    0      0.91     -2.75
    5    8    0      0.04      0.99
   16    8    0      0.16     -0.02
    1    9    0      0.00     -1.89
   15    9    0      0.00     -0.39
   16    9    0     -0.03     -0.01
    0   10    0      4.14      0.12
    5   10    0      0.03      0.89
   13   10    0      0.03     -1.38
   14   10    0     -0.82     -0.01
   16   10    0      1.08      0.00
    4   11    0      4.39      0.11
   16   11    0     -0.79     -0.01
    4   12    0      1.93     -0.04
    5   12    0      0.01      0.01
   16   12    0      0.13      0.02
   16   13    0     -0.22      0.00
   15   14    0      0.00      0.84
   16   14    0     -0.34      0.00
    6   15    0      1.91     -0.03
   14   15    0     -0.73     -0.01
   15   15    0     -0.01     -0.73
   16   15    0      0.41     -0.02
    0   16    0     -0.13      0.05
    6   16    0     -0.70     -0.02
   14   16    0     -0.46      0.03
   15   16    0      0.00     -1.07
   16   16    0     -0.02      0.02
   13   17    0     -0.02      0.35
   14   17    0     -0.43      0.00
   15   17    0      0.00      0.25
   16   17    0      0.26      0.00
    0   18    0     -3.91      0.02
    1   18    0     -0.01     -0.09
   10   18    0     -4.14      0.02
   11   18    0      0.02     -2.86
   12   18    0     -1.36     -0.03
   13   18    0     -0.05     -1.24
   14   18    0      0.12      0.01
   15   18    0     -0.01      0.47
    1   19    0      0.03     -1.16
   11   19    0      0.00      2.34
   12   19    0     -0.68      0.03
   13   19    0      0.00      0.51
   14   19    0      1.05      0.00
   15   19    0      0.01     -0.72
    0   20    0      2.79     -0.08
    1   20    0      0.02     -1.43
   13   20    0      0.02      0.12
   14   20    0     -0.26      0.00
   15   20    0     -0.01      0.02
   13   21    0      0.03      1.58
   14   21    0     -0.69      0.02
   13   22    0      0.01      0.40
   14   22    0      0.44     -0.02
   12   23    0      0.70     -0.03
   13   23    0      0.00      0.73
   11   24    0      0.02     -2.31
   12   24    0     -1.33      0.01
   13   24    0      0.02      0.59
   11   25    0     -0.01      0.47
   12   25    0      0.34      0.03
   10   26    0     -0.33      0.01
   11   26    0      0.00      1.19
   12   26    0      0.50     -0.01
   10   27    0      0.62      0.00
   11   27    0     -0.01     -0.35
    9   28    0      0.00      0.99
   10   28    0     -0.25      0.01
   11   28    0      0.00     -0.26
    8   29    0     -0.24      0.03
    9   29    0      0.02      1.33
   10   29    0     -0.18     -0.01
    7   30    0      0.02      0.36
    8   30    0      0.54      0.00
    9   30    0      0.00     -0.75
    5   31    0     -0.01     -0.10
    6   31    0     -0.36      0.00
    7   31    0      0.03      0.22
    8   31    0     -0.28      0.04
    0   32    0      1.52     -0.05
    1   32    0      0.03     -1.43
    3   32    0      0.00     -0.21
    4   32    0     -0.33     -0.02
    5   32    0     -0.01      0.36
    6   32    0      0.03     -0.01
    7   32    0      0.01      0.24
    1    0    1      0.02      8.47
    6    0    1      0.00      3.63
    7    0    1      0.01     -0.80
    9    0    1     -0.01      0.59
   10    0    1      0.01     -2.08
   11    0    1      0.00     -0.39
   12    0    1      0.00      0.55
   13    0    1     -0.01      0.20
   14    0    1      0.00     -0.70
   15    0    1      0.00     -0.36
   16    0    1      0.00      0.19
    0    1    1      0.20     97.91
    2    1    1      9.04    -14.42
    3    1    1    -11.42     12.78
    6    1    1     -1.01      0.28
    7    1    1     -0.47      0.48
    8    1    1     -1.04      1.31
    9    1    1      0.82     -1.56
   11    1    1     -0.25     -0.36
   12    1    1     -0.63      0.55
   13    1    1     -0.30      0.14
   14    1    1      0.44      0.55
   15    1    1     -0.72     -0.26
   16    1    1     -0.07      0.48
    0    2    1     23.51     -0.08
    4    2    1     -4.34     -3.39
   10    2    1      0.10      0.21
   11    2    1      0.47      0.27
   12    2    1     -0.55     -0.57
   13    2    1      0.10      0.08
   14    2    1     -0.31     -0.36
   15    2    1      0.14     -0.03
   16    2    1     -0.12      0.40
    0    3    1      0.77    -10.84
    6    3    1     -2.45      2.89
    9    3    1      0.37     -0.06
   10    3    1      0.56     -0.18
   11    3    1     -0.15      0.06
   12    3    1      0.66     -0.04
   13    3    1      0.89     -0.47
   14    3    1      0.29     -0.01
   15    3    1      0.16      0.57
    0    4    1    -16.23     -0.43
    1    4    1      2.56     -6.11
    2    4    1     -5.88      0.19
    5    4    1      0.26      0.42
    7    4    1     -0.67      0.14
    8    4    1     -1.31      2.77
    9    4    1      0.39     -1.19
   11    4    1     -0.44     -0.70
   12    4    1     -0.26      0.16
   13    4    1     -0.57      0.17
   14    4    1      0.42     -1.06
   15    4    1      0.11     -0.42
   16    4    1      0.21     -0.54
    1    5    1      7.23    -14.28
    7    5    1     -0.73      1.96
   13    5    1     -0.44      0.20
   14    5    1     -0.03      0.08
   15    5    1      0.28     -0.13
   16    5    1     -0.02      1.07
    0    6    1      3.22     -0.47
    1    6    1     -3.35     -6.30
    2    6    1      0.17     14.22
   13    6    1      0.59      0.34
   15    6    1      0.14      0.08
   16    6    1      0.26     -0.52
   13    7    1      1.55     -0.07
   14    7    1      0.42      1.34
   15    7    1     -0.48      0.75
    1    8    1     -2.70      1.40
   14    8    1     -0.86      1.03
   16    8    1     -0.19     -0.48
    0    9    1      0.15     -1.27
    1    9    1     -1.04     -0.46
   14    9    1     -0.73      0.73
   15    9    1      1.28      0.42
   16    9    1      0.21      0.03
   16   10    1      0.10      0.57
    4   11    1     -0.45     -4.51
   16   11    1     -0.18     -0.65
    4   12    1     -0.81      1.60
    5   12    1      1.34      1.44
   16   12    1      0.16     -0.05
   16   13    1     -0.11      0.80
    6   14    1     -0.77      2.13
    7   14    1      1.37     -0.87
   15   14    1      0.07      0.53
   16   14    1     -0.20     -0.51
    5   15    1      0.13     -0.26
    6   15    1      1.23      0.66
   15   15    1     -0.47     -0.04
   16   15    1      0.12      0.06
    4   16    1      1.64     -0.50
    6   16    1      0.41      0.68
   14   16    1      0.01     -0.27
   15   16    1     -0.37     -0.15
   16   16    1      0.01     -0.21
   13   17    1     -0.04     -0.06
   14   17    1     -0.22     -0.38
   15   17    1     -0.16      0.23
   16   17    1      0.31     -0.34
    0   18    1     -5.58      0.00
   11   18    1      0.01     -0.51
   12   18    1      0.16      1.95
   13   18    1      1.12      0.59
   14   18    1     -0.31     -0.06
   15   18    1      0.27     -0.09
    0   19    1     -0.03      0.24
    1   19    1     -0.35     -0.84
   11   19    1     -1.93      0.03
   12   19    1      0.15     -2.15
   13   19    1     -0.68     -0.83
   14   19    1     -0.02      0.77
   15   19    1      0.22      0.26
    0   20    1      0.47      0.00
    1   20    1      0.34     -0.65
   13   20    1     -0.95     -0.80
   14   20    1     -0.33      0.00
   15   20    1      0.20      0.10
   13   21    1     -0.20     -0.44
   14   21    1     -0.07      0.08
   13   22    1     -0.59     -0.06
   14   22    1     -0.37      0.78
   12   23    1     -0.76      0.31
   13   23    1      0.77      0.90
   11   24    1      0.36      0.05
   12   24    1     -0.19     -0.21
   13   24    1      0.75      0.13
   11   25    1      0.88      0.53
   12   25    1      0.19      0.06
   10   26    1      0.84     -0.02
   11   26    1      0.56     -0.33
   12   26    1     -0.36     -0.14
   10   27    1      0.76     -0.18
   11   27    1      0.29     -0.44
    9   28    1      0.30      0.33
   10   28    1     -0.20     -0.38
   11   28    1     -0.39      0.15
    8   29    1      0.70      0.15
    9   29    1     -0.52      0.38
   10   29    1     -0.07      0.27
    7   30    1     -0.51     -0.23
    8   30    1      0.21     -0.01
    9   30    1     -0.33      0.03
    5   31    1     -0.19      0.20
    6   31    1     -0.07      0.85
    7   31    1      0.00     -0.16
    8   31    1     -0.21      0.26
    0   32    1     -1.51      0.01
    1   32    1      0.21      0.11
    3   32    1     -0.46     -0.08
    4   32    1      0.17     -0.25
    5   32    1     -0.39      0.58
    6   32    1     -0.52     -0.30
    7   32    1     -0.01      0.09
    2    0    2      5.27     -0.01
    4    0    2     -9.63      0.00
    5    0    2      1.39      0.00
    6    0    2     -2.77      0.01
    7    0    2     -1.60      0.00
    9    0    2      0.67      0.00
   10    0    2     -0.82      0.00
   11    0    2     -0.79      0.00
   12    0    2      0.19     -0.01
   13    0    2     -0.60      0.00
   14    0    2     -0.35      0.01
   15    0    2     -0.42     -0.01
   16    0    2      0.18      0.01
    4    1    2      5.24     -8.80
    6    1    2     -0.85     -0.63
    7    1    2     -0.32      1.55
    8    1    2     -2.09      1.28
    9    1    2     -1.53     -0.88
   10    1    2     -0.36      0.11
   11    1    2      0.62      0.52
   12    1    2      1.08     -0.91
   13    1    2     -0.49      0.22
   14    1    2     -0.11     -0.11
   15    1    2     -0.12     -0.39
   16    1    2     -0.12     -0.13
    0    2    2    -28.45      0.11
    9    2    2      1.73      1.25
   10    2    2      0.37     -0.67
   11    2    2      0.55      0.77
   12    2    2     -0.39      0.58
   13    2    2      0.19      0.63
   14    2    2      0.45     -0.03
   15    2    2      0.23      0.17
    0    3    2      0.38     -1.79
    1    3    2      4.14     -6.79
    6    3    2     -1.66      3.58
    8    3    2      0.65      0.27
    9    3    2     -1.02     -0.16
   10    3    2      1.01     -0.32
   12    3    2     -0.40     -0.05
   13    3    2      0.63     -0.82
   14    3    2      0.43      0.14
   15    3    2      0.20      0.17
   16    3    2     -0.48      0.14
    0    4    2    -11.77      0.99
    1    4    2      4.59     -9.61
    8    4    2     -4.75     -1.38
    9    4    2     -2.34      1.26
   12    4    2      0.28      0.41
   13    4    2     -0.58     -0.32
   14    4    2     -0.15     -0.34
    0    5    2     -0.02    -11.56
   13    5    2      0.43     -0.12
   14    5    2      0.53     -0.24
   15    5    2      0.29     -0.97
   16    5    2      0.08     -0.09
    0    6    2     -2.45     -1.07
   13    6    2      0.03      0.03
   14    6    2      0.07     -0.64
   15    6    2      0.75      0.11
    0    7    2     -0.34     -1.95
    1    7    2      7.33     -5.39
   14    7    2     -0.30      0.80
   15    7    2     -0.32      0.23
   16    7    2      0.20      0.14
   16    8    2      0.10     -0.09
   15    9    2     -1.11     -0.11
   16    9    2     -0.19      0.70
   16   10    2      0.21     -0.08
    3   11    2     -0.33      1.54
   16   11    2     -0.25     -0.18
    5   12    2      1.61      0.12
   16   12    2      0.41     -0.51
    6   13    2      0.56      1.13
   16   13    2      0.56     -0.05
    7   14    2     -0.28      1.57
   15   14    2      0.49      1.20
   16   14    2      0.22      0.06
    5   15    2      0.06      1.16
   15   15    2      0.25     -0.09
   16   15    2     -0.22      0.19
   14   16    2     -0.16      0.16
   15   16    2      0.48     -0.39
   16   16    2     -0.02     -0.11
   13   17    2      0.55      0.01
   14   17    2     -0.36      0.11
   15   17    2     -0.16     -0.02
   16   17    2      0.39      0.12
   11   18    2      0.08     -0.38
   12   18    2      0.10     -0.92
   13   18    2     -0.84     -0.84
   14   18    2      0.00      0.23
   15   18    2     -0.12      0.27
    0   19    2     -0.03      1.00
   11   19    2     -1.31      1.70
   12   19    2     -0.18     -2.40
   14   19    2      0.91      0.38
   15   19    2      0.20     -0.56
    0   20    2     -1.21     -0.08
    1   20    2     -0.06     -0.74
   13   20    2      0.32      0.50
   14   20    2     -0.17     -0.52
   15   20    2      0.11      0.46
   13   21    2     -0.47      0.29
   14   21    2     -0.66     -0.35
   13   22    2     -1.45      0.24
   14   22    2      0.22     -0.01
   12   23    2      0.30      0.37
   13   23    2      0.13     -0.15
   11   24    2     -0.36     -0.13
   12   24    2     -0.59     -0.39
   13   24    2     -0.59      0.21
   11   25    2     -0.13      0.25
   12   25    2     -0.11     -0.20
   10   26    2      0.04     -0.31
   11   26    2     -0.18      0.44
   12   26    2     -0.31      0.03
   10   27    2     -0.38      0.13
   11   27    2      0.32     -0.29
    9   28    2     -0.06      0.11
   10   28    2      0.20     -0.07
   11   28    2      0.25     -0.17
    8   29    2      0.21     -0.75
    9   29    2     -0.86      0.33
   10   29    2      0.41      0.30
    7   30    2      0.05      0.33
    8   30    2      0.48      0.29
    9   30    2     -0.36     -0.04
    5   31    2      0.18     -0.12
    6   31    2     -0.22     -0.03
    7   31    2      0.27      0.14
    8   31    2      0.03      0.02
    0   32    2      0.41     -0.04
    1   32    2     -0.40     -1.02
    3   32    2     -0.38     -0.48
    4   32    2      0.16      0.47
    5   32    2      0.34      0.04
    6   32    2      0.38      0.45
    7   32    2     -0.19      0.45
    1    0    3      0.04     33.59
    2    0    3      0.02     -6.54
    3    0    3     -0.03    -16.03
    6    0    3      0.00      1.19
    7    0    3      0.00     -0.93
    8    0    3      0.02      1.75
    9    0    3     -0.01      0.62
   10    0    3      0.02      0.74
   11    0    3      0.00     -0.68
   12    0    3      0.01     -0.96
   13    0    3     -0.02     -0.69
   14    0    3      0.01     -0.31
   15    0    3      0.00     -0.83
   16    0    3      0.00      0.16
    0    1    3      0.06     21.91
    5    1    3     -0.68      5.43
    6    1    3     -1.30      2.36
    7    1    3      1.94     -0.90
    8    1    3      0.17      1.75
   10    1    3      0.15      0.33
   11    1    3      0.49     -0.28
   12    1    3     -0.47      0.36
   13    1    3     -0.49      0.49
   14    1    3      0.43      0.43
   15    1    3     -0.33     -0.60
   16    1    3     -0.13      0.02
    0    2    3     13.23      0.02
    4    2    3     -3.41      0.26
    5    2    3      1.18      0.29
    6    2    3     -0.80      0.69
    7    2    3     -1.00      1.80
    8    2    3     -1.91     -1.68
    9    2    3      1.76      1.07
   10    2    3      0.74      0.00
   12    2    3     -0.06      0.16
   13    2    3      0.32      0.44
   14    2    3     -0.27      0.26
   15    2    3      0.09     -0.08
   16    2    3     -0.57      0.25
    0    3    3      0.38     13.39
    1    3    3     -4.45     -0.94
    9    3    3     -1.20      1.14
   10    3    3      0.16      1.43
   12    3    3      0.50     -0.30
   13    3    3      0.51     -0.15
   14    3    3      0.69      0.01
   15    3    3     -0.19      0.95
   16    3    3     -0.09      0.04
    0    4    3    -11.11     -0.76
    1    4    3      7.52     -6.78
    2    4    3     -0.88      5.97
    6    4    3      0.20      1.18
    7    4    3      1.82      0.34
   10    4    3     -0.74     -0.24
   12    4    3     -0.53     -0.45
   13    4    3      0.00      0.11
   14    4    3      1.12     -0.48
   15    4    3     -0.17     -0.14
   16    4    3     -0.17     -0.41
    0    5    3     -0.85     -6.76
    1    5    3     -0.94     -8.50
    2    5    3      7.66      0.82
    6    5    3      0.43     -1.44
   12    5    3     -0.39     -0.06
   13    5    3     -1.25     -0.65
   14    5    3     -0.46     -0.81
   15    5    3      1.12     -1.22
   16    5    3     -0.27      1.02
   13    6    3     -0.22     -0.20
   15    6    3     -0.95      0.02
   16    6    3      0.06     -0.09
    0    7    3      0.23     -2.88
   12    7    3      0.16     -0.57
   13    7    3      1.79     -0.61
   15    7    3     -0.56      0.49
    0    8    3     -4.61     -0.07
   14    8    3     -1.07      0.32
   16    8    3     -0.65     -0.16
    0    9    3      0.02      8.28
   16    9    3      0.58      0.79
   15   10    3     -0.55      0.25
   16   10    3      0.08      0.26
    3   11    3     -0.17     -0.42
   16   11    3     -0.93     -0.52
    4   12    3     -0.29      1.41
    5   12    3      0.08      1.31
   16   12    3      0.12     -0.52
    6   13    3      0.89      0.99
   16   13    3      0.47     -0.03
    7   14    3      0.07     -0.02
   15   14    3     -0.64      0.27
   16   14    3     -0.29      0.10
    5   15    3     -0.78      2.30
    6   15    3      2.06     -0.19
   15   15    3      0.16     -0.03
   16   15    3      0.50      0.05
    2   16    3      1.35      2.63
    4   16    3      2.00      0.73
    5   16    3      1.32     -0.12
   14   16    3      0.41     -0.36
   15   16    3     -0.62      0.10
   16   16    3      0.35      0.01
   13   17    3     -0.32      0.15
   14   17    3     -1.24     -0.65
   15   17    3     -0.23      0.19
   16   17    3      0.17      0.31
   11   18    3      0.09     -1.72
   12   18    3     -0.17      1.02
   13   18    3      0.72      0.39
   14   18    3     -0.01      0.27
   15   18    3      0.04     -0.07
    0   19    3     -0.03     -0.23
   11   19    3     -1.10     -0.60
   12   19    3      0.59      0.73
   14   19    3      0.06      0.28
   15   19    3      0.03      0.63
    0   20    3     -1.70      0.04
   13   20    3      0.94     -1.25
   14   20    3     -0.83     -0.40
   15   20    3     -0.04      0.37
   13   21    3     -0.32      0.12
   14   21    3     -0.16      0.20
   13   22    3     -0.29     -0.03
   14   22    3     -0.74      0.23
   12   23    3     -1.30     -0.01
   13   23    3      0.22      0.59
   11   24    3     -0.52     -0.32
   12   24    3      0.13     -0.21
   13   24    3     -0.26      0.22
   11   25    3     -0.39     -0.13
   12   25    3      0.26      0.10
   10   26    3      0.60      0.97
   11   26    3      0.43      0.77
   12   26    3     -0.25     -0.07
   10   27    3      0.57     -0.44
   11   27    3      0.64      0.29
    9   28    3     -0.36     -0.52
   10   28    3      0.15     -0.34
   11   28    3      0.12     -0.24
    8   29    3      0.27     -0.24
    9   29    3     -0.46     -0.30
   10   29    3     -0.48      0.33
    7   30    3     -0.10     -0.27
    8   30    3      0.24      0.37
    9   30    3     -0.28     -0.16
    5   31    3      0.29      1.14
    6   31    3      0.03     -0.28
    7   31    3      0.44     -0.20
    8   31    3     -0.24      0.17
    0   32    3     -1.50      0.00
    1   32    3     -0.22     -0.47
    2   32    3     -0.36     -1.12
    3   32    3     -0.05     -0.28
    4   32    3     -0.05     -0.67
    5   32    3      0.37      0.28
    6   32    3     -0.30     -0.33
    7   32    3      0.06      0.15
    3    0    4     -6.32      0.03
    5    0    4     -4.53      0.00
    6    0    4      2.56      0.01
    8    0    4      0.42      0.00
    9    0    4     -0.37      0.00
   11    0    4     -1.52      0.01
   12    0    4     -0.02      0.00
   13    0    4     -1.03     -0.01
   14    0    4     -0.38      0.01
   15    0    4      0.02     -0.01
   16    0    4      0.24      0.01
    0    1    4      0.00     41.51
    4    1    4      3.09     -6.07
    6    1    4      2.59     -3.49
    7    1    4      0.90     -0.32
   11    1    4      0.21      0.14
   12    1    4      0.79     -0.29
   13    1    4     -0.66     -0.54
   14    1    4     -0.16     -0.11
   15    1    4     -0.43     -0.37
   16    1    4     -0.18     -0.14
    0    2    4     -1.66      0.22
    1    2    4    -12.89      7.28
    3    2    4      2.03      6.48
    5    2    4     -3.17     -0.66
    6    2    4      0.29     -0.98
    8    2    4     -0.76     -0.32
    9    2    4      1.24      1.63
   10    2    4      0.23     -0.15
   11    2    4      0.30      0.22
   12    2    4      0.51      0.08
   13    2    4      1.01      0.16
   14    2    4     -0.23     -0.06
   15    2    4      0.68     -0.29
   16    2    4     -0.48      0.12
    0    3    4      0.17     -0.60
    2    3    4     -6.60     -2.76
    4    3    4      0.47      2.56
    7    3    4     -1.09     -0.57
    9    3    4      0.51      1.31
   11    3    4     -0.32     -0.17
   12    3    4     -0.49      0.25
   13    3    4     -0.03     -0.03
   14    3    4      0.99      0.10
    0    4    4      5.45      0.18
    1    4    4     -3.26      8.61
    2    4    4      0.17    -16.31
    3    4    4      0.31      0.88
    6    4    4     -4.64     -1.29
   11    4    4      0.29     -0.27
   12    4    4      0.81     -1.17
   13    4    4     -0.01      0.02
   14    4    4     -0.04      1.35
   16    4    4      0.72      0.08
    0    5    4      0.00     -1.36
    2    5    4      5.29      0.36
    4    5    4     -5.04      1.69
   10    5    4     -0.72     -0.25
   11    5    4     -0.38      0.76
   13    5    4     -0.29     -0.57
   15    5    4      0.79     -0.05
   16    5    4      0.12      0.23
    0    6    4     -5.00     -0.09
    2    6    4     -0.73      4.99
    3    6    4      4.09      2.62
   13    6    4     -0.42     -0.27
   14    6    4      0.12     -1.66
    2    7    4      4.38     -2.00
    1    8    4      1.86      1.62
   15    8    4      0.45     -0.02
   16    8    4     -0.67      0.02
    0    9    4      0.05      0.07
   16    9    4     -0.14      0.17
   15   10    4     -0.97      0.22
   16   10    4     -0.22      0.35
    3   11    4     -3.09      0.55
   16   11    4      0.21      0.46
    4   12    4      0.16     -3.97
    6   12    4     -0.14     -2.15
   16   12    4      0.17     -0.18
    5   13    4     -0.18     -0.82
   16   13    4      0.54      0.50
    6   14    4      1.10     -0.88
   15   14    4      0.46      0.39
   16   14    4     -0.26     -0.15
   15   15    4     -0.16      0.40
   16   15    4     -0.23     -0.06
    4   16    4     -0.57      2.04
    5   16    4      1.93     -2.22
   14   16    4      0.51      0.20
   15   16    4      0.29      0.17
   16   16    4      0.33      0.17
   13   17    4      0.49      0.75
   14   17    4     -0.57      0.32
   15   17    4      0.19     -0.04
   11   18    4      0.00      1.43
   12   18    4      0.84     -0.04
   13   18    4     -1.32     -0.24
   14   18    4     -0.27      0.29
   15   18    4      0.11      0.15
   14   19    4     -0.03      0.35
   15   19    4     -0.45     -0.54
   13   20    4      0.06      0.89
   14   20    4      0.37     -0.30
   15   20    4      0.45      0.55
   13   21    4     -0.89     -0.58
   14   21    4      0.79     -0.09
   13   22    4     -0.35     -0.36
   14   22    4     -0.02     -0.04
   12   23    4     -0.79     -0.19
   13   23    4     -0.27      0.33
   11   24    4     -0.62      0.22
   12   24    4     -0.07     -0.46
   13   24    4     -0.30     -0.42
   11   25    4      0.07     -0.68
   12   25    4     -0.37     -0.23
   10   26    4     -0.16     -0.15
   11   26    4      0.27     -0.05
   12   26    4     -0.67     -0.12
   10   27    4     -0.06      0.13
   11   27    4     -0.42      0.08
    9   28    4     -0.02     -0.42
   10   28    4      0.35     -0.22
   11   28    4      0.41      0.24
    8   29    4      0.44     -0.24
    9   29    4     -0.30     -0.41
   10   29    4     -0.02     -0.15
    6   30    4      0.40      0.38
    7   30    4     -0.54     -0.13
    8   30    4      0.15      0.38
    9   30    4     -0.03      0.01
    5   31    4     -0.02     -0.20
    6   31    4     -0.01      0.11
    7   31    4     -0.24     -0.21
    8   31    4     -0.09      0.09
    0   32    4     -0.90      0.01
    1   32    4     -0.39     -0.71
    2   32    4     -0.16     -0.20
    3   32    4     -0.58     -0.28
    4   32    4     -0.09     -0.24
    5   32    4     -0.08     -0.20
    6   32    4      0.26      0.02
    7   32    4      0.03      0.34
    1    0    5      0.02     24.75
    3    0    5     -0.02     -6.75
    4    0    5      0.00     -9.78
    6    0    5      0.01     -1.04
    7    0    5     -0.01     -0.70
    8    0    5      0.02      0.66
   10    0    5      0.00     -0.21
   11    0    5      0.00     -0.24
   12    0    5      0.01     -0.52
   13    0    5     -0.01     -0.37
   14    0    5      0.00     -0.44
   15    0    5     -0.01      0.38
    6    1    5     -3.09     -1.02
    7    1    5     -0.06     -2.12
    9    1    5     -0.27     -0.52
   10    1    5     -1.45     -0.01
   11    1    5      0.11     -0.23
   12    1    5     -0.71      0.26
   13    1    5     -0.29     -0.54
   14    1    5      0.06     -0.23
   15    1    5      0.02     -0.67
   16    1    5     -0.05      0.03
    0    2    5     -1.95      0.09
    6    2    5      2.26     -2.16
   10    2    5      1.15     -0.25
   11    2    5      0.28     -0.38
   12    2    5     -0.73     -0.12
   13    2    5     -0.20      0.31
   14    2    5     -0.65      0.21
   15    2    5      0.46     -0.90
   16    2    5     -0.80     -0.45
    0    3    5      0.30     12.20
    2    3    5     -7.92      4.92
    6    3    5     -1.22     -0.41
    8    3    5      1.33     -0.50
    9    3    5     -0.12      0.42
   11    3    5     -0.18     -0.51
   12    3    5      0.98     -0.90
   13    3    5     -0.10     -0.20
   14    3    5      0.83      0.30
   15    3    5     -0.35      0.77
   16    3    5      0.25     -0.18
    0    4    5     -4.39     -0.33
    1    4    5     -1.74      3.20
    2    4    5      3.38      1.27
    8    4    5     -1.39     -0.49
    9    4    5      0.11     -1.72
   10    4    5     -1.17      0.84
   11    4    5      0.08      0.99
   12    4    5      0.65      0.02
   13    4    5      0.67     -0.46
   15    4    5      0.46      0.49
    0    5    5      0.37      4.92
    2    5    5      0.63     -0.17
    4    5    5      0.62      3.80
   12    5    5      0.08     -0.19
   13    5    5      1.03      0.49
    0    6    5      3.11     -0.33
    1    6    5      1.47     -6.24
    2    6    5     -0.76     -2.58
   11    6    5      0.25     -0.17
   12    6    5     -0.39      0.94
   15    6    5     -1.07      0.67
   16    6    5     -0.02      0.40
    1    7    5      2.10      1.24
   16    7    5      0.84      0.03
    0    8    5     -7.70     -0.06
   16    8    5     -0.59      0.05
   16    9    5      0.41     -0.18
   16   10    5      0.01     -0.19
    3   11    5      1.07      0.16
   16   11    5     -0.58     -0.24
    3   12    5      1.55      1.33
    4   12    5     -1.26     -0.77
   16   12    5      0.58      0.28
    5   13    5      2.75     -0.34
   16   13    5      0.26      0.06
    3   14    5     -0.82      2.36
    5   14    5      0.47     -0.07
    6   14    5     -1.03      0.24
   15   14    5     -0.17     -0.23
   16   14    5     -0.59      0.31
    2   15    5      2.01      0.63
    3   15    5     -1.37     -0.60
    4   15    5      0.12     -0.36
    5   15    5     -1.40      1.77
    6   15    5     -0.05     -2.05
   15   15    5      0.00     -0.60
   16   15    5      0.58      0.00
    1   16    5     -1.04      0.33
    2   16    5     -1.48      1.43
    3   16    5      0.40      1.15
    5   16    5      1.76     -0.18
   14   16    5      0.97     -0.34
   15   16    5     -0.41     -0.05
   16   16    5      0.01     -0.02
   13   17    5     -0.27      1.59
   14   17    5     -0.75     -0.38
   15   17    5      0.15      0.47
   11   18    5      0.31      1.12
   12   18    5     -1.59      0.71
   13   18    5     -0.67     -0.10
   14   18    5      0.22     -0.32
   15   18    5     -0.31     -0.01
    0   19    5     -0.02     -0.46
   14   19    5     -0.95      0.42
   15   19    5     -0.12      0.41
   13   20    5      1.56     -0.36
   14   20    5     -0.67     -0.99
   13   21    5     -0.20     -0.81
   14   21    5      0.10     -0.13
   13   22    5     -0.05      0.14
   14   22    5     -0.41      0.33
   12   23    5      0.91     -0.14
   13   23    5     -0.54      0.17
   11   24    5     -0.35      0.25
   12   24    5      0.60     -0.15
   13   24    5     -0.34     -0.39
   11   25    5     -0.13     -0.65
   12   25    5     -0.80     -0.43
   10   26    5     -0.49      0.05
   11   26    5      0.17      1.08
   12   26    5     -0.07     -0.52
    9   27    5     -0.61      0.00
   10   27    5     -0.06      0.77
   11   27    5      0.06      0.31
    8   28    5      0.10     -0.38
    9   28    5      0.29     -0.93
   10   28    5      0.18     -0.34
    7   29    5     -0.14      0.50
    8   29    5      0.39     -0.39
    9   29    5      0.21     -0.59
   10   29    5      0.15      0.14
    6   30    5      0.00     -0.35
    7   30    5     -0.09     -0.03
    8   30    5     -0.19     -0.32
    9   30    5      0.04      0.08
    5   31    5      0.00      1.26
    6   31    5     -0.23      0.43
    7   31    5      0.42     -0.10
    8   31    5     -0.30     -0.03
    0   32    5     -0.15     -0.01
    1   32    5      0.09     -0.02
    2   32    5     -0.22     -1.10
    3   32    5     -0.25     -0.13
    4   32    5     -0.08     -0.06
    5   32    5     -0.27      0.27
    6   32    5      0.29     -0.05
    7   32    5     -0.10      0.44
    1    0    6      4.83      0.04
    2    0    6      6.47      0.00
    4    0    6      1.09     -0.01
    5    0    6     -0.63      0.01
    6    0    6      2.09     -0.01
    9    0    6     -1.93      0.01
   10    0    6      0.16      0.00
   11    0    6     -1.37      0.01
   12    0    6     -0.05      0.00
   13    0    6      0.15      0.00
   14    0    6     -0.23     -0.01
   15    0    6     -0.66      0.01
   16    0    6      1.05      0.00
    5    1    6      3.56     -2.65
    8    1    6      0.01     -0.81
   10    1    6     -0.35     -0.99
   11    1    6      0.54     -0.63
   12    1    6     -0.33     -0.04
   13    1    6     -1.09      0.30
   14    1    6      0.00     -0.25
   15    1    6      0.27     -0.04
    0    2    6     -1.01      0.17
    3    2    6     -1.21      9.94
    5    2    6     -0.76     -3.55
    6    2    6     -0.63      0.74
    8    2    6     -0.36      0.23
   11    2    6     -0.28      0.08
   12    2    6     -0.46     -0.53
   13    2    6      0.30     -0.21
   14    2    6     -0.44     -0.54
   15    2    6      0.13      0.05
   16    2    6     -0.45      0.26
    0    3    6     -0.01     -3.03
    1    3    6     -2.71     -0.57
    2    3    6     -4.27     -2.26
    8    3    6      2.39      0.00
   12    3    6      0.50      1.31
   13    3    6     -0.44     -0.03
   14    3    6      0.14     -0.90
   15    3    6      0.42      0.27
   16    3    6      0.03     -0.08
    0    4    6      0.62      0.15
    1    4    6     -0.86     11.32
    2    4    6      7.10     -2.05
    5    4    6     -0.11      3.92
    6    4    6     -2.26     -0.60
    7    4    6      2.05     -1.66
    8    4    6      1.47     -0.71
    9    4    6      1.76      0.85
   10    4    6     -1.37     -0.91
   16    4    6     -0.21     -0.57
    0    5    6      0.00      6.29
    1    5    6      1.04      0.85
    2    5    6      0.57      1.59
    0    6    6      6.30     -0.08
    2    6    6     -2.05      5.17
    0    7    6      0.00    -10.29
    0    8    6      2.69     -0.12
   16    8    6     -0.24      0.12
    0    9    6      0.11     -1.60
   16    9    6      0.33     -0.28
    3   10    6     -1.75     -2.71
   16   10    6     -0.57     -0.22
    3   11    6      1.10     -1.54
   15   11    6      0.59      0.12
   16   11    6      0.44      0.50
    3   12    6     -1.39     -0.87
    4   12    6     -1.07      2.31
   16   12    6     -0.32      0.23
    4   13    6     -0.50      1.00
    5   13    6     -1.55     -0.07
   15   13    6      0.07     -0.36
   16   13    6     -0.23     -0.03
    3   14    6      1.33      0.19
    5   14    6     -1.03      0.14
    6   14    6     -0.75     -0.29
   15   14    6      0.58     -0.27
   16   14    6     -0.25     -0.25
    1   15    6     -1.11      0.28
    2   15    6     -1.79      2.06
    3   15    6     -2.58      2.74
    6   15    6      1.26     -0.41
   15   15    6     -0.77     -0.25
   16   15    6     -0.45      0.03
    0   16    6      0.75     -0.03
    1   16    6      0.71      0.21
    4   16    6     -1.23      1.71
    5   16    6     -0.39     -2.67
   14   16    6      0.35      0.62
   15   16    6      0.56     -0.19
   16   16    6      0.03      0.41
   13   17    6     -0.78      0.01
   14   17    6      0.02      0.12
   15   17    6     -0.09     -0.26
    0   18    6     -1.39     -0.03
   11   18    6      0.24      0.92
   12   18    6      1.93      2.44
   14   18    6      0.70     -0.01
   15   18    6     -0.08     -0.13
    0   19    6      0.04      1.70
   14   19    6      0.03     -0.28
   15   19    6     -0.34      0.46
   13   20    6     -0.81      1.15
   14   20    6     -0.20     -0.14
   13   21    6     -0.08     -0.33
   14   21    6      0.46      1.03
   12   22    6     -0.01     -0.94
   13   22    6      0.91     -0.40
   14   22    6     -0.50     -0.22
   12   23    6      0.45     -0.20
   13   23    6      0.23     -0.06
   11   24    6     -0.67     -1.46
   12   24    6     -0.16      0.36
   13   24    6     -0.22     -0.49
   11   25    6      0.37      0.27
   12   25    6      0.10     -0.14
   10   26    6     -0.26      0.01
   11   26    6      0.22      0.45
   12   26    6      0.43     -0.12
    9   27    6      0.75      0.07
   10   27    6      0.26     -0.82
   11   27    6     -0.51      0.06
    8   28    6     -0.49      0.00
    9   28    6     -0.14     -0.15
   10   28    6     -0.07     -0.23
    7   29    6     -0.18     -0.18
    8   29    6      0.34      0.25
    9   29    6      0.22     -0.33
   10   29    6     -0.38      0.53
    6   30    6      0.50      0.65
    7   30    6      0.11     -0.69
    8   30    6      0.10      0.10
    9   30    6      0.34     -0.44
    4   31    6     -0.20      0.10
    5   31    6     -0.16      0.40
    6   31    6      0.05      0.15
    7   31    6     -0.29     -0.04
    8   31    6      0.22     -0.18
    0   32    6      0.16      0.02
    1   32    6     -0.57      0.14
    2   32    6     -0.04     -0.15
    3   32    6      0.03      0.31
    4   32    6     -0.12      0.04
    5   32    6      0.04     -0.38
    6   32    6     -0.18      0.13
    7   32    6     -0.12     -0.12
    1    0    7      0.00      2.21
    4    0    7     -0.02     -0.16
    5    0    7      0.00      2.91
    6    0    7      0.00     -3.84
    9    0    7      0.02     -1.39
   10    0    7     -0.01     -0.37
   11    0    7     -0.01     -1.66
   12    0    7      0.00     -0.69
   13    0    7     -0.01      0.21
   14    0    7      0.00      0.35
   15    0    7     -0.01     -0.61
    0    1    7      0.05     -9.77
    2    1    7     -2.88      7.12
    8    1    7     -1.80     -0.62
    9    1    7      0.53     -0.16
   10    1    7     -0.17     -0.29
   11    1    7      0.23      0.80
   12    1    7     -0.34     -0.64
   13    1    7     -0.11     -0.13
   14    1    7     -0.08     -0.16
   15    1    7     -0.22     -0.74
    0    2    7      1.01      0.10
    1    2    7    -10.24     -7.19
    6    2    7      1.77     -1.13
    8    2    7     -1.41      1.02
   12    2    7      0.27      0.31
   13    2    7      0.21      0.37
   14    2    7     -0.07      0.88
   15    2    7      0.29     -0.13
    0    3    7      0.22      4.12
    1    3    7      4.60      1.21
    2    3    7     -0.24      0.78
    6    3    7      0.97     -1.15
    8    3    7      1.63     -0.01
   12    3    7      0.24     -0.70
   13    3    7     -0.79     -0.66
   15    3    7      0.19      0.64
   16    3    7      0.77     -0.61
    0    4    7     -4.71      0.02
    1    4    7     -1.34      3.05
    2    4    7      2.74      1.58
    6    4    7     -2.87     -0.49
    7    4    7      0.58      1.74
    8    4    7      0.21      0.85
    9    4    7      1.07      0.50
   11    4    7      0.92      1.09
   14    4    7      0.15     -0.49
   15    4    7      0.65      1.00
   16    4    7     -0.47      0.00
    2    5    7     -2.72      4.20
   15    5    7     -0.16     -1.25
   16    5    7      0.34     -0.45
    0    6    7      0.16      0.04
    1    6    7     -1.91      2.63
    2    6    7      1.23      0.92
   15    6    7     -0.26     -0.14
   16    6    7     -0.26      0.27
    0    7    7      0.18     -2.45
   16    7    7      0.11      0.29
    0    8    7     -0.90      0.01
   14    8    7      0.60     -0.23
   16    8    7      0.62      0.02
    0    9    7      0.11     -4.51
   16    9    7     -0.09     -0.11
    3   10    7      1.91      0.03
   16   10    7      0.32     -0.19
    3   11    7      0.27      0.46
    4   11    7     -2.26     -0.14
   16   11    7      0.00      0.09
    3   12    7     -0.10     -0.54
    4   12    7      0.01     -1.60
   16   12    7     -0.13      1.06
    3   13    7     -2.36      0.39
    4   13    7      0.54     -1.47
    5   13    7      0.57     -0.53
   15   13    7     -1.17     -0.85
   16   13    7     -0.03     -0.17
    2   14    7     -1.77      1.45
    4   14    7     -0.80      1.67
    5   14    7     -0.23      1.03
    6   14    7      1.53     -1.00
   15   14    7      0.46      0.17
   16   14    7      0.05     -0.15
    0   15    7     -0.02      3.73
    1   15    7      2.21      0.33
    2   15    7      1.74     -0.79
    3   15    7     -1.10     -1.13
    4   15    7     -0.58     -1.06
    5   15    7     -2.42      0.80
   15   15    7      0.28      0.09
   16   15    7      0.28     -0.05
    1   16    7      0.35     -0.55
    3   16    7     -0.15     -0.13
    4   16    7     -0.44      3.23
    5   16    7     -0.11      0.34
   14   16    7     -0.21     -0.43
   15   16    7     -0.18      0.31
    0   17    7      0.01     -4.38
   13   17    7      1.18      0.15
   14   17    7     -0.72      0.17
   15   17    7      0.18     -0.25
    0   18    7      0.42     -0.05
   14   18    7     -0.47     -0.50
   15   18    7      0.20     -0.67
   13   19    7      0.66      0.76
   14   19    7     -0.16      0.39
   15   19    7     -0.12     -0.19
   13   20    7     -0.28      0.39
   14   20    7      0.61     -0.58
   13   21    7     -0.44     -0.02
   14   21    7      0.52     -0.26
   12   22    7     -0.38     -0.50
   13   22    7     -0.18      0.14
   12   23    7      0.97     -0.39
   13   23    7     -0.08     -0.28
   11   24    7      0.86      0.69
   12   24    7      0.45      0.15
   13   24    7      0.20     -0.27
   10   25    7     -0.25      0.34
   11   25    7      0.50     -0.39
   12   25    7      0.19     -0.75
   10   26    7     -0.08     -0.60
   11   26    7     -0.13     -0.40
    9   27    7     -0.67      0.51
   10   27    7      0.44      0.69
   11   27    7     -0.09      0.40
    8   28    7      0.12      0.29
    9   28    7      0.10     -0.01
   10   28    7      0.19      0.09
    7   29    7      0.16      0.45
    8   29    7      0.44     -0.52
    9   29    7      0.46     -0.29
    6   30    7     -0.07     -0.05
    7   30    7     -0.04      0.52
    8   30    7     -0.27     -0.12
    9   30    7      0.23      0.72
    4   31    7     -0.96     -0.53
    5   31    7     -0.36     -0.01
    6   31    7     -0.23      0.44
    7   31    7      0.07      0.14
    8   31    7      0.14     -0.42
    0   32    7      0.19     -0.01
    1   32    7     -0.14      0.91
    2   32    7      0.77     -0.19
    3   32    7     -0.63     -0.36
    4   32    7      0.32      0.17
    5   32    7     -0.42      0.41
    6   32    7     -0.08      0.03
    2    0    8      2.16      0.01
    3    0    8      2.66      0.00
    4    0    8      2.67     -0.01
    5    0    8     -0.22      0.02
    6    0    8     -1.45      0.00
    9    0    8     -1.80      0.01
   10    0    8     -0.72     -0.02
   11    0    8      1.27      0.00
   12    0    8     -0.56     -0.01
   13    0    8     -0.51      0.00
   14    0    8     -0.60     -0.02
    7    1    8     -0.34     -1.62
    8    1    8     -0.80     -0.86
    9    1    8     -0.69      0.73
   10    1    8      0.01     -1.30
   11    1    8      1.20     -0.98
   12    1    8      0.95     -0.51
   13    1    8     -0.39      1.02
    0    2    8      0.85      0.08
    1    2    8     -0.63     -1.78
    5    2    8     -0.44      2.48
    7    2    8      0.49      0.51
   11    2    8      0.46     -0.04
   12    2    8     -0.27     -0.05
   13    2    8      0.06     -0.96
   14    2    8      0.59     -0.13
   15    2    8      0.88     -0.02
   16    2    8     -0.56     -0.49
    0    3    8     -0.09     -4.50
    4    3    8      1.08     -1.73
    5    3    8     -0.69     -0.94
    6    3    8     -0.78     -0.09
   14    3    8     -0.67     -0.19
   15    3    8     -0.23      0.23
   16    3    8      0.11      0.41
    2    4    8      1.45      2.13
    6    4    8      0.61      1.00
    9    4    8      1.96      0.61
   11    4    8     -1.72      0.41
   12    4    8     -1.18      0.50
   13    4    8      0.48     -0.24
   14    4    8      0.87     -0.27
   15    4    8     -0.42     -0.23
   16    4    8     -0.19     -0.13
    3    5    8      3.16      2.18
   16    5    8      0.56      0.18
    0    6    8      2.07     -0.13
    2    6    8      4.30      2.88
    3    6    8      0.08      1.85
   16    6    8      0.27     -0.07
    0    7    8      0.03     -0.73
    1    7    8     -2.46     -0.71
    2    7    8      1.36      0.15
   16    7    8     -0.50     -0.69
    0    8    8      1.18     -0.02
    1    8    8      2.27     -3.59
   15    8    8     -0.40      0.02
   16    8    8      0.48      0.07
    0    9    8      0.05     -1.73
   16    9    8      0.65     -0.08
    3   10    8     -1.29     -2.76
   16   10    8     -0.54     -0.32
    2   11    8      1.27      1.06
    3   11    8      2.01     -3.51
   16   11    8      0.60      0.37
    2   12    8     -0.03     -0.36
    3   12    8      1.39      1.18
    4   12    8      1.38      0.07
   15   12    8      0.66      0.71
   16   12    8     -0.38      0.20
    2   13    8     -0.16      1.35
    3   13    8      1.09     -0.08
    4   13    8     -1.67     -0.54
    5   13    8      0.43      0.21
   15   13    8      0.57     -0.04
   16   13    8     -0.51     -0.57
    0   14    8      0.22     -0.01
    2   14    8     -0.65     -3.00
    3   14    8      1.09     -2.98
    5   14    8     -0.12     -0.18
    6   14    8     -1.87     -0.58
   14   14    8     -0.41      0.61
   15   14    8      0.88     -1.19
   16   14    8      0.32      0.12
    0   15    8      0.02      1.92
    1   15    8     -1.35      0.12
    2   15    8     -1.23      0.97
   14   15    8      0.76      0.55
   15   15    8     -0.72     -0.09
   16   15    8     -0.17      0.14
    0   16    8     -0.22      0.01
    3   16    8      1.36     -2.23
   13   16    8     -0.84     -0.62
   14   16    8      0.71      0.32
   15   16    8      0.10     -0.01
    0   17    8     -0.03      1.58
   14   17    8      0.48      0.80
   15   17    8     -0.19      0.45
    0   18    8     -0.92      0.01
    1   18    8      1.19     -2.54
   14   18    8      0.39     -0.95
   15   18    8     -0.22      0.10
   13   19    8      0.15     -0.81
   14   19    8      0.09     -0.75
   13   20    8      0.12      0.47
   14   20    8     -1.18      0.40
   13   21    8     -0.02     -0.25
   14   21    8     -0.05      0.51
   12   22    8      0.14      0.48
   13   22    8      0.56      0.31
   12   23    8      0.74      0.39
   13   23    8      0.23     -0.14
   11   24    8     -0.03     -1.20
   12   24    8     -0.02     -0.38
   10   25    8      0.23     -0.48
   11   25    8      0.24     -0.47
   12   25    8     -0.25     -0.04
   10   26    8     -0.11     -0.04
   11   26    8      0.28      0.72
    9   27    8      0.80      0.33
   10   27    8      0.83     -0.37
   11   27    8      0.14      0.19
    8   28    8      0.02      0.09
    9   28    8      0.15     -0.56
   10   28    8      0.12     -0.13
    7   29    8      0.22      0.40
    8   29    8      0.01      0.55
    9   29    8      0.25     -0.07
    5   30    8     -0.06      0.22
    6   30    8      0.21      0.49
    7   30    8      0.38      0.11
    8   30    8      0.42      0.34
    0   31    8      0.03      0.89
    3   31    8      0.49      0.60
    4   31    8     -0.08      0.03
    5   31    8      0.27      0.19
    6   31    8     -0.18     -0.05
    7   31    8      0.02      0.02
    0   32    8      0.64     -0.03
    1   32    8     -0.17      0.37
    2   32    8      0.06      0.11
    3   32    8     -0.11      0.39
    4   32    8      0.23      0.39
    5   32    8     -0.22      0.00
    6   32    8     -0.27      0.07
    2    0    9     -0.02     -2.30
    3    0    9      0.01      6.31
    4    0    9     -0.01      4.70
    8    0    9     -0.01     -0.40
    9    0    9      0.01     -1.06
   10    0    9      0.00      0.63
   11    0    9     -0.01     -1.18
   12    0    9      0.00     -1.00
   13    0    9     -0.01      0.67
    0    1    9      0.02     -1.16
    3    1    9      0.78      0.86
    4    1    9     -2.91     -1.72
    7    1    9     -0.77     -0.54
   10    1    9      0.16     -1.71
   11    1    9      0.40      0.33
   12    1    9      0.21     -0.30
   13    1    9     -0.61     -0.08
    0    2    9     -5.88      0.08
    3    2    9     -0.69     -1.85
    4    2    9     -3.08     -1.96
    5    2    9      0.87      2.23
    6    2    9     -0.60     -0.15
    7    2    9     -1.99      0.26
   11    2    9      0.30     -0.49
   13    2    9      0.12     -0.22
   14    2    9     -0.65      0.52
   16    2    9      0.11      0.83
    1    3    9      3.23      1.31
    4    3    9      0.14     -0.87
    8    3    9     -0.05      0.52
    9    3    9      0.18     -0.34
   13    3    9      0.35      0.68
   14    3    9      0.45     -0.39
   16    3    9      0.19     -0.30
    0    4    9     -2.07      0.05
    1    4    9      1.75      0.91
    2    4    9     -1.48      2.03
    7    4    9     -0.27     -0.08
    8    4    9     -0.67      0.84
    9    4    9      0.98      1.79
   12    4    9      0.67     -0.56
   13    4    9     -0.61     -0.31
   14    4    9      0.55     -0.79
   16    4    9     -0.34      0.08
    1    5    9      2.28      1.08
   16    5    9      0.27      0.09
    0    6    9     -0.87      0.07
    2    6    9     -0.83      1.18
    3    6    9     -5.17      1.90
   15    6    9      0.24     -0.53
   16    6    9     -0.14      0.28
    0    7    9      0.01     -0.20
    1    7    9     -0.60      2.26
   15    7    9      0.39      0.38
   16    7    9     -0.13      0.06
    0    8    9     -1.01      0.05
    1    8    9      1.91      0.68
   13    8    9     -0.63     -0.29
   16    8    9      0.30      0.07
    0    9    9      0.09     -4.94
   16    9    9     -0.49      0.33
    0   10    9     -0.02     -0.09
    2   10    9      1.33      0.78
    3   10    9      0.95     -1.08
   16   10    9      0.13     -0.23
    0   11    9      0.00     -2.59
    2   11    9      0.45     -1.30
    3   11    9      0.10     -1.48
    4   11    9      0.73     -1.17
   16   11    9      0.09     -0.12
    0   12    9      2.51     -0.03
    3   12    9     -0.78      0.05
    4   12    9     -0.24     -1.01
   15   12    9      0.23     -1.37
   16   12    9     -0.35      0.89
    0   13    9      0.02      0.11
    1   13    9     -1.67     -1.97
    2   13    9      2.89      2.40
    3   13    9      0.63     -2.51
    4   13    9     -1.58     -0.02
    5   13    9     -0.26     -1.44
   15   13    9     -0.73      0.85
   16   13    9     -0.14     -0.04
    0   14    9     -3.37      0.03
    1   14    9     -2.41      1.30
    2   14    9     -0.83      0.24
    3   14    9     -0.54     -0.07
    5   14    9     -1.36     -1.76
   15   14    9      0.46      0.35
   16   14    9      0.05     -0.24
    0   15    9     -0.02      3.84
    1   15    9     -0.72     -0.94
    3   15    9      0.25      0.43
    5   15    9     -0.56      1.30
   14   15    9     -0.26     -0.21
   15   15    9      0.15      0.15
    0   16    9      2.23      0.04
    1   16    9      1.40      1.76
    2   16    9     -0.87      0.84
   13   16    9      0.92     -0.08
   14   16    9     -0.07      0.78
   15   16    9      0.39     -0.36
    0   17    9     -0.03     -0.77
    1   17    9     -1.65      0.27
   14   17    9     -0.15      0.44
   15   17    9      0.32     -0.40
    0   18    9      0.33     -0.05
   13   18    9     -0.08      0.53
   14   18    9     -0.15     -0.61
   15   18    9      0.08      0.01
   13   19    9     -1.45     -0.79
   14   19    9      0.50      0.59
   13   20    9     -1.14     -0.17
   14   20    9      0.43     -0.33
   12   21    9      0.34      0.18
   13   21    9      0.10      0.18
   14   21    9      0.51     -0.34
   12   22    9     -0.03      0.49
   13   22    9     -0.15      0.21
   11   23    9     -1.06      1.09
   12   23    9      0.02     -0.58
   13   23    9      0.03     -0.13
   11   24    9      0.03     -0.69
   12   24    9      0.35      0.42
   10   25    9     -0.33      0.31
   11   25    9     -0.06     -0.36
   12   25    9      0.25     -0.09
    9   26    9      0.80     -0.48
   10   26    9      0.18     -0.55
   11   26    9      0.28     -0.28
    9   27    9     -0.73      0.02
   10   27    9      0.71      0.06
    8   28    9      0.06     -0.06
    9   28    9      0.31      0.02
   10   28    9      0.20      0.25
    6   29    9      0.48     -0.13
    7   29    9     -0.29      0.92
    8   29    9      0.23     -0.49
    9   29    9      0.46     -0.10
    5   30    9      0.49      0.22
    6   30    9      0.41      0.14
    7   30    9     -0.21     -0.01
    8   30    9      0.38      0.20
    0   31    9      0.00     -0.37
    1   31    9     -0.10      0.08
    2   31    9     -0.18      0.58
    3   31    9      0.42      0.29
    4   31    9     -0.01      0.10
    5   31    9     -0.60     -0.05
    6   31    9     -0.35      0.24
    7   31    9      0.19      0.56
    0   32    9      0.34     -0.01
    1   32    9     -0.42      0.66
    2   32    9      0.33      0.12
    3   32    9     -0.02     -0.04
    4   32    9      0.20     -0.14
    5   32    9      0.08      0.31
    6   32    9      0.23      0.34
    1    0   10     -1.18      0.00
    2    0   10      0.02      0.00
    3    0   10     -1.74      0.00
    4    0   10     -0.37     -0.01
    5    0   10     -1.80      0.00
    7    0   10      0.85      0.00
    9    0   10     -1.06      0.00
   10    0   10     -0.58     -0.02
   11    0   10      1.15      0.00
   12    0   10      0.11      0.00
   16    0   10     -0.43      0.00
    0    1   10      0.03     -7.78
    2    1   10     -3.71      0.72
    5    1   10     -2.09      0.38
    9    1   10      0.20      0.94
   10    1   10     -1.21     -0.65
   11    1   10      0.31      0.66
   12    1   10      0.80     -0.71
   13    1   10     -0.64      0.24
   16    1   10      0.24      0.01
    0    2   10      2.33      0.03
    1    2   10     -0.95     -5.74
    4    2   10      0.35      0.93
    8    2   10      1.38      0.32
   11    2   10      0.96     -0.43
   12    2   10     -0.54      0.86
   16    2   10      0.76     -0.87
    2    3   10     -0.05     -4.22
    7    3   10      0.17      0.06
   10    3   10     -0.01      0.61
   12    3   10      0.35     -0.21
   14    3   10     -0.84     -0.02
   16    3   10     -0.36     -0.51
    2    4   10      3.45      0.64
    5    4   10      1.32     -0.46
    6    4   10     -0.64      0.50
    7    4   10     -0.10      0.27
    9    4   10      0.90     -0.34
   13    4   10     -0.35      0.76
   14    4   10      0.22      0.92
   16    4   10     -0.38      0.63
    0    5   10      0.01      0.90
    1    5   10      0.92      2.51
   15    5   10      0.27      0.31
   16    5   10      0.19      0.01
    2    6   10      1.19      0.25
    4    6   10     -0.33     -1.89
   16    6   10      0.08     -0.25
    0    7   10      0.00      3.12
   14    7   10      0.10      0.28
   15    7   10      0.42      0.11
   16    7   10      0.12     -0.08
    0    8   10     -0.72     -0.02
   13    8   10     -0.65      0.96
   16    8   10      0.23      0.28
    0    9   10     -0.02      0.80
    1    9   10      0.09      0.05
    2    9   10      0.38     -1.31
   15    9   10      0.00     -0.49
   16    9   10      0.09     -0.17
    0   10   10     -0.59      0.00
    2   10   10      0.83      1.56
    3   10   10      0.57     -0.78
   16   10   10     -0.36      0.13
    0   11   10      0.05     -0.68
    2   11   10     -0.29     -2.69
    3   11   10     -0.15      0.23
   15   11   10     -1.32      0.55
   16   11   10     -0.17     -0.04
    0   12   10     -0.99      0.00
    1   12   10      0.87      0.05
    2   12   10     -0.26      0.04
    3   12   10      1.66     -0.15
   15   12   10      0.51      0.04
   16   12   10      0.17      0.13
    0   13   10      0.03     -1.00
    1   13   10     -0.94      1.24
    3   13   10      1.43     -0.10
    4   13   10     -0.93     -0.67
    5   13   10      2.43     -1.51
   15   13   10      0.76      0.11
   16   13   10      0.01     -0.06
    0   14   10     -1.96     -0.04
    3   14   10      0.23     -0.29
    5   14   10     -0.16     -0.03
   15   14   10     -0.26     -0.56
   16   14   10      0.08      0.17
    0   15   10      0.03      2.15
    1   15   10     -1.29     -0.01
    2   15   10     -0.28      0.57
    3   15   10      2.04      1.59
    5   15   10      0.08     -2.31
   14   15   10      1.66     -0.73
   15   15   10     -0.36      0.18
    0   16   10     -1.27      0.04
    1   16   10     -2.41     -0.10
   14   16   10      0.60      0.33
   15   16   10     -0.02     -0.34
    0   17   10     -0.07      0.52
    1   17   10      0.65      0.30
   14   17   10      0.26      0.43
   15   17   10      0.16      0.57
   13   18   10      0.63      0.81
   14   18   10     -0.22      0.06
   13   19   10     -0.09     -0.12
   14   19   10      0.25     -0.21
   13   20   10      0.78     -0.08
   14   20   10     -0.48     -0.28
   12   21   10      0.03     -0.24
   13   21   10     -0.66     -0.29
   12   22   10      0.23      0.76
   13   22   10      0.26      0.13
   11   23   10     -1.35      1.16
   12   23   10     -0.18      1.11
   10   24   10      0.40     -0.39
   11   24   10     -0.03     -0.68
   12   24   10     -0.49     -0.38
   10   25   10      0.03     -0.53
   11   25   10      0.45     -0.21
    9   26   10     -0.22      0.87
   10   26   10     -0.50     -0.01
   11   26   10      0.25     -0.04
    8   27   10      0.27     -0.63
    9   27   10     -0.13      0.29
   10   27   10      0.41      0.24
    7   28   10      0.54     -0.86
    8   28   10      0.21      0.48
    9   28   10      0.53     -0.33
    6   29   10     -0.37     -0.66
    7   29   10     -0.32      0.16
    8   29   10      0.17      0.16
    9   29   10      0.16      0.02
    4   30   10     -0.32      0.15
    5   30   10     -0.39      0.24
    6   30   10     -0.48      0.08
    7   30   10      0.03      0.12
    8   30   10      0.00      0.21
    0   31   10      0.00      0.65
    1   31   10      0.58      0.24
    2   31   10     -0.29     -0.06
    3   31   10     -0.08      0.30
    4   31   10      0.33      0.39
    5   31   10      0.16     -0.20
    6   31   10      0.39     -0.12
    7   31   10      0.08     -0.04
    0   32   10      0.03     -0.02
    1   32   10      0.07      0.11
    2   32   10     -0.04      0.24
    3   32   10     -0.40      0.42
    4   32   10      0.13      0.02
    5   32   10      0.05      0.22
    1    0   11      0.00     -0.31
    2    0   11     -0.01     -0.80
    3    0   11      0.01      0.65
    4    0   11      0.00     -0.16
    5    0   11      0.00      3.45
    9    0   11      0.02      1.19
   10    0   11      0.02      1.40
   11    0   11      0.00     -0.10
   16    0   11      0.00     -0.64
    2    1   11      2.00      0.82
    3    1   11     -0.34      1.48
   16    1   11     -0.25     -0.52
    0    2   11     -2.42     -0.01
    5    2   11     -1.82      0.98
    6    2   11     -0.56     -0.04
    8    2   11     -0.37     -0.03
   11    2   11     -0.37     -0.99
   12    2   11      0.95      0.17
   16    2   11     -0.29     -0.09
    2    3   11     -1.90     -0.39
    5    3   11     -0.60     -0.64
    8    3   11     -1.47      1.19
   11    3   11     -0.44      0.90
   13    3   11     -0.32      0.42
   16    3   11      0.06      0.36
    0    4   11     -1.15      0.01
    3    4   11      0.58     -0.56
    5    4   11      1.26      0.74
    8    4   11     -0.20      0.04
   11    4   11      0.70      1.74
   16    4   11      0.28     -0.54
    0    5   11     -0.03      3.04
    1    5   11      1.57     -0.12
    2    5   11     -1.13     -1.70
    3    5   11      0.78     -1.33
    4    5   11     -1.19      0.59
    7    5   11     -0.58     -0.97
    9    5   11     -0.20      0.41
   15    5   11     -0.15     -0.46
   16    5   11     -0.14     -0.16
    0    6   11      0.74      0.06
    2    6   11      2.13      1.79
    3    6   11     -2.26      1.41
    4    6   11     -2.34     -0.75
    5    6   11      2.10      0.70
   16    6   11     -0.12      0.27
    0    7   11      0.01     -3.92
    1    7   11     -4.10      0.95
    3    7   11     -1.96      0.08
   14    7   11      0.89     -0.03
   15    7   11      0.44      0.14
   16    7   11     -0.36      0.09
    0    8   11      1.11     -0.01
    1    8   11      2.34      1.27
    2    8   11     -0.12      0.98
   15    8   11      0.78      0.60
   16    8   11      0.07     -0.08
    0    9   11      0.05     -1.34
    1    9   11      0.64     -0.72
   16    9   11      0.28     -0.18
    0   10   11      0.18     -0.03
    1   10   11     -0.10     -2.56
    2   10   11      0.88     -0.36
    3   10   11     -0.62     -0.86
   15   10   11     -0.46     -0.22
   16   10   11      0.01      0.03
    0   11   11     -0.01      0.00
    1   11   11      0.19      0.24
    3   11   11      0.48     -0.81
    4   11   11      0.36     -1.24
   15   11   11      0.62      0.10
   16   11   11     -0.30     -0.23
    0   12   11      1.64     -0.01
    1   12   11     -0.79     -1.59
    2   12   11      0.67      1.28
    4   12   11     -0.66     -1.04
    5   12   11     -0.95      1.68
   15   12   11      0.08     -0.74
   16   12   11     -0.23      0.20
    0   13   11      0.02      1.21
    1   13   11     -2.66     -1.04
    5   13   11     -0.04     -0.74
   15   13   11     -0.15      0.50
   16   13   11     -0.57      0.15
    0   14   11     -1.25     -0.01
    1   14   11      0.19      0.17
    2   14   11      0.08      1.87
   14   14   11     -0.66     -0.64
   15   14   11      0.37     -0.35
    0   15   11      0.01      0.27
    1   15   11     -1.14      0.41
    5   15   11      1.62      0.64
   14   15   11      0.03      0.62
   15   15   11      0.04     -0.08
    0   16   11     -0.22      0.01
    1   16   11      1.11      0.80
   14   16   11      0.11      0.70
   15   16   11      0.08     -0.34
   13   17   11      1.23      0.25
   14   17   11      0.47      0.19
   15   17   11      0.11      0.15
   13   18   11      0.29      1.04
   14   18   11      0.50      0.05
   13   19   11     -0.81     -0.63
   14   19   11      0.45      0.03
   12   20   11     -0.57     -0.67
   13   20   11     -0.02     -0.74
   14   20   11     -0.33     -0.14
   12   21   11     -0.66      0.05
   13   21   11      0.40     -0.33
   11   22   11      0.02      0.66
   12   22   11      0.77      0.49
   13   22   11      0.30      0.65
   11   23   11     -0.63      0.41
   12   23   11     -0.37      0.08
   10   24   11     -0.47      0.33
   11   24   11     -0.50     -0.75
   12   24   11     -0.24      0.43
    9   25   11     -0.25     -0.16
   10   25   11      0.13     -0.25
   11   25   11     -0.22      0.12
    9   26   11      0.03     -0.05
   10   26   11      0.31     -0.36
   11   26   11      0.31     -0.28
    8   27   11     -0.06     -0.17
    9   27   11      0.00      0.19
   10   27   11      0.26     -0.13
    7   28   11      0.02     -0.46
    8   28   11     -0.12     -0.14
    9   28   11      0.75      0.04
    5   29   11     -0.55      0.53
    6   29   11     -0.48      0.05
    7   29   11     -0.35      0.82
    8   29   11      0.18      0.18
    0   30   11      0.17      0.01
    3   30   11     -0.34      0.52
    4   30   11     -0.11      0.79
    5   30   11     -0.06     -0.32
    6   30   11      0.14      0.49
    7   30   11     -0.37     -0.66
    0   31   11      0.01     -0.07
    1   31   11     -0.27     -0.17
    2   31   11     -0.41     -0.18
    3   31   11     -0.39      0.35
    4   31   11      0.19     -0.06
    5   31   11     -0.18      0.13
    6   31   11     -0.53     -0.02
    0   32   11      0.16      0.01
    1   32   11      0.04      0.56
    2   32   11     -0.30      0.24
    3   32   11      0.14     -0.07
    4   32   11     -0.16     -0.13
    5   32   11     -0.23     -0.05
    1    0   12     -0.57      0.00
    2    0   12      0.86      0.01
    5    0   12      0.29      0.00
   16    0   12     -0.26     -0.01
    0    1   12      0.02      2.29
   16    1   12      0.10      0.44
    0    2   12      1.35      0.03
    3    2   12     -2.35      1.38
    4    2   12      0.33     -0.77
    5    2   12     -0.34     -0.63
    6    2   12     -1.51      1.64
    8    2   12     -0.02     -0.15
   10    2   12      1.09      1.10
   16    2   12      0.79     -0.02
    0    3   12      0.02     -2.18
    2    3   12      0.03      0.61
   10    3   12     -1.72      0.04
   16    3   12     -0.22     -0.46
    0    4   12      2.52     -0.03
    2    4   12      1.56     -1.36
    5    4   12      1.00      0.95
    9    4   12     -1.13     -0.79
   12    4   12      0.99     -1.50
   16    4   12     -0.43      0.00
    0    5   12      0.03     -2.91
    2    5   12     -2.18      0.77
    3    5   12      1.98      0.44
    4    5   12      0.93      2.95
    6    5   12      0.77     -0.34
    9    5   12      0.08      0.65
   15    5   12      0.10      0.58
   16    5   12      0.16     -0.03
    0    6   12     -2.99     -0.03
    2    6   12     -1.50     -0.85
    3    6   12     -0.70     -2.50
    5    6   12      0.98     -0.37
   15    6   12      0.12      0.74
   16    6   12      0.21     -0.27
    0    7   12     -0.04      4.84
    1    7   12      1.57      0.26
    3    7   12     -1.05      1.39
   13    7   12     -0.18      0.27
   14    7   12     -0.30      0.44
   15    7   12     -0.14      0.37
   16    7   12      0.53      0.26
    0    8   12     -1.09      0.00
    1    8   12     -0.09     -1.95
    2    8   12     -2.82     -1.02
   12    8   12      0.82     -0.95
   15    8   12      0.76      0.17
   16    8   12      0.00     -0.28
    0    9   12      0.00     -2.69
    1    9   12      0.82      1.09
   15    9   12      0.08      0.24
   16    9   12     -0.46     -0.43
    0   10   12     -1.23      0.03
    1   10   12      1.76     -0.18
    2   10   12      3.19     -0.06
    3   10   12      0.18      1.58
   15   10   12      0.02     -0.17
   16   10   12      0.51     -0.03
    0   11   12      0.00     -2.54
    1   11   12      0.70      1.13
   15   11   12     -0.90      0.03
   16   11   12     -0.26      0.35
    0   12   12     -1.30      0.03
    1   12   12      0.15      0.25
    3   12   12      1.10     -0.26
    4   12   12      0.43     -0.98
    5   12   12      1.06      2.87
   15   12   12     -1.09     -0.56
   16   12   12     -0.17      0.18
    0   13   12      0.04     -1.94
    1   13   12     -0.68     -0.07
    2   13   12     -0.44     -0.89
    4   13   12     -0.77     -0.44
   14   13   12     -0.49     -0.43
   15   13   12      0.33     -0.01
    0   14   12     -1.15     -0.06
    1   14   12     -1.45      0.33
    2   14   12     -2.10     -0.77
   14   14   12     -0.31      0.74
   15   14   12      0.25      0.42
    0   15   12      0.03      0.87
    1   15   12     -0.39      0.70
    2   15   12     -1.56      0.53
   14   15   12      0.51     -0.77
   15   15   12      0.20     -0.22
    0   16   12      2.86      0.03
    1   16   12     -0.36     -1.06
   14   16   12      0.35      1.23
   15   16   12      0.15     -0.32
   13   17   12      0.39     -0.61
   14   17   12     -0.66      0.62
   13   18   12      0.45      0.09
   14   18   12     -0.02      0.50
   13   19   12     -0.72      0.31
   14   19   12      0.37     -0.14
   12   20   12     -1.03      0.89
   13   20   12     -0.05      0.05
   12   21   12      0.43     -1.26
   13   21   12      0.11     -0.08
   11   22   12     -0.23     -0.28
   12   22   12     -0.21     -0.30
   10   23   12      0.28      0.22
   11   23   12     -0.88      0.47
   12   23   12     -0.57      1.18
   10   24   12     -0.01      0.26
   11   24   12     -0.48     -0.35
   12   24   12     -0.70     -0.22
    9   25   12     -0.02     -0.72
   10   25   12      0.30     -0.20
   11   25   12      0.29      0.21
    8   26   12      0.28     -0.89
    9   26   12     -0.57      0.02
   10   26   12     -0.36      0.02
    7   27   12      0.13     -0.23
    8   27   12      0.26     -0.33
    9   27   12     -0.16     -0.06
   10   27   12      0.05     -0.58
    6   28   12     -0.40      0.71
    7   28   12      0.59      0.10
    8   28   12      0.68      0.42
    9   28   12      0.16      0.15
    5   29   12      0.34      0.82
    6   29   12     -0.16     -0.69
    7   29   12      0.03      0.36
    8   29   12     -0.28     -0.24
    0   30   12     -1.06     -0.02
    1   30   12      0.25     -0.73
    2   30   12     -0.04     -0.07
    3   30   12     -0.52      0.36
    4   30   12     -0.33      0.88
    5   30   12     -0.34      0.27
    6   30   12     -0.29      0.47
    7   30   12      0.00     -0.13
    0   31   12     -0.02     -0.18
    1   31   12     -0.03      0.20
    2   31   12     -0.12     -0.13
    3   31   12     -0.51     -0.22
    4   31   12     -0.23      0.20
    5   31   12     -0.26      0.10
    6   31   12     -0.01     -0.20
    0   32   12      0.43      0.00
    1   32   12     -0.40     -0.11
    2   32   12      0.05     -0.23
    3   32   12     -0.63      0.35
    4   32   12     -0.40      0.23
    1    0   13      0.01      1.31
    7    0   13      0.01     -0.54
    8    0   13     -0.01     -0.59
   16    0   13      0.00      0.06
    0    1   13      0.02     -0.23
    2    1   13      0.71     -1.80
    3    1   13      3.54      0.11
   16    1   13      0.53     -0.01
    4    2   13      0.56     -3.76
    5    2   13      0.90     -1.58
   16    2   13     -0.33     -0.28
    2    3   13     -0.40     -0.33
    4    3   13     -0.61      2.77
   15    3   13      0.26     -0.33
   16    3   13      0.27      0.24
    2    4   13      1.37      0.36
    8    4   13     -2.04      0.93
    9    4   13      0.25     -0.75
   10    4   13     -0.80     -1.65
   16    4   13      0.00     -0.16
    0    5   13      0.01     -2.35
    2    5   13      0.68      1.26
    6    5   13      0.71      0.86
    9    5   13     -0.60      0.78
   15    5   13      0.25     -0.23
   16    5   13     -0.25     -0.13
    5    6   13      0.91      1.19
   13    6   13     -1.07     -0.64
   14    6   13     -0.47      1.35
   15    6   13      0.24      0.49
   16    6   13     -0.04      0.10
    0    7   13      0.06     -0.32
    3    7   13     -0.50     -1.39
   13    7   13     -0.70      0.44
   15    7   13     -0.26      0.39
   16    7   13     -0.25      0.30
    0    8   13      0.67      0.00
    2    8   13      0.17      0.26
   13    8   13      0.15     -1.03
   14    8   13     -0.78      0.01
   15    8   13      0.63      0.38
   16    8   13     -0.10      0.12
    0    9   13     -0.01      3.70
    1    9   13      0.14      0.65
    2    9   13      1.24     -1.17
   15    9   13     -0.17      0.52
   16    9   13      0.79     -0.59
    0   10   13     -0.62     -0.02
    1   10   13     -0.21     -0.38
    2   10   13      1.46      1.06
   15   10   13     -0.63      0.54
   16   10   13      0.41     -0.08
    0   11   13     -0.01     -1.87
    1   11   13      1.37      0.05
    2   11   13      0.63      0.89
    3   11   13     -0.64      1.63
   15   11   13      0.91      0.13
   16   11   13     -0.80      0.14
    0   12   13      0.49      0.02
    1   12   13      0.58     -2.65
    2   12   13     -0.06     -0.30
    5   12   13     -0.88      1.54
   15   12   13      0.07      0.03
    0   13   13      0.01      0.06
    1   13   13     -2.66     -0.44
    2   13   13     -0.15      3.15
   14   13   13     -0.21     -0.80
   15   13   13      0.16      0.05
    0   14   13     -3.53      0.00
    1   14   13     -0.46     -1.55
   14   14   13      0.20      0.00
   15   14   13      0.06     -0.94
    0   15   13      0.08     -0.73
    1   15   13     -0.01     -1.61
   14   15   13      0.78      0.19
   15   15   13     -0.03      0.03
   13   16   13     -0.91      0.25
   14   16   13     -0.83      0.66
   13   17   13      0.59     -0.17
   14   17   13      0.08      0.01
   13   18   13     -0.13      1.22
   14   18   13      0.64      0.76
   12   19   13      0.35      1.14
   13   19   13      0.10      0.15
   12   20   13      0.16     -0.78
   13   20   13      0.43     -1.00
   11   21   13     -0.41      1.61
   12   21   13     -0.06      0.11
   13   21   13     -0.37      0.19
   11   22   13     -0.93     -0.17
   12   22   13      0.48      0.43
   10   23   13      0.41     -0.63
   11   23   13      0.19     -0.45
   12   23   13     -0.44      0.07
   10   24   13     -0.49      0.75
   11   24   13      0.18     -0.02
    9   25   13     -1.10     -0.61
   10   25   13     -0.09      0.24
   11   25   13     -0.34      0.18
    8   26   13     -0.27     -0.26
    9   26   13      0.22     -0.18
   10   26   13      0.08      0.48
    7   27   13      0.90      0.53
    8   27   13      0.10     -0.21
    9   27   13      0.26      0.11
    6   28   13      0.22     -0.22
    7   28   13     -0.14      0.17
    8   28   13     -0.28     -0.36
    9   28   13     -0.04     -0.13
    4   29   13     -0.54      0.48
    5   29   13      0.64      0.03
    6   29   13      0.02      0.22
    7   29   13     -0.08     -0.03
    8   29   13      0.53      0.00
    0   30   13     -0.94      0.01
    1   30   13      0.39     -0.37
    2   30   13     -0.44      0.34
    3   30   13     -0.08     -0.10
    4   30   13     -0.58      0.54
    5   30   13     -0.19      0.36
    6   30   13     -0.31      0.31
    7   30   13     -0.01     -0.02
    0   31   13     -0.01     -0.67
    1   31   13     -0.28      0.18
    2   31   13     -0.32      0.08
    3   31   13     -0.72      0.31
    4   31   13     -0.15      0.32
    5   31   13      0.05      0.19
    0   32   13     -0.37      0.00
    1   32   13      0.15      0.01
    2   32   13     -0.09      0.19
    3   32   13     -0.19     -0.22
    4   32   13     -0.17      0.23
    1    0   14      1.42      0.00
    2    0   14      1.29     -0.01
    4    0   14      1.00      0.00
    5    0   14     -0.93     -0.01
    7    0   14      1.47      0.01
    8    0   14     -0.70     -0.01
    9    0   14     -0.64      0.00
   15    0   14      0.41     -0.01
   16    0   14     -0.30      0.00
    2    1   14     -1.88      1.26
    4    1   14      0.65     -0.95
    6    1   14      0.40     -1.08
   15    1   14     -0.38     -0.20
   16    1   14     -0.28      0.30
   14    2   14      0.21     -0.67
   15    2   14      0.05      0.09
   16    2   14      0.41      0.44
    0    3   14      0.03      2.93
    2    3   14     -1.07      0.90
    5    3   14      1.11     -1.01
    6    3   14     -0.82     -0.30
    7    3   14     -0.43      0.21
   14    3   14     -0.73     -0.59
   16    3   14      0.28     -0.07
    0    4   14      3.42     -0.01
    2    4   14      0.59     -0.20
    5    4   14     -0.37      0.67
   13    4   14     -0.57     -0.96
   14    4   14      0.47     -0.18
   15    4   14     -0.24      0.23
   16    4   14      0.06     -0.08
    0    5   14     -0.01     -0.58
    1    5   14      2.63     -0.71
    3    5   14     -0.85      0.22
    4    5   14     -0.50      2.84
   14    5   14     -0.19     -0.54
   15    5   14      0.22      0.15
   16    5   14      0.18     -0.52
    0    6   14      0.07      0.00
    1    6   14     -0.48      1.16
    2    6   14     -1.18      0.06
    3    6   14     -0.62      0.12
   12    6   14      0.46      0.67
   13    6   14     -0.37      2.03
   14    6   14      0.03     -0.10
   15    6   14     -0.49      0.59
   16    6   14      0.18      0.21
    0    7   14      0.01     -2.94
    1    7   14      1.18     -1.07
    2    7   14     -0.30     -1.18
    3    7   14      0.26      1.46
    4    7   14     -0.62      1.00
   11    7   14     -0.52      0.23
   15    7   14     -0.48      0.37
   16    7   14      0.37      0.74
    0    8   14     -0.49      0.03
    1    8   14      0.76      0.95
    2    8   14     -0.46     -2.05
    3    8   14     -1.62     -2.19
    4    8   14      0.60     -1.39
   12    8   14      1.14     -0.62
   13    8   14     -0.18     -0.88
   15    8   14      0.57      0.03
   16    8   14     -0.37     -0.04
    0    9   14      0.00     -1.56
    1    9   14      0.47      1.35
    2    9   14     -0.77     -1.08
   15    9   14     -0.21      0.38
   16    9   14      0.13      0.08
    1   10   14     -2.30     -0.36
    2   10   14      1.12     -2.43
    3   10   14      1.04      0.80
    5   10   14     -2.50     -0.70
   14   10   14      0.13     -0.03
   15   10   14     -0.63     -0.33
   16   10   14      0.63     -0.22
    0   11   14     -0.01     -0.45
    1   11   14      1.11     -0.04
    3   11   14     -0.58     -0.40
    4   11   14      2.06      0.45
   14   11   14      0.68      0.11
   15   11   14     -0.25     -0.45
    0   12   14      0.82      0.02
   14   12   14      0.63     -1.11
   15   12   14     -0.57     -0.17
    0   13   14     -0.01     -3.69
    1   13   14     -1.63     -0.11
   14   13   14     -0.52     -0.54
   15   13   14      0.76     -0.10
    0   14   14      0.59     -0.03
    1   14   14     -1.04     -1.06
   14   14   14     -0.19      0.36
   15   14   14      0.42      0.31
   13   15   14     -0.61      0.58
   14   15   14     -0.59     -0.22
   13   16   14      0.32     -0.38
   14   16   14     -0.06      0.36
   13   17   14     -0.84      1.08
   14   17   14     -0.50      0.46
   12   18   14      1.34     -1.40
   13   18   14      0.38     -0.60
   14   18   14      0.27      0.18
   12   19   14     -0.18      0.01
   13   19   14      0.23     -0.52
   12   20   14     -0.57      0.35
   13   20   14     -0.26      0.45
   11   21   14      0.24     -0.18
   12   21   14      0.21     -0.77
   10   22   14      0.36      0.46
   11   22   14     -0.55     -0.49
   12   22   14      0.22      0.08
   10   23   14     -0.27     -0.34
   11   23   14      0.09     -0.01
    9   24   14      0.19      0.20
   10   24   14     -0.36     -0.01
   11   24   14     -0.27     -0.14
    8   25   14      0.51      0.47
    9   25   14      0.13      0.02
   10   25   14      0.36     -0.06
    7   26   14      0.07      0.24
    8   26   14      0.47     -0.25
    9   26   14      0.17      0.20
   10   26   14      0.27      0.15
    6   27   14      0.89      0.31
    7   27   14     -0.21     -0.12
    8   27   14      0.13      0.31
    9   27   14     -0.45     -0.34
    5   28   14      0.60     -0.60
    6   28   14      0.24     -0.33
    7   28   14      0.21     -0.07
    8   28   14      0.51     -0.03
    0   29   14      0.00      0.11
    2   29   14      0.50      0.19
    3   29   14     -1.05      0.24
    4   29   14     -0.34      0.17
    5   29   14     -0.12      1.06
    6   29   14     -0.17     -0.29
    7   29   14      0.02      0.32
    0   30   14     -0.34     -0.02
    1   30   14      0.03     -0.22
    2   30   14      0.28     -0.27
    3   30   14      0.38      0.14
    4   30   14     -0.16      0.43
    5   30   14     -0.03      0.36
    6   30   14     -0.02     -0.07
    0   31   14     -0.02     -0.02
    1   31   14     -0.08      0.24
    2   31   14      0.34     -0.25
    3   31   14     -0.33      0.08
    4   31   14     -0.24     -0.19
    5   31   14     -0.17      0.10
    0   32   14     -0.17      0.00
    1   32   14     -0.04     -0.22
    2   32   14     -0.31      0.18
    3   32   14     -0.27     -0.11
    1    0   15      0.00     -0.98
    2    0   15     -0.02      3.66
    3    0   15      0.00      1.66
    4    0   15     -0.02     -2.75
    5    0   15      0.00     -1.59
    6    0   15     -0.01      0.76
    9    0   15     -0.01      0.32
   11    0   15      0.01      0.75
   13    0   15     -0.01      0.92
   14    0   15     -0.01      0.06
   15    0   15      0.01      0.27
   16    0   15      0.00      0.26
    4    1   15      0.88      1.37
   14    1   15     -0.09      0.02
   15    1   15     -0.24      0.26
   16    1   15      0.18     -0.09
    0    2   15      3.22      0.04
    3    2   15     -0.67      1.41
    4    2   15     -0.87     -2.02
   13    2   15      0.34     -0.36
   14    2   15     -0.11      0.02
   15    2   15      0.58      0.41
   16    2   15     -0.35      0.07
    0    3   15      0.01      1.63
    2    3   15     -1.18     -1.55
   13    3   15     -0.78     -1.05
   15    3   15      0.40     -0.45
   16    3   15      0.23      0.05
    0    4   15      4.23      0.04
    2    4   15      0.52      0.04
    6    4   15      1.08     -0.45
    9    4   15     -0.23     -0.32
   12    4   15      0.01      0.42
   13    4   15      0.29     -0.48
   14    4   15     -0.27     -0.20
   15    4   15      0.28     -0.88
   16    4   15     -0.04     -0.04
    0    5   15      0.08      2.43
   12    5   15     -0.79      0.65
   14    5   15     -0.73      0.20
   15    5   15     -0.08     -0.32
   16    5   15     -0.23     -0.24
    0    6   15      1.17      0.01
    3    6   15      0.47      0.66
    4    6   15     -0.32      1.56
    7    6   15     -1.19      0.06
   13    6   15     -1.24     -0.19
   14    6   15     -0.62     -0.17
   15    6   15     -0.57      0.47
   16    6   15      0.24     -0.02
    1    7   15     -0.67      0.35
    2    7   15      0.28      0.41
    6    7   15      1.82      1.18
   10    7   15     -0.15      0.09
   13    7   15      0.26      0.21
   14    7   15      0.03     -0.15
   15    7   15      0.00      0.68
   16    7   15     -0.33     -0.13
    2    8   15      2.26      0.08
   14    8   15     -0.21      0.02
   15    8   15      0.37      0.30
   16    8   15      0.20      0.32
    0    9   15     -0.03     -0.23
    1    9   15     -0.17     -0.03
    4    9   15      0.90     -0.01
   14    9   15     -0.36     -1.29
   15    9   15     -0.34      0.33
    2   10   15     -0.01     -0.24
    3   10   15     -0.26      0.07
   14   10   15     -0.89     -0.60
   15   10   15     -0.18      0.05
    0   11   15      0.02      0.09
    2   11   15      1.56     -0.35
    3   11   15      0.57      0.32
   14   11   15     -0.09     -0.46
   15   11   15     -0.13     -0.71
   14   12   15      0.68     -0.16
   15   12   15     -0.30      0.22
    0   13   15     -0.01     -2.79
    1   13   15      1.36     -1.65
   14   13   15     -0.56     -0.35
   15   13   15      0.35      0.33
   13   14   15      0.58     -0.61
   14   14   15      0.80     -0.36
   13   15   15     -0.11      0.63
   14   15   15     -0.17     -0.20
   13   16   15     -0.68     -0.29
   14   16   15     -1.00      0.76
   13   17   15     -0.34     -0.55
   14   17   15     -0.29     -0.34
   12   18   15     -0.33      0.26
   13   18   15     -0.22      0.55
   12   19   15      0.35      0.16
   13   19   15      0.01      0.44
   11   20   15      0.20      0.41
   12   20   15      0.12     -0.68
   13   20   15     -0.08     -0.31
   11   21   15     -0.09      1.00
   12   21   15     -0.17      0.98
   10   22   15     -0.69     -0.27
   11   22   15     -0.46     -0.38
   12   22   15     -0.64      0.63
    9   23   15     -0.04     -0.45
   10   23   15     -0.43     -0.57
   11   23   15     -0.04     -0.84
    9   24   15      0.32     -0.47
   10   24   15      0.35      0.48
   11   24   15     -0.24     -0.13
    8   25   15      0.04     -0.10
    9   25   15     -0.28     -0.07
   10   25   15     -0.34     -0.23
    7   26   15      0.68      0.70
    8   26   15     -0.15     -0.32
    9   26   15      0.42     -0.32
    6   27   15      0.04     -0.03
    7   27   15     -0.19      0.56
    8   27   15      0.17     -0.01
    9   27   15      0.19      0.04
    4   28   15      0.13      0.32
    5   28   15      0.76     -0.07
    6   28   15      0.11      0.76
    7   28   15      0.06      0.15
    8   28   15      0.14      0.21
    0   29   15      0.02     -0.33
    1   29   15      0.22     -0.09
    2   29   15     -0.27     -0.41
    3   29   15      0.60     -0.40
    4   29   15     -0.32     -0.18
    5   29   15      0.46     -0.04
    6   29   15      0.18      0.03
    7   29   15     -0.16     -0.14
    0   30   15     -0.20     -0.01
    1   30   15     -0.02     -0.54
    2   30   15     -0.07     -0.12
    3   30   15     -0.38     -0.44
    4   30   15     -0.11     -0.31
    5   30   15     -0.38      0.04
    0   31   15     -0.03     -0.52
    1   31   15      0.00      0.26
    2   31   15     -0.04      0.20
    3   31   15     -0.35      0.22
    4   31   15      0.04      0.36
    0   32   15     -0.19     -0.03
    1   32   15     -0.32      0.16
    1    0   16     -3.47      0.01
    2    0   16     -2.29     -0.01
    3    0   16      0.81     -0.01
    4    0   16      1.78      0.00
    5    0   16      2.15     -0.01
    8    0   16     -1.09      0.00
    9    0   16      2.94     -0.01
   12    0   16      0.31     -0.01
   15    0   16     -0.19      0.00
   16    0   16      0.30      0.00
    0    1   16      0.04     -1.33
    3    1   16     -0.18     -0.88
    5    1   16     -1.38     -0.27
    7    1   16     -0.93      0.69
    8    1   16     -0.03     -0.95
    9    1   16      0.32     -0.14
   11    1   16      0.88      0.26
   12    1   16      0.75      0.30
   13    1   16     -0.34      0.50
   15    1   16     -0.17     -0.20
   16    1   16     -0.30      0.14
    0    2   16     -1.30      0.03
    3    2   16     -2.05      0.02
    4    2   16     -0.42     -0.60
   11    2   16      0.82     -0.36
   15    2   16      0.18     -0.04
   16    2   16     -0.02      0.08
    0    3   16     -0.02      2.11
    2    3   16     -0.76      0.53
   12    3   16      0.01     -0.92
   13    3   16      0.47     -0.45
   14    3   16      0.44     -0.08
   15    3   16     -0.40      0.43
   16    3   16     -0.23      0.39
    0    4   16     -0.10     -0.03
    2    4   16      1.12     -1.79
   10    4   16     -0.56     -0.79
   12    4   16      0.51     -0.25
   13    4   16     -0.09     -0.50
   14    4   16      0.03     -0.66
   15    4   16     -0.01      0.09
   16    4   16     -0.04      0.17
    0    5   16     -0.02      0.41
    1    5   16      1.42      0.80
    9    5   16      0.27     -0.19
   10    5   16     -0.01      0.49
   11    5   16     -0.06     -0.52
   12    5   16      0.00      0.14
   13    5   16     -0.91      0.06
   15    5   16     -0.57     -0.26
   16    5   16      0.07      0.07
    0    6   16      2.43      0.06
    2    6   16     -0.90      1.00
   15    6   16     -0.14     -0.59
   16    6   16     -0.07      0.21
    0    7   16      0.05     -0.53
    1    7   16      1.09     -0.50
    3    7   16      1.02     -0.24
    6    7   16     -1.84      0.24
   12    7   16     -0.62      0.67
   14    7   16     -0.45      0.27
   15    7   16     -0.34     -0.17
   16    7   16     -0.10      0.19
    0    8   16      1.68     -0.02
    1    8   16      0.67     -0.04
    2    8   16      0.28      1.69
    3    8   16     -0.69      0.05
   14    8   16     -0.03      0.07
   15    8   16     -0.30     -0.15
    0    9   16     -0.04     -2.22
    1    9   16     -1.06      0.35
    2    9   16      1.64      0.90
    3    9   16      0.47     -0.39
   13    9   16      0.54     -0.11
   14    9   16      0.48     -0.39
   15    9   16      0.01      0.24
    0   10   16     -0.55     -0.03
    4   10   16      1.04     -0.22
   14   10   16     -0.05      0.07
   15   10   16     -0.05      0.07
    1   11   16      0.18     -1.02
   14   11   16      0.21      0.15
   15   11   16     -0.16     -0.33
    0   12   16      2.15     -0.02
    1   12   16     -0.09      0.67
   14   12   16     -0.39      0.37
   15   12   16      0.20     -0.05
   13   13   16      1.00     -0.19
   14   13   16      0.35     -0.19
   13   14   16     -0.50      0.01
   14   14   16      0.64     -0.33
   13   15   16      0.17      0.09
   14   15   16     -0.61     -0.33
   13   16   16     -0.29     -0.44
   14   16   16     -0.08     -0.38
   12   17   16     -1.03      0.72
   13   17   16     -0.05      0.96
   12   18   16     -0.48     -0.17
   13   18   16     -0.07     -1.04
   11   19   16      0.56      0.01
   12   19   16      0.72     -0.46
   13   19   16      0.39     -0.54
   11   20   16      0.34      0.67
   12   20   16      0.55      0.37
   10   21   16      0.08      0.58
   11   21   16     -0.77     -0.13
   12   21   16      0.53      0.09
   10   22   16     -0.04     -0.11
   11   22   16     -0.16      0.06
    9   23   16      0.07      0.09
   10   23   16     -0.71     -0.38
   11   23   16      0.30      0.67
    8   24   16     -0.63     -0.55
    9   24   16      0.03     -0.24
   10   24   16     -0.37     -0.02
    7   25   16      0.15     -0.67
    8   25   16      0.46      0.18
    9   25   16     -0.19      0.04
   10   25   16      0.04     -0.01
    6   26   16     -0.17      0.89
    7   26   16     -0.28      0.57
    8   26   16      0.55      0.04
    9   26   16     -0.04      0.05
    5   27   16      0.66     -0.28
    6   27   16      0.78      0.81
    7   27   16      0.65      0.02
    8   27   16      0.21      0.42
    2   28   16      0.20     -0.35
    3   28   16      0.07     -0.32
    4   28   16     -0.01     -0.05
    5   28   16     -0.03      0.37
    6   28   16      0.08     -0.48
    7   28   16      0.16      0.07
    0   29   16      0.00     -0.58
    1   29   16     -0.67      0.01
    2   29   16      0.01      0.14
    3   29   16     -0.13      0.16
    4   29   16     -0.65     -0.09
    5   29   16     -0.13      0.61
    6   29   16     -0.12     -0.06
    0   30   16     -0.33      0.02
    1   30   16     -0.27     -0.16
    2   30   16      0.27     -0.10
    3   30   16     -0.01     -0.12
    4   30   16      0.34      0.16
    5   30   16     -0.09      0.25
    0   31   16     -0.01     -0.12
    1   31   16      0.16      0.17
    2   31   16      0.01     -0.23
    3   31   16      0.03     -0.06
    2    0   17      0.02     -0.36
    3    0   17      0.00      0.25
    4    0   17      0.00     -0.82
    5    0   17      0.00      1.63
    6    0   17      0.01      1.22
    7    0   17      0.01     -0.14
    8    0   17      0.01      0.40
   13    0   17      0.00     -0.19
   14    0   17      0.00      0.26
   15    0   17      0.01     -0.36
   16    0   17      0.00      0.04
    3    1   17      0.03     -1.20
    4    1   17      2.35      0.30
    5    1   17      1.18      0.21
    8    1   17      1.87      0.01
    9    1   17      0.38     -0.01
   14    1   17     -0.42      0.27
   15    1   17     -0.03      0.01
   16    1   17      0.01      0.28
   11    2   17      0.76     -0.07
   12    2   17      0.33      0.50
   13    2   17     -0.20     -0.47
   14    2   17     -0.19      0.09
   15    2   17      0.18      0.26
   16    2   17      0.44      0.17
    1    3   17     -0.13      1.82
    2    3   17     -0.41      1.32
    4    3   17     -0.74     -2.00
   11    3   17      0.42     -0.62
   15    3   17      0.24      0.36
   16    3   17      0.36      0.06
    0    4   17     -0.92     -0.02
    1    4   17     -1.09     -0.46
    2    4   17      1.43      1.10
    3    4   17      0.23     -0.21
   11    4   17      0.01      0.01
   12    4   17     -0.93     -0.72
   13    4   17      0.67      0.11
   15    4   17      0.13     -0.01
   16    4   17     -0.14     -0.36
    0    5   17      0.07      1.79
    1    5   17      0.12     -0.84
   12    5   17     -0.79      1.14
   13    5   17      0.75      0.13
   14    5   17     -0.12     -0.02
   15    5   17      0.10     -0.25
    0    6   17      0.70     -0.01
    2    6   17      0.87      0.01
    4    6   17     -1.05     -0.03
    5    6   17     -1.68     -0.24
   11    6   17      0.40     -0.45
   14    6   17     -0.74     -0.20
   15    6   17     -0.48      0.30
    0    7   17     -0.05      0.00
    1    7   17      1.46      1.99
    3    7   17      0.20      0.86
    4    7   17      0.41     -0.47
   11    7   17     -0.80     -0.15
   13    7   17     -0.36     -0.06
   14    7   17      0.23     -0.87
   15    7   17     -0.18      0.27
    0    8   17     -0.86      0.03
    1    8   17      0.33     -0.03
    3    8   17      2.53      1.34
    7    8   17     -0.69      0.30
   14    8   17      0.72      0.07
   15    8   17      0.20     -0.30
    1    9   17      2.15      0.87
    2    9   17     -0.75      1.09
    3    9   17     -1.07     -2.65
   14    9   17     -0.21     -0.21
   15    9   17      0.23      0.27
    0   10   17      0.09     -0.05
    2   10   17     -0.89     -0.71
   14   10   17      0.06     -0.35
   15   10   17     -0.07     -0.11
   14   11   17      0.87      0.22
   15   11   17     -0.21     -0.26
   13   12   17      0.26      0.29
   14   12   17      0.19     -0.04
   13   13   17      0.13      0.15
   14   13   17     -0.45     -0.02
   13   14   17      0.57     -0.74
   14   14   17      0.45     -0.47
   13   15   17      0.29     -0.09
   14   15   17     -0.05     -0.02
   12   16   17     -0.56     -0.37
   13   16   17     -0.56      0.25
   12   17   17      0.63     -0.57
   13   17   17     -0.18     -0.30
   11   18   17      0.19      0.26
   12   18   17      0.42      0.04
   13   18   17      0.07     -0.10
   11   19   17      0.02     -1.31
   12   19   17     -0.44     -0.14
   10   20   17      0.64      0.04
   11   20   17      0.83     -0.22
   12   20   17     -0.20     -0.20
   10   21   17      0.46     -0.03
   11   21   17      0.17      0.13
    9   22   17      0.09     -0.83
   10   22   17     -0.11      0.07
   11   22   17      0.00     -0.19
    8   23   17     -0.53      0.43
    9   23   17      0.11      0.15
   10   23   17     -0.24     -0.03
    8   24   17     -0.06      0.43
    9   24   17      0.00      0.09
   10   24   17      0.20     -0.06
    7   25   17      0.74      0.33
    8   25   17      0.02     -0.47
    9   25   17      0.14      0.30
    5   26   17     -0.07      0.37
    6   26   17      0.64     -0.51
    7   26   17      0.46     -0.20
    8   26   17      0.16     -0.22
    4   27   17      0.88      0.70
    5   27   17      0.10      0.16
    6   27   17      0.26      0.55
    7   27   17     -0.07      0.11
    8   27   17      0.27      0.46
    0   28   17     -0.27      0.00
    1   28   17      0.05      0.76
    2   28   17     -0.11      0.52
    3   28   17      0.59      0.28
    4   28   17     -0.06      0.28
    5   28   17      0.44      0.20
    6   28   17      0.12      0.29
    7   28   17     -0.32      0.49
    0   29   17      0.02     -0.26
    1   29   17      0.06      0.09
    2   29   17      0.27     -0.03
    3   29   17     -0.05      0.04
    4   29   17      0.14     -0.01
    5   29   17      0.30      0.06
    0   30   17     -0.20     -0.02
    1   30   17      0.24     -0.33
    2   30   17     -0.23     -0.46
    3   30   17     -0.16     -0.08
    4   30   17      0.02     -0.01
    0   31   17      0.00     -0.25
    1   31   17      0.00     -0.06
    0    0   18     -2.01      0.03
    3    0   18     -0.48     -0.01
    7    0   18      2.27     -0.02
    8    0   18      0.28      0.00
   10    0   18      0.01      0.00
   14    0   18     -0.32      0.01
   15    0   18     -0.06      0.00
    6    1   18      0.19      0.52
    9    1   18      0.45      1.99
   10    1   18     -0.24      0.38
   11    1   18     -0.12     -0.27
   14    1   18     -0.17      0.09
   15    1   18      0.29     -0.20
    3    2   18     -0.85     -1.39
    9    2   18     -0.88     -0.43
   13    2   18     -0.34      0.16
   14    2   18     -0.39     -0.05
   15    2   18      0.08     -0.24
    2    3   18      0.35      0.48
    9    3   18      0.47     -1.61
   12    3   18      0.26      0.12
   13    3   18     -0.18     -0.31
   14    3   18      0.59     -0.25
   15    3   18      0.08     -0.06
    0    4   18     -0.33     -0.01
    6    4   18     -0.42     -0.33
   10    4   18      0.99     -1.25
   13    4   18      0.31     -0.35
   14    4   18      0.85      0.03
   15    4   18     -0.12     -0.33
    1    5   18     -0.53      0.89
    3    5   18     -1.30      0.81
    4    5   18     -2.08     -2.01
    9    5   18      1.72     -0.23
   10    5   18     -0.17      0.04
   13    5   18     -0.53     -0.08
   14    5   18      0.31      0.16
   15    5   18     -0.13     -0.18
    0    6   18     -1.54      0.04
    1    6   18      0.96      0.05
    3    6   18      0.06      0.27
    4    6   18      0.17      0.53
    7    6   18     -0.33     -0.32
    9    6   18     -0.21      1.35
   14    6   18     -0.16     -0.21
   15    6   18      0.23     -0.73
    0    7   18      0.08      0.96
    1    7   18      0.77     -0.16
    2    7   18     -1.22     -0.65
    3    7   18     -0.96      0.23
    6    7   18     -2.03     -1.97
   10    7   18     -1.05      0.05
   12    7   18     -0.20      1.14
   14    7   18      0.04      0.54
   15    7   18      0.11     -0.22
    0    8   18      3.72     -0.04
   13    8   18     -0.06     -1.53
   14    8   18     -0.14      0.25
   15    8   18     -0.10     -0.02
    0    9   18     -0.05     -1.02
   14    9   18      0.25     -0.54
   15    9   18      0.23      0.24
   13   10   18      0.23      1.11
   14   10   18      0.58      0.38
   13   11   18     -0.73      0.60
   14   11   18     -0.53      0.20
   13   12   18      0.35     -0.39
   14   12   18     -0.30      0.32
   13   13   18      0.20      0.21
   14   13   18      0.30     -0.21
   12   14   18     -0.31      0.12
   13   14   18     -0.38      0.16
   14   14   18      0.15     -0.01
   12   15   18     -0.35     -0.60
   13   15   18      0.03     -0.33
   12   16   18      0.51      0.05
   13   16   18      0.09     -0.13
   11   17   18     -0.12     -0.18
   12   17   18     -0.28     -0.31
   13   17   18      0.41     -0.13
   11   18   18     -0.25      0.01
   12   18   18     -0.15     -0.19
   10   19   18      0.91      0.99
   11   19   18      0.46      0.37
   12   19   18      0.42     -0.59
   10   20   18     -0.22     -0.74
   11   20   18      0.10      0.02
    9   21   18      0.98     -0.54
   10   21   18      0.24     -0.45
   11   21   18     -0.42     -0.20
    9   22   18      0.08      0.04
   10   22   18      0.18      0.00
   11   22   18      0.34     -0.27
    8   23   18      0.21     -0.23
    9   23   18      0.42      0.20
   10   23   18      0.03     -0.15
    7   24   18     -0.23     -0.28
    8   24   18     -0.22      0.10
    9   24   18     -0.57     -0.17
    6   25   18     -0.29     -0.29
    7   25   18     -0.09     -0.22
    8   25   18      0.20     -0.42
    9   25   18     -0.14      0.16
    4   26   18      0.73      0.01
    5   26   18      0.92      0.40
    6   26   18     -0.03      0.34
    7   26   18      0.04      0.36
    8   26   18      0.23      0.39
    1   27   18     -0.22      0.06
    2   27   18      0.85      0.31
    3   27   18      0.39      0.26
    4   27   18     -0.07     -0.41
    5   27   18      0.27     -0.34
    6   27   18      0.10     -0.01
    7   27   18      0.54     -0.02
    0   28   18      0.45      0.00
    1   28   18     -0.19      0.33
    2   28   18      0.07      0.09
    3   28   18      0.37     -0.05
    4   28   18     -0.01      0.10
    5   28   18      0.14      0.54
    6   28   18      0.04     -0.04
    0   29   18      0.00      0.19
    1   29   18     -0.27     -0.40
    2   29   18     -0.08      0.32
    3   29   18     -0.23      0.13
    4   29   18      0.19      0.27
    5   29   18     -0.24     -0.08
    0   30   18      0.20      0.00
    1   30   18      0.08     -0.12
    2   30   18      0.33     -0.07
    3   30   18     -0.04      0.08
    3    0   19      0.01      0.61
    4    0   19     -0.01     -0.02
    6    0   19      0.00     -1.09
    8    0   19      0.00      1.22
    9    0   19      0.00      0.44
   10    0   19     -0.01      0.91
   11    0   19     -0.01      1.99
   12    0   19      0.02     -0.50
   14    0   19      0.01     -0.24
   15    0   19      0.00      0.03
    0    1   19     -0.04      2.32
    2    1   19     -1.64     -0.91
   10    1   19     -0.52      0.63
   11    1   19     -0.82     -0.78
   12    1   19     -0.15     -0.24
   13    1   19     -0.22      0.08
   14    1   19     -0.43     -0.03
   15    1   19     -0.24      0.09
    0    2   19     -3.31      0.06
    8    2   19      1.60     -0.33
    9    2   19     -0.13      0.40
   10    2   19     -1.41     -0.58
   11    2   19      0.93     -0.24
   12    2   19      0.02      0.33
   14    2   19     -0.52     -0.11
   15    2   19     -0.11      0.17
    0    3   19      0.04     -0.23
    1    3   19     -0.52      0.97
    2    3   19      0.11      3.78
    5    3   19      0.72     -0.39
    8    3   19     -0.84     -1.89
    9    3   19      0.30     -1.34
   10    3   19     -0.82     -1.44
   12    3   19      0.33     -1.26
   14    3   19     -0.06     -0.40
   15    3   19     -0.02     -0.19
    0    4   19     -0.70     -0.03
    8    4   19      0.32      0.88
   12    4   19     -0.78     -0.56
   14    4   19     -0.29     -0.15
   15    4   19     -0.22      0.04
    0    5   19      0.05      1.31
    7    5   19      0.03     -1.06
    8    5   19     -1.14      0.83
   11    5   19      0.81     -0.70
   14    5   19      0.38     -0.35
   15    5   19      0.05     -0.34
    0    6   19      0.17      0.00
    1    6   19     -1.70     -0.17
    7    6   19     -0.35     -0.07
   11    6   19      0.47     -0.52
   13    6   19     -0.59      0.82
   14    6   19      0.40      0.08
   15    6   19     -0.16      0.43
    5    7   19     -1.15      0.69
    9    7   19     -1.18     -1.96
   12    7   19      0.09     -0.69
   14    7   19     -0.19     -0.10
   15    7   19      0.00     -0.01
   13    8   19      0.51      0.70
   14    8   19     -0.04      0.28
   13    9   19      0.45      0.54
   14    9   19      0.16     -0.13
   13   10   19      0.07     -0.02
   14   10   19     -0.19      0.38
   13   11   19     -0.44      0.33
   14   11   19      0.30      0.08
   13   12   19     -0.38      0.70
   14   12   19      0.23      0.16
   12   13   19     -0.06     -0.84
   13   13   19      0.04      0.26
   14   13   19     -0.15      0.18
   12   14   19      0.35     -0.15
   13   14   19      0.11     -0.44
   12   15   19      0.10     -0.14
   13   15   19      0.03      0.30
   11   16   19     -0.21     -0.10
   12   16   19     -0.59     -0.13
   13   16   19     -0.20      0.21
   11   17   19      0.03      0.07
   12   17   19      0.51     -0.08
   10   18   19     -0.15      0.09
   11   18   19      0.63      0.11
   12   18   19      0.51     -0.15
   10   19   19     -0.61      0.00
   11   19   19      0.05     -0.52
   12   19   19     -0.13      0.07
    9   20   19      0.68      0.28
   10   20   19      0.39     -0.42
   11   20   19     -0.03      0.06
    9   21   19     -0.26      0.08
   10   21   19      0.53      0.31
   11   21   19      0.42      0.19
    8   22   19      0.24     -0.21
    9   22   19      0.24     -0.54
   10   22   19      0.03     -0.15
    7   23   19     -0.05     -0.26
    8   23   19     -0.61      0.39
    9   23   19      0.30     -0.08
    6   24   19     -0.02      0.01
    7   24   19     -0.21     -0.03
    8   24   19      0.26      0.35
    9   24   19     -0.20      0.21
    5   25   19      0.31     -0.32
    6   25   19     -0.07      0.03
    7   25   19      0.44      0.37
    8   25   19      0.02     -0.03
    3   26   19      0.36     -0.45
    4   26   19      0.00      0.13
    5   26   19     -0.99      0.14
    6   26   19      0.31     -0.16
    7   26   19     -0.18     -0.33
    0   27   19      0.01      0.73
    1   27   19      0.60      0.13
    2   27   19      0.02      0.09
    3   27   19      0.38      0.02
    4   27   19      0.05      0.06
    5   27   19      0.03      0.54
    6   27   19     -0.02      0.40
    0   28   19     -0.07      0.00
    1   28   19     -0.07      0.48
    2   28   19     -0.36      0.23
    3   28   19      0.53      0.05
    4   28   19      0.35      0.01
    5   28   19      0.30     -0.09
    0   29   19      0.00      0.32
    1   29   19      0.00      0.03
    2   29   19      0.14     -0.09
    3   29   19      0.16      0.28
    0    0   20      1.17      0.04
    8    0   20     -0.01      0.00
   11    0   20     -0.88      0.00
   13    0   20     -0.27      0.00
   14    0   20     -0.33      0.00
   15    0   20      0.17      0.01
    0    1   20      0.01     -1.66
   12    1   20      0.31     -0.05
   13    1   20     -0.25     -0.26
   14    1   20      0.09      0.07
   15    1   20      0.12     -0.02
    1    2   20     -0.12      0.93
    8    2   20      0.22     -0.48
    9    2   20     -1.31      0.64
   11    2   20      0.48     -0.44
   12    2   20     -0.40     -0.48
   14    2   20      0.10     -0.16
   15    2   20      0.29      0.24
    1    3   20     -1.71     -1.04
    7    3   20      1.37     -0.58
    9    3   20     -0.15      0.31
   11    3   20     -0.36     -0.94
   12    3   20     -0.14     -0.18
   14    3   20     -0.18     -0.25
   15    3   20     -0.08      0.14
   11    4   20      0.42     -1.57
   14    4   20      0.13      0.08
   15    4   20      0.49     -0.25
    6    5   20     -1.33      0.50
   13    5   20     -0.25     -0.24
   14    5   20     -0.19      0.33
    9    6   20     -0.31      0.74
   13    6   20     -0.25      0.02
   14    6   20      0.12      0.39
   13    7   20      0.60      0.30
   14    7   20      0.16      0.54
   13    8   20     -0.59     -0.04
   14    8   20     -0.33     -0.09
   13    9   20     -0.31     -0.15
   14    9   20     -0.28     -0.29
   13   10   20      0.01      0.05
   14   10   20      0.08      0.30
   12   11   20     -0.10      0.48
   13   11   20     -0.11      1.03
   14   11   20     -0.72      0.41
   12   12   20     -0.67     -0.03
   13   12   20      0.01     -0.59
   12   13   20      0.28      0.10
   13   13   20      0.16     -0.38
   12   14   20      0.13      0.03
   13   14   20     -0.04      0.19
   11   15   20      0.76      0.02
   12   15   20     -0.33     -0.11
   13   15   20      0.06      0.02
   11   16   20      0.57      0.35
   12   16   20      0.61      0.23
   10   17   20      0.03      0.27
   11   17   20     -0.21      1.23
   12   17   20      0.04      0.29
   10   18   20     -0.07     -0.23
   11   18   20     -0.40      0.01
   12   18   20      0.10     -0.23
    9   19   20     -0.20     -0.33
   10   19   20      0.67     -0.11
   11   19   20      0.34      0.20
    9   20   20      0.02      1.49
   10   20   20      0.04      0.35
   11   20   20      0.11      0.10
    8   21   20      0.07     -0.22
    9   21   20      0.02     -0.30
   10   21   20      0.11     -0.14
    7   22   20     -0.47     -0.16
    8   22   20      0.27      0.31
    9   22   20      0.18      0.18
   10   22   20      0.12     -0.13
    6   23   20      0.14      0.51
    7   23   20     -0.18     -0.10
    8   23   20     -0.50      0.07
    9   23   20      0.08     -0.46
    5   24   20      0.00     -0.80
    6   24   20      0.68      0.07
    7   24   20      0.37      0.11
    8   24   20      0.35     -0.01
    3   25   20      0.11     -0.34
    4   25   20     -0.62      0.69
    5   25   20     -0.28      0.22
    6   25   20     -0.24      0.24
    7   25   20     -0.15     -0.13
    0   26   20      0.53     -0.02
    1   26   20      0.70     -0.22
    2   26   20      0.30      0.11
    3   26   20     -0.06     -0.26
    4   26   20     -0.34     -0.12
    5   26   20      0.25      0.37
    6   26   20      0.22      0.54
    7   26   20     -0.36      0.12
    0   27   20      0.01      0.16
    1   27   20     -0.57     -0.12
    2   27   20      0.50      0.19
    3   27   20      0.23      0.47
    4   27   20      0.42     -0.23
    5   27   20      0.13     -0.05
    0   28   20     -0.16      0.02
    1   28   20     -0.05      0.39
    2   28   20     -0.23     -0.19
    3   28   20     -0.17     -0.09
    4   28   20      0.09      0.08
    0   29   20      0.01      0.66
    1   29   20      0.18     -0.11
    2   29   20      0.06     -0.01
    2    0   21     -0.01     -1.05
   10    0   21      0.01     -1.20
   12    0   21      0.00     -0.07
   13    0   21      0.01     -0.25
   14    0   21      0.00     -0.42
    0    1   21     -0.01      1.06
   10    1   21     -0.45      0.80
   11    1   21      0.10     -0.38
   13    1   21      0.57     -0.21
   14    1   21      0.05     -0.06
    3    2   21     -0.77     -0.15
    4    2   21     -0.44      0.41
    6    2   21     -0.03     -0.80
   12    2   21     -0.29      0.32
   13    2   21      0.25     -0.21
   14    2   21     -0.37     -0.05
    8    3   21      0.05      0.15
    9    3   21      0.72     -0.72
   13    3   21     -0.27     -0.46
   14    3   21      0.25     -0.21
    1    4   21     -1.51     -0.78
    7    4   21     -0.54      0.19
   10    4   21      0.37     -0.68
   11    4   21      0.29     -0.58
   13    4   21     -0.44     -0.08
   14    4   21     -0.20     -0.38
    0    5   21      0.03      2.46
    7    5   21      0.77     -0.97
   12    5   21      0.82     -0.90
   13    5   21     -0.05      0.22
   14    5   21      0.43     -0.74
   13    6   21      0.63     -0.25
   14    6   21      0.47      0.27
   13    7   21     -0.15     -0.54
   14    7   21     -0.79      0.28
   13    8   21      0.38      0.44
   14    8   21      0.35      0.06
   12    9   21     -0.95      1.30
   13    9   21     -0.30      0.80
   14    9   21      0.18     -0.08
   12   10   21     -0.49     -0.23
   13   10   21     -0.43      0.00
   12   11   21      0.10      0.05
   13   11   21     -0.36      0.15
   12   12   21     -0.15      0.45
   13   12   21     -0.04      0.30
   11   13   21     -0.14     -0.78
   12   13   21     -0.27     -1.01
   13   13   21      0.01     -0.16
   11   14   21      0.04     -0.40
   12   14   21      0.16     -0.41
   11   15   21      0.00      0.55
   12   15   21      0.41     -0.29
   10   16   21      0.15      0.50
   11   16   21     -0.05      0.34
   12   16   21     -0.03      0.39
   10   17   21      0.03     -0.33
   11   17   21      0.38      0.00
    9   18   21      0.40      0.18
   10   18   21     -0.42      0.23
   11   18   21      0.11     -0.12
    9   19   21     -0.25      0.52
   10   19   21     -0.10      0.22
   11   19   21     -0.02      0.02
    8   20   21     -0.53      0.03
    9   20   21      0.26      0.01
   10   20   21      0.59     -0.12
    7   21   21     -0.43     -0.32
    8   21   21      0.36      0.39
    9   21   21      0.28      0.08
   10   21   21      0.31      0.25
    6   22   21      1.11     -0.27
    7   22   21     -0.34     -0.29
    8   22   21     -0.72     -0.37
    9   22   21     -0.22      0.20
    5   23   21     -0.17      0.95
    6   23   21      0.35     -0.44
    7   23   21      0.30     -0.18
    8   23   21      0.01      0.31
    4   24   21      0.74      0.00
    5   24   21      0.08      0.32
    6   24   21     -0.18      0.04
    7   24   21      0.06      0.26
    8   24   21      0.04     -0.41
    0   25   21      0.01      0.19
    1   25   21      0.14      0.15
    2   25   21      0.29     -0.22
    3   25   21     -0.65      0.31
    4   25   21     -0.02      0.22
    5   25   21      0.05     -0.08
    6   25   21      0.00      0.25
    7   25   21      0.50      0.36
    0   26   21     -0.78     -0.02
    1   26   21      0.01      0.49
    2   26   21     -0.07      0.54
    3   26   21      0.35      0.14
    4   26   21      0.18      0.02
    5   26   21     -0.09     -0.19
    6   26   21     -0.10     -0.21
    0   27   21      0.01      0.04
    1   27   21      0.31      0.46
    2   27   21     -0.10     -0.15
    3   27   21      0.11      0.18
    4   27   21     -0.05      0.48
    0   28   21      0.10      0.00
    1   28   21      0.36     -0.15
    2   28   21      0.08      0.03
    3   28   21      0.13     -0.06
    5    0   22      0.41     -0.01
    8    0   22      0.04     -0.01
   10    0   22      0.59      0.00
   12    0   22      0.84      0.02
   13    0   22     -0.33      0.01
   14    0   22     -0.13      0.00
    2    1   22     -0.51      0.24
    9    1   22     -0.57     -1.37
   11    1   22     -0.33      0.21
   12    1   22      0.08     -0.13
   13    1   22      0.00     -0.12
   14    1   22      0.19      0.15
    4    2   22     -0.70      0.12
    8    2   22      1.01     -1.47
    9    2   22     -0.99      0.64
   11    2   22      1.05      0.88
   12    2   22      0.03     -0.45
   13    2   22     -0.01     -0.12
   14    2   22      0.14     -0.14
    8    3   22      0.60      0.60
    9    3   22      0.01      0.83
   10    3   22     -0.14      0.20
   13    3   22     -0.20     -0.07
   14    3   22     -0.21     -0.07
    9    4   22     -1.19      0.96
   13    4   22      0.37     -0.75
   14    4   22     -0.40     -0.38
    6    5   22     -1.83     -0.98
    8    5   22     -1.14     -1.03
   13    5   22     -0.07     -0.41
   14    5   22      0.04      0.14
   10    6   22     -1.07     -1.21
   12    6   22      0.53      0.02
   13    6   22     -0.07     -0.58
   14    6   22     -0.44     -0.17
   12    7   22      0.85      0.17
   13    7   22      0.59     -0.08
   14    7   22     -0.03     -0.26
   12    8   22     -0.01      0.32
   13    8   22      0.08      0.06
   12    9   22     -0.28      0.41
   13    9   22      0.17     -0.43
   12   10   22     -0.58      0.58
   13   10   22     -0.32      0.14
   12   11   22     -0.33      0.09
   13   11   22     -0.08      0.58
   11   12   22     -0.57     -1.24
   12   12   22     -0.85     -0.04
   13   12   22     -0.49     -0.17
   11   13   22      0.36      0.21
   12   13   22      0.52     -0.08
   11   14   22      0.42     -0.16
   12   14   22     -0.42     -0.03
   10   15   22     -0.41     -0.57
   11   15   22      0.20     -0.09
   12   15   22     -0.55     -0.25
   10   16   22      0.19      0.12
   11   16   22     -0.17      0.11
    9   17   22     -0.46     -0.26
   10   17   22     -0.08     -0.38
   11   17   22     -0.37      0.86
    9   18   22      0.05     -0.61
   10   18   22      0.01      0.07
   11   18   22     -0.71      0.26
    8   19   22      0.17     -0.01
    9   19   22      0.01      0.43
   10   19   22     -0.25     -0.23
    7   20   22      0.35      0.05
    8   20   22     -0.10     -0.84
    9   20   22      0.13      0.18
   10   20   22      0.28      0.10
    6   21   22      0.62     -1.23
    7   21   22     -0.20     -1.10
    8   21   22      0.02      0.30
    9   21   22     -0.24      0.08
    5   22   22      1.17      0.39
    6   22   22     -0.53      0.12
    7   22   22     -0.20     -0.06
    8   22   22      0.45      0.13
    4   23   22     -0.50     -0.33
    5   23   22      0.41     -0.11
    6   23   22     -0.11     -0.16
    7   23   22     -0.22     -0.09
    8   23   22     -0.23      0.42
    0   24   22      0.55     -0.01
    1   24   22      0.24      0.00
    2   24   22      0.10     -0.14
    3   24   22      0.28      0.32
    4   24   22     -0.11      1.05
    5   24   22     -0.21     -0.40
    6   24   22      0.47      0.49
    7   24   22     -0.17      0.08
    0   25   22     -0.01     -0.04
    1   25   22      0.41      0.50
    2   25   22      0.41      0.11
    3   25   22      0.47     -0.48
    4   25   22      0.09     -0.17
    5   25   22      0.11     -0.02
    6   25   22      0.25      0.13
    0   26   22      0.29      0.00
    1   26   22      0.42      0.06
    2   26   22      0.52      0.29
    3   26   22     -0.34      0.07
    4   26   22     -0.34     -0.16
    5   26   22     -0.19      0.32
    0   27   22      0.01      0.09
    1   27   22     -0.24     -0.06
    2   27   22      0.34     -0.36
    3   27   22     -0.03      0.26
    5    0   23     -0.01      2.17
    6    0   23      0.00     -0.24
    7    0   23      0.01     -2.02
    9    0   23     -0.02      0.68
   10    0   23      0.00     -1.70
   11    0   23     -0.02      0.55
   12    0   23     -0.01     -0.14
   13    0   23     -0.01     -0.06
   14    0   23      0.00      0.21
    2    1   23      0.40     -0.03
    7    1   23      0.60     -1.65
    8    1   23     -0.48     -0.01
   10    1   23     -0.16      2.02
   11    1   23      0.07     -1.46
   12    1   23      0.06      0.09
   13    1   23      0.36     -0.18
   14    1   23      0.22     -0.07
    5    2   23      0.30     -0.70
    7    2   23      0.50     -0.51
   12    2   23     -0.09      0.51
   13    2   23      0.10      0.25
   14    2   23     -0.30      0.20
   11    3   23     -0.93      0.23
   12    3   23      0.44     -0.27
   13    3   23      0.02     -0.21
    8    4   23      0.56      0.41
   12    4   23      0.10      0.27
   13    4   23     -0.46     -0.20
   12    5   23      0.51     -0.55
   13    5   23     -0.19     -0.17
   12    6   23     -0.11     -0.11
   13    6   23      0.63     -0.26
   12    7   23     -0.18     -0.61
   13    7   23     -0.05      0.26
   12    8   23      0.15     -0.67
   13    8   23     -0.10     -0.27
   11    9   23      0.96      0.49
   12    9   23      0.37      0.71
   13    9   23      0.07      0.58
   11   10   23     -0.59      1.02
   12   10   23     -0.49      0.10
   13   10   23     -0.42      0.19
   11   11   23     -0.88      0.29
   12   11   23     -0.80      0.45
   11   12   23      0.61      0.15
   12   12   23      0.33     -0.10
   10   13   23      0.37      0.79
   11   13   23     -0.65     -0.24
   12   13   23      0.15     -0.33
   10   14   23      0.48      0.28
   11   14   23     -0.25     -0.51
   12   14   23     -0.11      0.12
    9   15   23     -0.37      0.12
   10   15   23     -0.43     -0.10
   11   15   23     -0.04      0.17
    9   16   23      0.61     -0.14
   10   16   23     -0.44      0.15
   11   16   23      0.14      0.06
    8   17   23     -0.42      0.06
    9   17   23     -0.01      0.31
   10   17   23     -0.64     -0.35
    8   18   23      0.07      1.22
    9   18   23     -0.14     -0.18
   10   18   23      0.08      0.11
    7   19   23      0.08     -1.01
    8   19   23     -0.61     -0.75
    9   19   23     -0.34      0.12
   10   19   23     -0.34      0.01
    6   20   23      0.07     -1.04
    7   20   23     -0.27     -0.38
    8   20   23     -0.73     -0.19
    9   20   23     -0.34      0.04
    5   21   23      0.23     -0.93
    6   21   23      0.58     -0.01
    7   21   23      0.23      0.47
    8   21   23      0.64     -0.24
    4   22   23     -0.04      0.59
    5   22   23     -0.30     -0.06
    6   22   23      0.12     -0.53
    7   22   23      0.00      0.19
    8   22   23     -0.15     -0.56
    1   23   23      0.33     -0.47
    2   23   23     -0.13      0.80
    3   23   23     -0.78      0.39
    4   23   23      0.18      0.10
    5   23   23     -0.29      0.92
    6   23   23     -0.17     -0.11
    7   23   23     -0.14     -0.34
    0   24   23      0.09     -0.01
    1   24   23     -0.28     -0.86
    2   24   23      0.65     -0.39
    3   24   23     -0.25     -0.53
    4   24   23     -0.04     -0.28
    5   24   23      0.36     -0.20
    6   24   23     -0.18      0.16
    0   25   23      0.02     -0.36
    1   25   23      0.21     -0.07
    2   25   23      0.13     -0.04
    3   25   23     -0.11     -0.32
    4   25   23     -0.36      0.43
    5   25   23      0.27      0.06
    0   26   23      0.35     -0.02
    1   26   23     -0.22      0.41
    2   26   23      0.01      0.27
    3   26   23     -0.16      0.10
    0   27   23      0.01     -0.21
    1   27   23      0.24      0.41
    9    0   24     -0.26      0.03
   12    0   24      0.33      0.00
   13    0   24      0.09      0.00
    9    1   24      0.28     -0.46
   12    1   24     -0.15      0.18
   13    1   24      0.46     -0.11
   12    2   24      0.51     -0.71
   13    2   24      0.30     -0.39
   10    3   24     -0.98      1.40
   11    3   24      0.89      0.49
   12    3   24      0.09     -0.10
   13    3   24      0.08     -0.01
   12    4   24      0.34     -0.10
   13    4   24      0.29     -0.21
   11    5   24     -0.05      1.19
   12    5   24      0.23      0.72
   13    5   24      0.28     -0.19
   11    6   24     -0.45     -1.03
   12    6   24      0.07      0.66
   13    6   24      0.34      0.09
   11    7   24     -0.41     -0.63
   12    7   24      0.28     -0.60
   13    7   24      0.29     -0.18
   11    8   24      0.69     -0.42
   12    8   24     -0.20     -0.10
   11    9   24     -0.14     -0.50
   12    9   24     -0.05     -0.34
   11   10   24     -0.07      0.62
   12   10   24      0.08      0.55
   10   11   24      0.02      1.29
   11   11   24     -0.52     -0.75
   12   11   24     -0.22      0.16
   10   12   24      0.55     -0.32
   11   12   24      0.44     -0.19
   12   12   24     -0.47     -0.03
   10   13   24      0.02     -0.98
   11   13   24      0.24     -0.07
    9   14   24     -0.22     -0.09
   10   14   24     -0.96      0.20
   11   14   24      0.27      0.14
    9   15   24     -0.31     -0.87
   10   15   24      0.23     -0.53
   11   15   24     -0.31      0.22
    8   16   24     -0.33      0.01
    9   16   24     -0.02     -0.25
   10   16   24      0.80     -0.23
    8   17   24      0.84     -0.10
    9   17   24      0.68      0.39
   10   17   24      0.00     -0.04
    7   18   24     -0.63     -0.08
    8   18   24     -0.59     -0.10
    9   18   24      0.06     -0.48
    6   19   24     -0.99      0.04
    7   19   24     -0.61      0.23
    8   19   24     -0.54     -0.04
    9   19   24      0.04      0.47
    5   20   24     -0.77     -0.41
    6   20   24      0.41      0.48
    7   20   24      0.44     -0.41
    8   20   24      0.15      0.18
    4   21   24     -0.49     -0.61
    5   21   24      0.93      0.24
    6   21   24      0.14     -0.29
    7   21   24      0.12     -1.27
    8   21   24      0.05      0.00
    0   22   24      0.28      0.02
    1   22   24     -1.22      0.63
    2   22   24     -0.14     -0.31
    3   22   24      0.10      0.48
    4   22   24     -0.61     -0.10
    5   22   24      0.16      0.71
    6   22   24      0.51     -0.10
    7   22   24     -0.31      0.16
    0   23   24     -0.02     -0.33
    1   23   24     -0.24      0.10
    2   23   24     -0.24     -0.17
    3   23   24      0.03     -0.03
    4   23   24     -0.57     -0.23
    5   23   24     -0.60      0.15
    6   23   24      0.08      0.00
    0   24   24     -0.03     -0.01
    1   24   24     -0.09      0.05
    2   24   24     -0.34     -0.03
    3   24   24      0.06      0.01
    4   24   24      0.07      0.21
    5   24   24     -0.10     -0.12
    0   25   24      0.00     -0.20
    1   25   24      0.28      0.04
    2   25   24      0.00      0.33
    3   25   24      0.13      0.03
    4   25   24     -0.26     -0.35
    0   26   24      0.15      0.01
    1   26   24      0.01     -0.16
    5    0   25      0.01      0.84
   11    0   25      0.00     -0.34
   12    0   25      0.00      1.32
   13    0   25      0.00      0.04
    5    1   25      0.69      0.01
    6    1   25      1.88     -0.21
    9    1   25      0.00     -0.74
   11    1   25      0.07     -0.91
   12    1   25      0.26     -0.43
   13    1   25     -0.09     -0.10
   11    2   25      0.10     -0.57
   12    2   25      0.40     -0.15
   13    2   25      0.21      0.07
    9    3   25     -0.80      1.24
   11    3   25     -0.23     -0.22
   12    3   25     -0.31     -0.40
   13    3   25      0.24     -0.36
    0    4   25     -0.22      0.05
   11    4   25     -0.07      0.73
   12    4   25      0.37      0.36
    9    5   25      0.45     -1.28
   11    5   25     -0.62      0.74
   12    5   25      0.02      0.15
    0    6   25      0.75      0.06
   11    6   25      0.03     -0.21
   12    6   25     -0.10      0.14
   10    7   25      0.38     -1.82
   11    7   25      0.65     -0.33
   12    7   25      0.28     -0.23
   10    8   25      0.08     -0.21
   11    8   25     -0.09     -0.39
   12    8   25      0.16     -0.43
   10    9   25     -0.42     -0.82
   11    9   25      0.05      0.74
   12    9   25      0.25     -0.33
   10   10   25     -0.40      0.02
   11   10   25     -0.58      0.42
   12   10   25     -0.52      0.09
    9   11   25      0.99     -0.12
   10   11   25      1.03      0.16
   11   11   25     -0.47     -0.23
    9   12   25      0.20     -0.40
   10   12   25      0.09      0.05
   11   12   25     -0.09     -0.14
    9   13   25     -0.84      0.25
   10   13   25      0.35      1.17
   11   13   25     -0.28      0.01
    8   14   25     -0.51     -0.27
    9   14   25     -0.38     -0.68
   10   14   25     -0.59     -0.01
    8   15   25      0.03     -0.29
    9   15   25      0.01      0.60
   10   15   25     -0.33     -0.32
    7   16   25      1.50     -0.32
    8   16   25     -0.19     -0.69
    9   16   25      0.25     -0.21
   10   16   25     -0.04     -0.14
    7   17   25      0.25     -0.62
    8   17   25      0.50     -0.24
    9   17   25      0.36     -0.34
    6   18   25     -0.93      0.20
    7   18   25      0.18      0.21
    8   18   25      0.15      0.36
    9   18   25     -0.15      0.05
    5   19   25     -0.19      0.73
    6   19   25      0.22      0.32
    7   19   25      0.32      0.16
    8   19   25     -0.46     -0.55
    4   20   25     -0.15      0.70
    5   20   25      0.25      0.03
    6   20   25      0.58     -0.68
    7   20   25      0.01     -0.27
    8   20   25     -0.48     -0.20
    0   21   25      0.01      0.06
    1   21   25      0.43     -0.53
    2   21   25      0.27      0.14
    3   21   25      0.15     -0.47
    4   21   25     -0.35      0.71
    5   21   25      0.46     -0.41
    6   21   25      0.04     -0.26
    7   21   25     -0.04      0.22
    0   22   25      0.44     -0.01
    1   22   25      0.12      0.40
    2   22   25     -0.77     -0.24
    3   22   25     -0.40     -0.71
    4   22   25     -0.07     -0.11
    5   22   25     -0.13      0.07
    6   22   25      0.16     -0.10
    0   23   25      0.00      0.42
    1   23   25      0.04     -0.87
    2   23   25      0.03      0.33
    3   23   25     -0.15      0.12
    4   23   25     -0.06      0.24
    5   23   25      0.08      0.37
    0   24   25      0.84      0.00
    1   24   25     -0.25      0.05
    2   24   25      0.06     -0.26
    3   24   25     -0.18     -0.19
    4   24   25     -0.29      0.15
    0   25   25      0.00     -0.13
    1   25   25     -0.03     -0.12
    2   25   25      0.13      0.10
    7    0   26     -0.19     -0.01
    8    0   26      0.61     -0.06
   11    0   26      0.31      0.00
   12    0   26     -0.54     -0.02
   11    1   26     -0.06      0.45
   12    1   26     -0.22      0.34
   11    2   26     -0.36     -0.34
   12    2   26      0.25      0.38
    0    3   26      0.29     -1.45
   11    3   26      0.26     -0.25
   12    3   26      0.52      0.38
   10    4   26     -0.48      0.58
   11    4   26     -0.85      0.65
   12    4   26      0.07      0.19
   10    5   26      0.00     -0.30
   11    5   26     -0.36      0.15
   12    5   26     -0.26      0.21
   10    6   26      0.03      0.16
   11    6   26     -0.18     -0.67
   12    6   26     -0.21     -0.14
   10    7   26      0.50      0.14
   11    7   26      0.40     -0.08
   12    7   26      0.04     -0.14
   10    8   26     -0.15      0.28
   11    8   26      0.81     -0.49
   10    9   26     -0.35      0.41
   11    9   26     -0.30     -0.04
    9   10   26      0.37      0.26
   10   10   26      0.03     -0.55
   11   10   26     -0.05     -0.08
    9   11   26     -0.02      0.30
   10   11   26     -0.20     -0.11
   11   11   26      0.18     -0.13
    8   12   26     -0.63     -0.22
    9   12   26     -0.28      0.91
   10   12   26      0.32      0.22
    8   13   26      0.14     -0.22
    9   13   26     -0.07      0.04
   10   13   26      0.45     -0.03
    8   14   26     -0.08      0.87
    9   14   26      0.04     -0.11
   10   14   26      0.12      0.30
    7   15   26     -0.55     -0.47
    8   15   26     -0.12     -0.40
    9   15   26     -0.44      0.27
    6   16   26      0.26     -0.66
    7   16   26      0.75     -0.15
    8   16   26     -0.11      0.10
    9   16   26     -0.01     -0.53
    5   17   26      0.08     -1.05
    6   17   26      0.02      0.20
    7   17   26     -0.18     -0.04
    8   17   26      0.30     -0.13
    9   17   26      0.43      0.00
    5   18   26      0.18     -0.23
    6   18   26      0.01     -0.09
    7   18   26      0.39     -0.03
    8   18   26     -0.06     -0.07
    3   19   26      0.33      0.07
    4   19   26      1.39      0.67
    5   19   26      0.69     -0.14
    6   19   26      0.04      0.44
    7   19   26     -0.13     -0.36
    0   20   26      0.80     -0.02
    1   20   26     -0.02      0.51
    2   20   26     -0.12     -0.06
    3   20   26     -0.03     -0.53
    4   20   26      0.52     -0.26
    5   20   26     -0.12     -0.32
    6   20   26     -0.22     -0.12
    7   20   26      0.35     -0.02
    0   21   26     -0.03     -0.17
    1   21   26      0.13     -0.61
    2   21   26      0.18     -0.43
    3   21   26     -0.62      0.39
    4   21   26     -0.30     -0.35
    5   21   26      0.14     -0.08
    6   21   26      0.29      0.12
    0   22   26      0.72      0.01
    1   22   26     -0.27      0.16
    2   22   26     -0.39     -0.39
    3   22   26     -0.24      0.29
    4   22   26      0.13     -0.36
    5   22   26     -0.11      0.16
    0   23   26      0.00     -0.23
    1   23   26      0.23     -0.30
    2   23   26     -0.13     -0.16
    3   23   26     -0.14      0.21
    4   23   26      0.09      0.10
    0   24   26     -0.04      0.00
    1   24   26      0.06      0.00
    6    0   27      0.00      3.74
   10    0   27     -0.01      0.37
   11    0   27      0.02     -0.09
   12    0   27      0.01      0.94
   10    1   27      0.53      0.00
   11    1   27      0.08      0.64
   12    1   27     -0.06     -0.16
   10    2   27      0.47      0.70
   11    2   27      0.48     -0.03
   10    3   27      0.18      0.31
   11    3   27      0.42      0.09
    9    4   27      0.21      0.53
   10    4   27     -0.06     -0.42
   11    4   27     -0.27     -0.31
   10    5   27     -0.60     -0.37
   11    5   27     -0.52     -0.01
    9    6   27      0.27      0.02
   10    6   27      0.82     -0.51
   11    6   27      0.09     -0.22
    9    7   27      0.32      1.25
   10    7   27      0.30     -0.85
   11    7   27      0.23      0.18
    9    8   27      0.97     -0.02
   10    8   27      0.56     -0.01
   11    8   27     -0.18      0.37
    9    9   27      0.00     -0.38
   10    9   27      0.22     -0.55
   11    9   27     -0.39      0.27
    8   10   27     -0.95      0.06
    9   10   27     -0.02      0.14
   10   10   27      0.11      0.44
    8   11   27     -0.42     -0.27
    9   11   27      0.02      0.78
   10   11   27      0.41      0.12
    8   12   27      1.00     -0.13
    9   12   27      0.08      0.10
   10   12   27     -0.12     -0.30
    7   13   27     -0.04      0.69
    8   13   27      0.22      0.08
    9   13   27      0.29     -0.09
    7   14   27     -0.41      0.55
    8   14   27     -0.17      0.43
    9   14   27     -0.09     -0.14
    6   15   27     -0.06     -0.11
    7   15   27      0.11      0.47
    8   15   27      0.23     -0.47
    9   15   27     -0.05      0.08
    5   16   27     -0.60     -0.16
    6   16   27     -0.35     -0.15
    7   16   27      0.21     -0.20
    8   16   27      0.23     -0.05
    4   17   27      0.90     -0.04
    5   17   27      0.04      0.07
    6   17   27     -0.14      0.21
    7   17   27      0.14      0.25
    8   17   27     -0.06     -0.40
    2   18   27      0.25     -0.34
    3   18   27      0.06      0.30
    4   18   27      0.92     -0.69
    5   18   27      0.58     -0.37
    6   18   27      0.02      0.10
    7   18   27      0.37     -0.02
    0   19   27     -0.02      0.95
    1   19   27      0.36      0.16
    2   19   27      0.72      0.30
    3   19   27     -0.16      0.38
    4   19   27     -0.24     -0.44
    5   19   27     -0.29      0.07
    6   19   27      0.04     -0.09
    0   20   27      0.33      0.02
    1   20   27      0.31     -0.77
    2   20   27     -0.30     -0.09
    3   20   27      0.03     -0.39
    4   20   27     -0.05      0.67
    5   20   27      0.21      0.37
    6   20   27      0.00      0.02
    0   21   27      0.01      0.44
    1   21   27      0.07     -0.19
    2   21   27     -0.23     -0.39
    3   21   27      0.15     -0.27
    4   21   27     -0.01      0.03
    5   21   27      0.13     -0.46
    0   22   27      0.05     -0.02
    1   22   27      0.44      0.21
    2   22   27     -0.19      0.11
    3   22   27     -0.01     -0.05
    0   23   27      0.01      0.58
    1   23   27      0.04      0.04
    9    0   28     -0.21      0.00
   10    0   28      0.61     -0.01
   11    0   28      0.13      0.00
    9    1   28     -0.35      0.50
   10    1   28      0.55      0.12
   11    1   28      0.11      0.07
    9    2   28      0.87      0.37
   10    2   28      0.29      0.26
   11    2   28     -0.30     -0.09
    9    3   28      0.52     -0.26
   10    3   28      0.29      0.12
   11    3   28     -0.02     -0.38
    9    4   28     -1.08     -0.20
   10    4   28     -0.51     -0.15
   11    4   28     -0.21      0.13
    9    5   28      0.48     -0.54
   10    5   28     -0.44      0.15
   11    5   28      0.14     -0.41
    9    6   28      0.54     -0.80
   10    6   28      0.19      0.28
    8    7   28      0.34     -0.44
    9    7   28      0.44     -0.42
   10    7   28     -0.11     -0.19
    8    8   28      0.56      0.35
    9    8   28     -0.17      0.66
   10    8   28     -0.35     -0.25
    8    9   28     -0.14      0.75
    9    9   28     -0.03      0.67
   10    9   28      0.03     -0.34
    7   10   28     -0.25      0.34
    8   10   28     -0.69      0.25
    9   10   28      0.21      0.07
   10   10   28      0.18     -0.01
    7   11   28      0.90      0.17
    8   11   28     -0.18     -0.40
    9   11   28     -0.17     -0.05
    7   12   28     -0.08     -0.17
    8   12   28      0.27     -0.12
    9   12   28     -0.18      0.11
    6   13   28      0.10     -0.30
    7   13   28      0.19      0.88
    8   13   28     -0.11      0.07
    9   13   28     -0.31      0.28
    5   14   28      0.03      0.28
    6   14   28     -0.41      0.18
    7   14   28      0.11     -0.20
    8   14   28      0.31      0.09
    4   15   28     -0.61      0.15
    5   15   28      0.30     -0.37
    6   15   28     -0.21      0.46
    7   15   28     -0.31     -0.40
    8   15   28     -0.35     -0.19
    3   16   28     -0.12     -0.14
    4   16   28     -0.46     -0.47
    5   16   28     -0.31     -0.12
    6   16   28      0.11      0.12
    7   16   28      0.35     -0.27
    0   17   28     -0.01      0.95
    1   17   28      0.28      0.41
    2   17   28     -0.68     -0.06
    3   17   28      0.10     -0.14
    4   17   28      0.16     -0.28
    5   17   28     -0.06     -0.40
    6   17   28      0.30     -0.38
    7   17   28      0.12      0.14
    0   18   28      0.28      0.00
    1   18   28      0.32      0.19
    2   18   28      0.51     -0.44
    3   18   28      0.68     -0.08
    4   18   28     -0.01      0.94
    5   18   28     -0.06      0.39
    6   18   28     -0.33     -0.39
    0   19   28      0.00     -0.70
    1   19   28     -0.49     -0.33
    2   19   28     -0.35     -0.18
    3   19   28      0.04     -0.11
    4   19   28      0.00      0.21
    5   19   28      0.49      0.14
    0   20   28      0.10      0.00
    1   20   28      0.18      0.15
    2   20   28     -0.09      0.30
    3   20   28      0.02      0.00
    4   20   28      0.17     -0.20
    0   21   28     -0.02      0.33
    1   21   28     -0.08     -0.02
    2   21   28      0.23     -0.15
    3   21   28     -0.09      0.10
    0   22   28      0.22      0.00
    8    0   29      0.01      0.39
    9    0   29      0.01      1.39
   10    0   29      0.00      0.56
    8    1   29      0.07      0.38
    9    1   29      0.25      0.31
   10    1   29     -0.15     -0.15
    8    2   29      0.31     -0.15
    9    2   29     -0.13     -0.36
   10    2   29      0.44      0.17
    8    3   29     -0.36      0.02
    9    3   29     -1.21      0.80
   10    3   29      0.25      0.63
    8    4   29      0.32     -0.39
    9    4   29      0.11     -0.20
   10    4   29      0.22     -0.23
    8    5   29      0.53     -0.07
    9    5   29     -0.40     -0.37
   10    5   29      0.14     -0.52
    8    6   29     -0.46     -0.35
    9    6   29     -0.38      0.04
   10    6   29      0.31     -0.23
    7    7   29      0.07     -0.25
    8    7   29      0.11     -0.08
    9    7   29      0.61      0.05
   10    7   29      0.02      0.11
    7    8   29     -0.26      0.00
    8    8   29     -0.23     -0.23
    9    8   29     -0.08     -0.22
    7    9   29     -0.12     -0.15
    8    9   29     -0.10      0.12
    9    9   29     -0.33      0.38
    6   10   29     -0.48      0.59
    7   10   29      0.24      0.39
    8   10   29     -0.30     -0.27
    9   10   29     -0.42      0.35
    6   11   29      0.34      0.91
    7   11   29      0.39      0.27
    8   11   29     -0.21     -0.19
    9   11   29      0.23      0.52
    5   12   29     -0.10     -0.41
    6   12   29     -0.60      0.69
    7   12   29      0.04      0.01
    8   12   29      0.07      0.21
    4   13   29      0.30     -0.12
    5   13   29     -0.26     -0.01
    6   13   29     -0.90     -0.41
    7   13   29      0.19      0.31
    8   13   29      0.03      0.04
    3   14   29     -0.15      0.10
    4   14   29      0.45      0.07
    5   14   29     -0.46     -0.53
    6   14   29      0.19     -0.10
    7   14   29     -0.68      0.30
    0   15   29      0.00      0.45
    1   15   29     -0.43     -0.37
    2   15   29      0.04     -0.04
    3   15   29      0.08     -0.80
    4   15   29     -0.38      0.20
    5   15   29     -0.38      0.23
    6   15   29     -0.05     -0.18
    7   15   29      0.11      0.19
    0   16   29      0.42      0.00
    1   16   29     -0.28     -0.26
    2   16   29      0.02      0.30
    3   16   29     -0.10      0.33
    4   16   29     -0.03     -0.47
    5   16   29      0.22     -0.27
    6   16   29     -0.07      0.17
    0   17   29      0.00     -0.55
    1   17   29      0.14     -0.11
    2   17   29      0.15     -0.24
    3   17   29     -0.35     -0.26
    4   17   29      0.31     -0.10
    5   17   29      0.38     -0.18
    6   17   29     -0.50      0.26
    0   18   29     -0.62      0.02
    1   18   29     -0.59     -0.07
    2   18   29      0.32     -0.11
    3   18   29     -0.58     -0.29
    4   18   29      0.09     -0.03
    5   18   29      0.00      0.03
    0   19   29      0.02      0.55
    1   19   29      0.07      0.07
    2   19   29      0.28      0.28
    3   19   29      0.49      0.18
    4   19   29      0.06      0.05
    0   20   29     -0.42      0.01
    1   20   29      0.24     -0.03
    2   20   29     -0.05     -0.05
    7    0   30     -0.22      0.02
    8    0   30     -0.49      0.00
    9    0   30      0.28     -0.01
    0    1   30     -0.11     -0.89
    7    1   30     -0.28      0.17
    8    1   30     -0.59      0.84
    9    1   30      0.20      0.24
    7    2   30     -0.53      0.71
    8    2   30     -0.49      0.57
    9    2   30      0.03      0.79
    7    3   30      0.38     -0.50
    8    3   30      0.25     -0.59
    9    3   30      0.32     -0.08
    7    4   30     -0.01     -0.16
    8    4   30      0.13      0.36
    9    4   30      0.21      0.17
    7    5   30     -0.72     -0.38
    8    5   30      0.08     -0.06
    9    5   30      0.12     -0.39
    6    6   30      0.42     -0.71
    7    6   30      0.45      0.29
    8    6   30      0.08      0.44
    9    6   30     -0.18     -0.21
    6    7   30     -0.77     -0.15
    7    7   30     -0.54     -0.20
    8    7   30      0.00     -0.24
    9    7   30      0.22      0.09
    6    8   30      0.25     -0.61
    7    8   30      0.37     -0.28
    8    8   30     -0.50     -0.01
    9    8   30     -0.06      0.31
    5    9   30     -0.13      0.72
    6    9   30      0.19      0.02
    7    9   30     -0.45     -0.50
    8    9   30     -0.09      0.11
    5   10   30      0.17      0.46
    6   10   30      0.52     -0.14
    7   10   30      0.11      0.03
    8   10   30      0.05      0.19
    4   11   30      0.38     -0.09
    5   11   30     -0.73      0.59
    6   11   30      0.04      0.07
    7   11   30      0.38      0.02
    8   11   30     -0.10      0.01
    3   12   30      0.57     -0.05
    4   12   30     -0.62     -0.12
    5   12   30      0.31     -0.21
    6   12   30     -0.50      0.43
    7   12   30     -0.36      0.47
    0   13   30      0.01      0.27
    1   13   30      0.54      0.05
    2   13   30      1.16     -0.14
    3   13   30     -0.21      0.17
    4   13   30      0.62      0.22
    5   13   30     -0.46      0.02
    6   13   30     -0.69     -0.42
    7   13   30      0.02      0.37
    0   14   30     -0.12      0.01
    1   14   30      0.79      0.10
    2   14   30      0.47     -0.24
    3   14   30     -0.07     -0.41
    4   14   30     -0.30      0.06
    5   14   30      0.16     -0.06
    6   14   30     -0.05      0.13
    0   15   30      0.03     -0.88
    1   15   30     -0.09      0.51
    2   15   30      0.27     -0.12
    3   15   30      0.39     -0.54
    4   15   30     -0.14      0.07
    5   15   30      0.24     -0.11
    6   15   30      0.11     -0.30
    0   16   30     -0.34     -0.03
    1   16   30      0.23      0.03
    2   16   30     -0.17     -0.51
    3   16   30      0.07      0.25
    4   16   30     -0.14     -0.25
    5   16   30     -0.29     -0.43
    0   17   30     -0.01     -0.04
    1   17   30     -0.03      0.02
    2   17   30     -0.07     -0.17
    3   17   30     -0.14     -0.05
    4   17   30     -0.27      0.16
    0   18   30      0.19     -0.01
    1   18   30     -0.15      0.03
    2   18   30      0.07     -0.17
    3   18   30      0.20     -0.20
    0   19   30     -0.01      0.19
    1   19   30      0.06     -0.46
    6    0   31      0.01      0.10
    7    0   31      0.01      0.66
    8    0   31     -0.01      0.14
    9    0   31      0.00      0.29
    6    1   31     -0.54      0.44
    7    1   31     -0.57     -0.22
    8    1   31     -0.09      0.33
    9    1   31     -0.51      0.04
    6    2   31      0.46     -0.62
    7    2   31     -0.18     -0.34
    8    2   31     -0.06     -0.38
    9    2   31     -0.36     -0.04
    6    3   31     -0.09     -0.23
    7    3   31      0.52      0.64
    8    3   31     -0.25      0.62
    9    3   31     -0.48      0.20
    5    4   31     -0.52      0.34
    6    4   31      0.12     -0.17
    7    4   31     -0.16     -0.04
    8    4   31     -0.20     -0.17
    5    5   31      0.84      0.62
    6    5   31      0.39      0.49
    7    5   31      0.33      0.40
    8    5   31      0.71      0.24
    5    6   31      0.39     -0.77
    6    6   31      0.29      0.44
    7    6   31     -0.09      0.25
    8    6   31      0.17     -0.12
    4    7   31      0.08     -0.04
    5    7   31     -0.47     -0.48
    6    7   31     -0.01     -0.37
    7    7   31     -0.11     -0.69
    8    7   31     -0.15     -0.17
    4    8   31     -0.65      0.40
    5    8   31     -0.03      0.49
    6    8   31     -0.17     -0.26
    7    8   31      0.05      0.02
    8    8   31     -0.12     -0.18
    3    9   31     -0.12      0.03
    4    9   31     -0.22      0.21
    5    9   31      1.11      0.02
    6    9   31      0.35     -0.48
    7    9   31     -0.42      0.43
    2   10   31      0.14     -0.22
    3   10   31     -0.36     -0.11
    4   10   31      0.08      0.39
    5   10   31      0.12     -0.52
    6   10   31      0.03     -0.15
    7   10   31      0.03     -0.26
    0   11   31      0.02      1.65
    1   11   31     -0.42      0.75
    2   11   31     -0.38      0.44
    3   11   31      0.03      0.34
    4   11   31     -0.26     -0.19
    5   11   31     -0.30     -0.37
    6   11   31     -0.19      0.22
    7   11   31      0.16      0.03
    0   12   31      0.84      0.02
    1   12   31      0.43      0.94
    2   12   31      0.11      0.17
    3   12   31      0.64      0.45
    4   12   31     -0.09      0.31
    5   12   31      0.09     -0.26
    6   12   31     -0.24      0.02
    0   13   31      0.02      0.09
    1   13   31      0.07     -0.03
    2   13   31      0.72     -0.50
    3   13   31     -0.24      0.37
    4   13   31      0.35      0.06
    5   13   31      0.03      0.06
    6   13   31     -0.38     -0.14
    0   14   31     -0.64     -0.04
    1   14   31      0.41     -0.58
    2   14   31      0.18      0.31
    3   14   31      0.05     -0.43
    4   14   31     -0.30      0.11
    5   14   31      0.25     -0.28
    0   15   31     -0.01      0.27
    1   15   31      0.03     -0.12
    2   15   31      0.50      0.05
    3   15   31     -0.15     -0.35
    4   15   31      0.32     -0.16
    0   16   31      0.68      0.01
    1   16   31      0.38     -0.10
    2   16   31     -0.03      0.11
    3   16   31      0.16      0.15
    0   17   31      0.02     -0.64
    1   17   31     -0.17     -0.04
    2   17   31      0.37      0.09
    4    0   32      0.42      0.02
    5    0   32     -0.09     -0.01
    6    0   32     -0.60      0.03
    7    0   32     -0.50      0.00
    8    0   32     -0.98      0.01
    4    1   32      0.53     -0.32
    5    1   32      0.99     -0.77
    6    1   32      0.24      0.20
    7    1   32     -0.60     -0.23
    8    1   32     -0.43     -0.35
    4    2   32      0.15     -0.26
    5    2   32     -0.14      0.47
    6    2   32     -0.52     -0.22
    7    2   32     -0.09     -0.18
    8    2   32     -0.09     -0.04
    3    3   32     -0.78      0.35
    4    3   32      0.06      0.08
    5    3   32      0.70     -0.11
    6    3   32      0.03      0.10
    7    3   32     -0.03     -0.22
    8    3   32      0.15      0.00
    3    4   32     -0.37      0.58
    4    4   32      0.25     -0.07
    5    4   32      0.23      0.48
    6    4   32      0.51      0.26
    7    4   32      0.53      0.32
    3    5   32      0.96     -0.52
    4    5   32     -0.18     -0.13
    5    5   32     -0.08     -0.06
    6    5   32      0.01     -0.10
    7    5   32      0.07      0.25
    2    6   32      0.21      0.13
    3    6   32      0.00     -0.45
    4    6   32      0.35     -0.06
    5    6   32      0.09      0.22
    6    6   32      0.10     -0.13
    7    6   32      0.20     -0.49
    0    7   32      0.01     -0.57
    1    7   32     -0.39      0.13
    2    7   32     -0.45      0.15
    3    7   32     -0.33      0.27
    4    7   32      0.11      0.30
    5    7   32      0.19      0.31
    6    7   32      0.31      0.63
    7    7   32     -0.26     -0.12
    0    8   32     -0.60      0.03
    1    8   32     -0.26     -0.78
    2    8   32     -0.15     -0.56
    3    8   32      0.39      0.54
    4    8   32      0.11     -0.08
    5    8   32     -0.04     -0.31
    6    8   32      0.04     -0.58
    7    8   32      0.40     -0.19
    0    9   32     -0.02     -0.24
    1    9   32     -0.08     -0.17
    2    9   32     -0.46     -0.05
    3    9   32     -0.32     -0.27
    4    9   32      0.00     -0.55
    5    9   32      0.09      0.18
    6    9   32      0.06     -0.02
    0   10   32     -0.03     -0.03
    1   10   32      0.18      0.44
    2   10   32     -0.47      0.50
    3   10   32     -0.40      0.11
    4   10   32     -0.16     -0.18
    5   10   32     -0.32      0.19
    6   10   32      0.13      0.25
    0   11   32     -0.03      0.92
    1   11   32      0.36      0.05
    2   11   32     -0.50      0.73
    3   11   32     -0.03      0.30
    4   11   32      0.21     -0.36
    5   11   32      0.26      0.50
    0   12   32      0.07      0.03
    1   12   32     -0.34      0.33
    2   12   32     -0.05      0.40
    3   12   32     -0.21     -0.05
    4   12   32     -0.08      0.27
    5   12   32     -0.21     -0.35
    0   13   32      0.00     -0.12
    1   13   32     -0.08      0.47
    2   13   32      0.32      0.23
    3   13   32     -0.16      0.26
    4   13   32      0.13      0.26
    0   14   32     -0.35      0.02
    1   14   32      0.10      0.33
    2   14   32      0.11     -0.10
    3   14   32      0.67      0.05
    0   15   32      0.02     -0.65
    1   15   32      0.12     -0.02
    2   15   32      0.25     -0.25
    0    0    0      0.00      0.00
loop_
  _platon_squeeze_void_nr
  _platon_squeeze_void_average_x
  _platon_squeeze_void_average_y
  _platon_squeeze_void_average_z
  _platon_squeeze_void_volume
  _platon_squeeze_void_count_electrons
  _platon_squeeze_void_content
   1  0.815  0.250  0.000       911       108 ' '
   2  0.692 -0.250  0.500       913       108 ' '
   3  0.873  0.038  0.669        11         1 ' '
   4  0.404  0.136  0.596        93        14 ' '
   5  0.904  0.364  0.404        92        14 ' '
   6  0.373  0.462  0.331        11         1 ' '
   7  0.127  0.538  0.831        11         1 ' '
   8  0.596  0.636  0.904        94        14 ' '
   9  0.096  0.863  0.096        93        14 ' '
  10  0.627  0.962  0.169        11         1 ' '
_platon_squeeze_details
(replace by semicolon in column 1 when used as .sqf)
TITL SD in P2(1)2(1)2(1)
CELL   13.9325   26.8740   27.1470     90.00     90.00     90.00
SPGR P212121
Q101 0.192 0.353 0.540 !       1.53 eA-3
Q102 0.411 0.696 0.142 !       1.26 eA-3
Q103 0.806 0.890 0.946 !       1.23 eA-3
Q104 0.230 0.377 0.535 !       1.21 eA-3
Q105 0.448 0.718 0.138 !       1.19 eA-3
Q106 0.595 0.243 0.366 !       1.16 eA-3
Q107 0.141 0.374 0.539 !       1.07 eA-3
Q108 0.360 0.718 0.143 !       1.02 eA-3
C109 0.079 0.914 0.068 !       0.99 eA-3
C110 0.560 0.335 0.081 !       0.99 eA-3
C111 0.813 0.342 0.317 !       0.94 eA-3
C112 0.605 0.694 0.969 !       0.90 eA-3
C113 0.865 0.100 0.101 !       0.89 eA-3
C114 0.900 0.368 0.398 !       0.86 eA-3
C115 0.107 0.634 0.460 !       0.85 eA-3
Q116 0.812 0.585 0.278 !       0.83 eA-3
C117 0.126 0.581 0.453 !       0.82 eA-3
Q118 0.642 0.179 0.445 !       0.81 eA-3
C119 0.777 0.110 0.045 !       0.80 eA-3
C120 0.609 0.294 0.112 !       0.78 eA-3
Q121 0.642 0.178 0.468 !       0.77 eA-3
C122 0.235 0.640 0.418 !       0.75 eA-3
C123 0.326 0.799 0.410 !       0.74 eA-3
C124 0.140 0.454 0.404 !       0.74 eA-3
C125 0.116 0.611 0.430 !       0.73 eA-3
C126 0.613 0.312 0.040 !       0.73 eA-3
Q127 0.863 0.914 0.938 !       0.73 eA-3
Q128 0.811 0.936 0.934 !       0.72 eA-3
Q129 0.541 0.164 0.371 !       0.72 eA-3
C130 0.357 0.454 0.911 !       0.71 eA-3
C131 0.408 0.164 0.566 !       0.71 eA-3
C132 0.329 0.453 0.953 !       0.71 eA-3
C133 0.012 0.140 0.956 !       0.70 eA-3
C134 0.660 0.789 0.581 !       0.70 eA-3
C135 0.371 0.313 0.934 !       0.70 eA-3
C136 0.038 0.937 0.087 !       0.70 eA-3
C137 0.303 0.314 0.887 !       0.69 eA-3
Q138 0.638 0.166 0.376 !       0.68 eA-3
C139 0.947 0.642 0.612 !       0.68 eA-3
C140 0.328 0.795 0.438 !       0.68 eA-3
Q141 0.308 0.703 0.041 !       0.68 eA-3
C142 0.730 0.807 0.544 !       0.68 eA-3
C143 0.761 0.765 0.556 !       0.68 eA-3
C144 0.157 0.583 0.430 !       0.68 eA-3
Q145 0.144 0.055 0.219 !       0.67 eA-3
C146 0.652 0.847 0.546 !       0.67 eA-3
C147 0.435 0.810 0.412 !       0.66 eA-3
Q148 0.904 0.858 0.851 !       0.66 eA-3
C149 0.831 0.125 0.050 !       0.66 eA-3
Q150 0.495 0.158 0.406 !       0.66 eA-3
Q151 0.809 0.531 0.276 !       0.66 eA-3
C152 0.589 0.289 0.064 !       0.65 eA-3
C153 0.377 0.343 0.928 !       0.64 eA-3
C154 0.594 0.346 0.134 !       0.63 eA-3
Q155 0.052 0.993 0.367 !       0.63 eA-3
C156 0.831 0.148 0.126 !       0.62 eA-3
Q157 0.641 0.225 0.454 !       0.62 eA-3
Q158 0.500 0.571 0.680 !       0.62 eA-3
Q159 0.746 0.180 0.445 !       0.62 eA-3
Q160 0.238 0.055 0.221 !       0.61 eA-3
C161 0.204 0.752 0.406 !       0.61 eA-3
Q162 0.908 0.860 0.878 !       0.61 eA-3
Q163 0.949 0.502 0.186 !       0.60 eA-3
Q164 0.046 0.929 0.036 !       0.59 eA-3
Q165 0.747 0.178 0.475 !       0.59 eA-3
Q166 0.648 0.218 0.413 !       0.59 eA-3
C167 0.440 0.286 0.971 !       0.59 eA-3
Q168 0.421 0.647 0.180 !       0.59 eA-3
C169 0.434 0.798 0.488 !       0.59 eA-3
C170 0.914 0.641 0.539 !       0.59 eA-3
C171 0.629 0.693 0.932 !       0.58 eA-3
Q172 0.971 0.343 0.932 !       0.58 eA-3
C173 0.569 0.303 0.150 !       0.58 eA-3
C174 0.434 0.217 0.552 !       0.58 eA-3
C175 0.569 0.840 0.556 !       0.57 eA-3
Q176 0.860 0.877 0.907 !       0.57 eA-3
C177 0.387 0.276 0.961 !       0.57 eA-3
Q178 0.647 0.172 0.341 !       0.57 eA-3
C179 0.188 0.582 0.383 !       0.57 eA-3
C180 0.988 0.412 0.388 !       0.56 eA-3
C181 0.761 0.277 0.070 !       0.56 eA-3
Q182 0.718 0.203 0.411 !       0.56 eA-3
Q183 0.568 0.150 0.402 !       0.55 eA-3
Q184 0.967 0.085 0.986 !       0.55 eA-3
Q185 0.244 0.422 0.553 !       0.55 eA-3
C186 0.855 0.112 0.024 !       0.55 eA-3
Q187 0.106 0.203 0.629 !       0.55 eA-3
C188 0.115 0.858 0.149 !       0.54 eA-3
C189 0.317 0.796 0.365 !       0.54 eA-3
C190 0.706 0.831 0.556 !       0.54 eA-3
Q191 0.097 0.220 0.595 !       0.54 eA-3
Q192 0.327 0.220 0.554 !       0.53 eA-3
C193 0.442 0.759 0.487 !       0.53 eA-3
Q194 0.905 0.507 0.120 !       0.53 eA-3
C195 0.275 0.571 0.419 !       0.52 eA-3
Q196 0.602 0.187 0.411 !       0.52 eA-3
C197 0.975 0.130 0.054 !       0.51 eA-3
C198 0.267 0.336 0.870 !       0.51 eA-3
Q199 0.685 0.375 0.748 !       0.51 eA-3
(replace by semicolon in column 1 when used as .sqf)
;
_olex2_submission_special_instructions 'No special instructions were received'
loop_
_space_group_symop_operation_xyz
'x, y, z'
'-x+1/2, -y, z+1/2'
'x+1/2, -y+1/2, -z'
'-x, y+1/2, -z+1/2'
loop_
_atom_site_label
_atom_site_type_symbol
_atom_site_fract_x
_atom_site_fract_y
_atom_site_fract_z
_atom_site_U_iso_or_equiv
_atom_site_adp_type
_atom_site_occupancy
_atom_site_site_symmetry_order
_atom_site_calc_flag
_atom_site_refinement_flags_posn
_atom_site_refinement_flags_adp
Cd1 Cd 1.30793(7) 0.62932(3) 1.04194(3) 0.0686(2) Uani 1 1 d . .
Cd2 Cd -0.09235(7) 0.78380(3) 0.86201(3) 0.0749(3) Uani 1 1 d . .
Ti1 Ti 0.68726(14) 0.44401(5) 0.78086(6) 0.0489(4) Uani 1 1 d . .
Ti2 Ti 0.55557(13) 0.52149(5) 0.69699(5) 0.0468(4) Uani 1 1 d . .
O2 O 0.6632(5) 0.37657(19) 0.7681(2) 0.0533(15) Uani 1 1 d . .
O1 O 0.7768(6) 0.4287(2) 0.8325(2) 0.0618(19) Uani 1 1 d . .
O3 O 0.5953(5) 0.5100(2) 0.6318(2) 0.0539(15) Uani 1 1 d . .
O4 O 0.4591(5) 0.5716(2) 0.6799(2) 0.0534(16) Uani 1 1 d . .
O5 O 0.6220(5) 0.4727(2) 0.7286(2) 0.0525(15) Uani 1 1 d . .
O6 O 0.5897(6) 0.4604(2) 0.8250(2) 0.0597(17) Uani 1 1 d . .
O7 O 0.6431(5) 0.5697(2) 0.7169(3) 0.0606(17) Uani 1 1 d . .
O8 O 1.3530(9) 0.5535(4) 1.0758(5) 0.109(4) Uani 1 1 d . .
O9 O 1.4049(9) 0.5674(4) 0.9999(5) 0.123(4) Uani 1 1 d . .
O10 O -0.1320(10) 0.8005(6) 0.7830(4) 0.128(5) Uani 1 1 d . .
O11 O -0.1873(13) 0.7298(5) 0.8076(4) 0.145(5) Uani 1 1 d . .
O12 O 0.0242(10) 0.8505(4) 0.8667(6) 0.146(5) Uani 1 1 d . U
O13 O -0.0421(8) 0.8337(3) 0.9308(6) 0.122(4) Uani 1 1 d . .
O14 O -0.2325(7) 0.8253(3) 0.8895(3) 0.087(3) Uani 1 1 d . .
O15 O -0.3555(9) 0.8214(5) 0.9350(4) 0.133(4) Uani 1 1 d . .
N1 N 0.7683(6) 0.5145(3) 0.7837(3) 0.0555(19) Uani 1 1 d . .
H1 H 0.7312 0.5392 0.7638 0.067 Uiso 1 1 calc R .
N2 N 0.8089(6) 0.4311(2) 0.7272(3) 0.0530(18) Uani 1 1 d . .
H2 H 0.8566 0.4086 0.7434 0.064 Uiso 1 1 calc R .
N3 N 0.6825(8) 0.1838(3) 0.5223(3) 0.070(3) Uani 1 1 d . .
N4 N 1.1875(8) 0.5842(3) 1.0016(4) 0.074(3) Uani 1 1 d . .
N5 N 0.4449(6) 0.4624(3) 0.6773(3) 0.0529(18) Uani 1 1 d . .
H5 H 0.4004 0.4773 0.6524 0.064 Uiso 1 1 calc R .
N6 N 0.4616(6) 0.5170(3) 0.7627(3) 0.057(2) Uani 1 1 d . .
H6 H 0.4949 0.4958 0.7877 0.068 Uiso 1 1 calc R .
N7 N 0.6109(9) 0.2775(3) 0.4220(3) 0.075(3) Uani 1 1 d . .
N8 N 0.0400(8) 0.7397(3) 0.8295(4) 0.077(3) Uani 1 1 d . .
C1 C 0.8625(9) 0.5102(3) 0.7607(4) 0.065(3) Uani 1 1 d . .
H1A H 0.9052 0.4927 0.7847 0.078 Uiso 1 1 calc R .
C77 C 0.5762(12) 0.4506(6) 0.8746(4) 0.102(5) Uani 1 1 d . .
H77A H 0.6281 0.4659 0.8937 0.152 Uiso 1 1 calc GR .
H77B H 0.5765 0.4145 0.8801 0.152 Uiso 1 1 calc GR .
H77C H 0.5144 0.4644 0.8852 0.152 Uiso 1 1 calc GR .
C2 C 0.8589(7) 0.4792(3) 0.7152(4) 0.058(2) Uani 1 1 d . .
H2A H 0.8184 0.4972 0.6906 0.070 Uiso 1 1 calc R .
C3 C 0.9620(9) 0.4716(5) 0.6915(5) 0.085(4) Uani 1 1 d . .
H3A H 1.0038 0.4541 0.7153 0.102 Uiso 1 1 calc R .
H3B H 0.9560 0.4503 0.6618 0.102 Uiso 1 1 calc R .
C4 C 1.0087(12) 0.5207(6) 0.6771(6) 0.110(5) Uani 1 1 d . .
H4A H 0.9713 0.5374 0.6509 0.132 Uiso 1 1 calc R .
H4B H 1.0749 0.5152 0.6651 0.132 Uiso 1 1 calc R .
C5 C 1.0092(11) 0.5530(6) 0.7254(7) 0.106(5) Uani 1 1 d . .
H5A H 1.0518 0.5368 0.7498 0.128 Uiso 1 1 calc R .
H5B H 1.0373 0.5860 0.7176 0.128 Uiso 1 1 calc R .
C6 C 0.9095(10) 0.5612(4) 0.7495(6) 0.091(4) Uani 1 1 d . .
H6A H 0.9168 0.5804 0.7804 0.109 Uiso 1 1 calc R .
H6B H 0.8679 0.5805 0.7269 0.109 Uiso 1 1 calc R .
C7 C 0.7757(8) 0.4063(3) 0.6811(4) 0.059(3) Uani 1 1 d . .
H7A H 0.8323 0.3998 0.6601 0.071 Uiso 1 1 calc R .
H7B H 0.7335 0.4297 0.6631 0.071 Uiso 1 1 calc R .
C78 C 0.6495(11) 0.6208(4) 0.7065(8) 0.119(7) Uani 1 1 d . .
H78A H 0.6705 0.6388 0.7360 0.178 Uiso 1 1 calc GR .
H78B H 0.5865 0.6333 0.6962 0.178 Uiso 1 1 calc GR .
H78C H 0.6961 0.6262 0.6799 0.178 Uiso 1 1 calc GR .
C13 C 0.6678(5) 0.34471(16) 0.73025(17) 0.051(2) Uani 1 1 d . .
C12 C 0.6174(4) 0.30010(18) 0.73205(17) 0.051(2) Uani 1 1 d G .
C11 C 0.6200(4) 0.26769(15) 0.6922(2) 0.057(2) Uani 1 1 d G .
H11 H 0.5856 0.2372 0.6934 0.069 Uiso 1 1 calc R .
C10 C 0.6729(5) 0.27989(18) 0.65048(17) 0.058(2) Uani 1 1 d G .
C9 C 0.7233(5) 0.3245(2) 0.64868(18) 0.063(3) Uani 1 1 d G .
H9 H 0.7595 0.3328 0.6202 0.076 Uiso 1 1 calc R .
C8 C 0.7208(4) 0.35690(16) 0.6886(2) 0.054(2) Uani 1 1 d G .
C14 C 0.5558(9) 0.2863(3) 0.7775(4) 0.063(3) Uani 1 1 d . .
C15 C 0.4752(9) 0.3251(4) 0.7856(5) 0.073(3) Uani 1 1 d . .
H15A H 0.5038 0.3573 0.7944 0.110 Uiso 1 1 calc GR .
H15B H 0.4331 0.3139 0.8123 0.110 Uiso 1 1 calc GR .
H15C H 0.4378 0.3287 0.7552 0.110 Uiso 1 1 calc GR .
C16 C 0.6196(9) 0.2843(4) 0.8242(4) 0.074(3) Uani 1 1 d . .
H16A H 0.6603 0.2546 0.8229 0.112 Uiso 1 1 calc GR .
H16B H 0.5787 0.2829 0.8535 0.112 Uiso 1 1 calc GR .
H16C H 0.6600 0.3141 0.8256 0.112 Uiso 1 1 calc GR .
C17 C 0.5022(9) 0.2351(3) 0.7724(4) 0.072(3) Uani 1 1 d . .
H17A H 0.4449 0.2394 0.7519 0.108 Uiso 1 1 calc GR .
H17B H 0.4831 0.2233 0.8052 0.108 Uiso 1 1 calc GR .
H17C H 0.5450 0.2107 0.7571 0.108 Uiso 1 1 calc GR .
C18 C 0.6769(8) 0.2468(3) 0.6062(4) 0.058(2) Uani 1 1 d . .
C19 C 0.7421(10) 0.2510(4) 0.5700(5) 0.083(4) Uani 1 1 d . .
H19 H 0.7904 0.2757 0.5733 0.100 Uiso 1 1 calc R .
C20 C 0.7432(10) 0.2222(4) 0.5296(5) 0.085(4) Uani 1 1 d . .
H20 H 0.7892 0.2293 0.5047 0.102 Uiso 1 1 calc R .
C21 C 0.6146(11) 0.1791(5) 0.5585(6) 0.097(4) Uani 1 1 d . .
H21 H 0.5667 0.1543 0.5546 0.116 Uiso 1 1 calc R .
C22 C 0.6120(11) 0.2078(4) 0.5994(5) 0.090(4) Uani 1 1 d . .
H22 H 0.5651 0.2014 0.6240 0.108 Uiso 1 1 calc R .
C23 C 0.7699(8) 0.5332(3) 0.8339(4) 0.058(3) Uani 1 1 d . .
H23A H 0.7052 0.5302 0.8488 0.070 Uiso 1 1 calc R .
H23B H 0.7885 0.5687 0.8341 0.070 Uiso 1 1 calc R .
C24 C 0.8416(5) 0.50312(17) 0.8637(2) 0.058(3) Uani 1 1 d . .
C29 C 0.8404(5) 0.45141(18) 0.8628(2) 0.060(3) Uani 1 1 d G .
C28 C 0.9076(5) 0.42463(13) 0.8898(2) 0.065(3) Uani 1 1 d G .
C27 C 0.9761(5) 0.44957(19) 0.9177(2) 0.069(3) Uani 1 1 d G .
H27 H 1.0221 0.4313 0.9361 0.083 Uiso 1 1 calc R .
C26 C 0.9773(5) 0.5013(2) 0.9186(2) 0.064(3) Uani 1 1 d G .
C25 C 0.9100(5) 0.52806(13) 0.8916(2) 0.061(3) Uani 1 1 d G .
H25 H 0.9109 0.5634 0.8922 0.073 Uiso 1 1 calc R .
C30 C 0.9119(13) 0.3659(4) 0.8875(5) 0.095(5) Uani 1 1 d . .
C31 C 0.9249(15) 0.3485(4) 0.8333(6) 0.128(7) Uani 1 1 d . .
H31A H 0.8631 0.3502 0.8162 0.192 Uiso 1 1 calc GR .
H31B H 0.9487 0.3142 0.8328 0.192 Uiso 1 1 calc GR .
H31C H 0.9712 0.3703 0.8167 0.192 Uiso 1 1 calc GR .
C32 C 0.8187(15) 0.3472(4) 0.9075(6) 0.117(6) Uani 1 1 d . .
H32A H 0.8143 0.3553 0.9426 0.175 Uiso 1 1 calc GR .
H32B H 0.8151 0.3111 0.9031 0.175 Uiso 1 1 calc GR .
H32C H 0.7656 0.3631 0.8897 0.175 Uiso 1 1 calc GR .
C33 C 0.9992(16) 0.3457(6) 0.9131(10) 0.175(12) Uani 1 1 d . .
H33A H 1.0538 0.3679 0.9071 0.262 Uiso 1 1 calc GR .
H33B H 1.0138 0.3125 0.9002 0.262 Uiso 1 1 calc GR .
H33C H 0.9868 0.3436 0.9486 0.262 Uiso 1 1 calc GR .
C34 C 1.0513(8) 0.5282(4) 0.9491(4) 0.061(2) Uani 1 1 d . .
C35 C 1.0835(11) 0.5731(5) 0.9327(5) 0.096(5) Uani 1 1 d . .
H35 H 1.0599 0.5863 0.9026 0.115 Uiso 1 1 calc R .
C36 C 1.1519(11) 0.6002(5) 0.9606(6) 0.097(5) Uani 1 1 d . .
H36 H 1.1726 0.6316 0.9485 0.116 Uiso 1 1 calc R .
C37 C 1.1505(9) 0.5405(4) 1.0190(4) 0.070(3) Uani 1 1 d . .
H37 H 1.1717 0.5283 1.0500 0.084 Uiso 1 1 calc R .
C38 C 1.0838(9) 0.5137(4) 0.9931(4) 0.073(3) Uani 1 1 d . .
H38 H 1.0597 0.4838 1.0070 0.088 Uiso 1 1 calc R .
C39 C 0.3874(8) 0.4476(3) 0.7195(4) 0.062(3) Uani 1 1 d . .
H39 H 0.4262 0.4236 0.7394 0.074 Uiso 1 1 calc R .
C40 C 0.3690(7) 0.4929(3) 0.7509(4) 0.060(2) Uani 1 1 d . .
H40 H 0.3287 0.5169 0.7318 0.072 Uiso 1 1 calc R .
C41 C 0.3136(11) 0.4776(4) 0.7984(5) 0.090(4) Uani 1 1 d . .
H41A H 0.3532 0.4546 0.8184 0.107 Uiso 1 1 calc R .
H41B H 0.2991 0.5074 0.8185 0.107 Uiso 1 1 calc R .
C42 C 0.2202(11) 0.4519(5) 0.7827(7) 0.110(5) Uani 1 1 d . .
H42A H 0.1834 0.4426 0.8125 0.133 Uiso 1 1 calc R .
H42B H 0.1808 0.4757 0.7636 0.133 Uiso 1 1 calc R .
C43 C 0.2375(12) 0.4066(5) 0.7524(8) 0.130(8) Uani 1 1 d . .
H43A H 0.1756 0.3914 0.7427 0.156 Uiso 1 1 calc R .
H43B H 0.2744 0.3818 0.7717 0.156 Uiso 1 1 calc R .
C44 C 0.2952(10) 0.4223(5) 0.7056(6) 0.087(4) Uani 1 1 d . .
H44A H 0.3094 0.3924 0.6856 0.105 Uiso 1 1 calc R .
H44B H 0.2557 0.4452 0.6854 0.105 Uiso 1 1 calc R .
C45 C 0.4919(8) 0.4188(3) 0.6539(3) 0.054(2) Uani 1 1 d . .
H45A H 0.4419 0.3937 0.6466 0.064 Uiso 1 1 calc R .
H45B H 0.5366 0.4039 0.6781 0.064 Uiso 1 1 calc R .
C48 C 0.6084(5) 0.39669(16) 0.52939(17) 0.058(3) Uani 1 1 d . .
C47 C 0.5532(5) 0.39123(16) 0.57171(19) 0.057(2) Uani 1 1 d G .
H47 H 0.5189 0.3612 0.5773 0.068 Uiso 1 1 calc R .
C46 C 0.5483(4) 0.42969(18) 0.60586(17) 0.050(2) Uani 1 1 d G .
C51 C 0.5985(5) 0.47361(15) 0.59768(16) 0.053(2) Uani 1 1 d G .
C49 C 0.6537(5) 0.47907(17) 0.55536(18) 0.053(2) Uani 1 1 d G .
C50 C 0.6586(4) 0.4406(2) 0.52121(16) 0.058(2) Uani 1 1 d G .
H50 H 0.6963 0.4443 0.4923 0.069 Uiso 1 1 calc R .
C52 C 0.7105(9) 0.5274(3) 0.5457(4) 0.065(3) Uani 1 1 d . .
C53 C 0.7677(10) 0.5260(4) 0.4966(4) 0.081(4) Uani 1 1 d . .
H53A H 0.8172 0.5002 0.4985 0.122 Uiso 1 1 calc GR .
H53B H 0.7981 0.5584 0.4910 0.122 Uiso 1 1 calc GR .
H53C H 0.7239 0.5186 0.4694 0.122 Uiso 1 1 calc GR .
C54 C 0.6476(10) 0.5735(4) 0.5451(5) 0.080(3) Uani 1 1 d . .
H54A H 0.6061 0.5727 0.5160 0.120 Uiso 1 1 calc GR .
H54B H 0.6881 0.6032 0.5441 0.120 Uiso 1 1 calc GR .
H54C H 0.6078 0.5741 0.5749 0.120 Uiso 1 1 calc GR .
C55 C 0.7863(8) 0.5361(5) 0.5867(4) 0.077(3) Uani 1 1 d . .
H55A H 0.7541 0.5382 0.6187 0.115 Uiso 1 1 calc GR .
H55B H 0.8206 0.5673 0.5802 0.115 Uiso 1 1 calc GR .
H55C H 0.8321 0.5085 0.5870 0.115 Uiso 1 1 calc GR .
C56 C 0.6107(9) 0.3552(3) 0.4933(3) 0.059(3) Uani 1 1 d . .
C57 C 0.5452(9) 0.3174(4) 0.4936(4) 0.073(3) Uani 1 1 d . .
H57 H 0.4965 0.3176 0.5181 0.087 Uiso 1 1 calc R .
C58 C 0.5466(9) 0.2789(4) 0.4598(4) 0.074(3) Uani 1 1 d . .
H58 H 0.5014 0.2527 0.4631 0.089 Uiso 1 1 calc R .
C59 C 0.6713(10) 0.3146(4) 0.4205(4) 0.078(3) Uani 1 1 d . .
H59 H 0.7147 0.3157 0.3935 0.094 Uiso 1 1 calc R .
C60 C 0.6775(10) 0.3524(4) 0.4551(4) 0.077(3) Uani 1 1 d . .
H60 H 0.7272 0.3765 0.4528 0.093 Uiso 1 1 calc R .
C61 C 0.4509(9) 0.5672(3) 0.7839(4) 0.066(3) Uani 1 1 d . .
H61A H 0.5150 0.5830 0.7865 0.080 Uiso 1 1 calc R .
H61B H 0.4239 0.5645 0.8175 0.080 Uiso 1 1 calc R .
C62 C 0.3865(4) 0.59971(19) 0.75305(16) 0.051(2) Uani 1 1 d . .
C67 C 0.3923(4) 0.60012(19) 0.70194(17) 0.051(2) Uani 1 1 d G .
C66 C 0.3278(5) 0.6283(2) 0.67460(13) 0.060(3) Uani 1 1 d G .
C65 C 0.2575(4) 0.6561(2) 0.69838(18) 0.061(3) Uani 1 1 d G .
H65 H 0.2134 0.6753 0.6797 0.073 Uiso 1 1 calc R .
C64 C 0.2517(4) 0.6556(2) 0.74949(19) 0.060(3) Uani 1 1 d G .
C63 C 0.3163(5) 0.6275(2) 0.77683(13) 0.056(2) Uani 1 1 d G .
H63 H 0.3123 0.6272 0.8118 0.067 Uiso 1 1 calc R .
C68 C 0.3340(10) 0.6271(4) 0.6180(4) 0.076(4) Uani 1 1 d . .
C71 C 0.3173(15) 0.5724(5) 0.5994(5) 0.125(6) Uani 1 1 d . .
H71A H 0.3668 0.5505 0.6132 0.188 Uiso 1 1 calc GR .
H71B H 0.3210 0.5716 0.5633 0.188 Uiso 1 1 calc GR .
H71C H 0.2538 0.5609 0.6100 0.188 Uiso 1 1 calc GR .
C70 C 0.4305(12) 0.6512(5) 0.6000(4) 0.100(5) Uani 1 1 d . .
H70A H 0.4364 0.6848 0.6138 0.151 Uiso 1 1 calc GR .
H70B H 0.4307 0.6531 0.5640 0.151 Uiso 1 1 calc GR .
H70C H 0.4847 0.6308 0.6111 0.151 Uiso 1 1 calc GR .
C69 C 0.2509(12) 0.6600(6) 0.5959(5) 0.113(6) Uani 1 1 d . .
H69A H 0.1888 0.6451 0.6042 0.170 Uiso 1 1 calc GR .
H69B H 0.2578 0.6618 0.5600 0.170 Uiso 1 1 calc GR .
H69C H 0.2545 0.6936 0.6098 0.170 Uiso 1 1 calc GR .
C72 C 0.1776(9) 0.6850(3) 0.7755(4) 0.063(3) Uani 1 1 d . .
C76 C 0.1346(12) 0.6672(4) 0.8187(5) 0.104(6) Uani 1 1 d . .
H76 H 0.1542 0.6361 0.8319 0.125 Uiso 1 1 calc R .
C75 C 0.0655(10) 0.6939(4) 0.8418(5) 0.090(4) Uani 1 1 d . .
H75 H 0.0330 0.6787 0.8687 0.108 Uiso 1 1 calc R .
C74 C 0.0824(9) 0.7583(3) 0.7886(4) 0.071(3) Uani 1 1 d . .
H74 H 0.0651 0.7908 0.7779 0.085 Uiso 1 1 calc R .
C73 C 0.1478(9) 0.7328(4) 0.7624(4) 0.073(3) Uani 1 1 d . .
H73 H 0.1748 0.7478 0.7339 0.087 Uiso 1 1 calc R .
C79 C 1.3928(13) 0.5384(5) 1.0380(8) 0.109(6) Uani 1 1 d . .
C80 C 1.4385(14) 0.4847(7) 1.0335(9) 0.148(8) Uani 1 1 d . .
H80A H 1.4079 0.4667 1.0063 0.221 Uiso 1 1 calc GR .
H80B H 1.4284 0.4664 1.0644 0.221 Uiso 1 1 calc GR .
H80C H 1.5075 0.4876 1.0272 0.221 Uiso 1 1 calc GR .
C81 C -0.1729(15) 0.7605(9) 0.7768(8) 0.119(6) Uani 1 1 d . .
C82 C -0.215(2) 0.7538(11) 0.7236(12) 0.27(2) Uani 1 1 d . .
H82A H -0.2115 0.7857 0.7060 0.404 Uiso 1 1 calc GR .
H82B H -0.2815 0.7428 0.7257 0.404 Uiso 1 1 calc GR .
H82C H -0.1767 0.7289 0.7058 0.404 Uiso 1 1 calc GR .
C83 C 0.0241(13) 0.8548(5) 0.9128(7) 0.121(5) Uani 1 1 d D U
C84 C 0.0970(15) 0.8891(7) 0.9436(9) 0.158(8) Uani 1 1 d D U
H84A H 0.0791 0.8885 0.9785 0.237 Uiso 1 1 calc GR .
H84B H 0.0938 0.9234 0.9313 0.237 Uiso 1 1 calc GR .
H84C H 0.1625 0.8764 0.9398 0.237 Uiso 1 1 calc GR .
C85 C -0.3139(11) 0.8119(5) 0.8965(4) 0.076(3) Uani 1 1 d . .
C86 C -0.3683(13) 0.7803(7) 0.8545(8) 0.137(7) Uani 1 1 d . .
H86A H -0.3395 0.7875 0.8224 0.205 Uiso 1 1 calc GR .
H86B H -0.4363 0.7895 0.8540 0.205 Uiso 1 1 calc GR .
H86C H -0.3621 0.7447 0.8617 0.205 Uiso 1 1 calc GR .
loop_
_atom_site_aniso_label
_atom_site_aniso_U_11
_atom_site_aniso_U_22
_atom_site_aniso_U_33
_atom_site_aniso_U_23
_atom_site_aniso_U_13
_atom_site_aniso_U_12
Cd1 0.0737(6) 0.0670(4) 0.0651(4) 0.0167(3) -0.0203(4) -0.0151(4)
Cd2 0.0847(6) 0.0686(4) 0.0715(4) 0.0216(4) 0.0279(4) 0.0294(4)
Ti1 0.0552(11) 0.0391(6) 0.0524(8) -0.0063(5) -0.0059(8) 0.0034(7)
Ti2 0.0518(11) 0.0424(7) 0.0462(7) -0.0067(6) -0.0016(7) 0.0042(7)
O2 0.057(4) 0.040(3) 0.062(3) -0.010(2) 0.001(3) 0.001(3)
O1 0.080(6) 0.038(3) 0.067(4) -0.006(3) -0.025(4) 0.001(3)
O3 0.062(4) 0.048(3) 0.051(3) -0.008(2) 0.005(3) -0.008(3)
O4 0.060(5) 0.054(3) 0.046(3) -0.004(2) -0.004(3) 0.013(3)
O5 0.051(4) 0.046(3) 0.061(3) -0.011(2) -0.001(3) 0.006(3)
O6 0.067(5) 0.058(3) 0.053(3) -0.003(3) 0.010(3) 0.009(3)
O7 0.065(5) 0.048(3) 0.069(4) -0.011(3) -0.008(3) -0.005(3)
O8 0.124(10) 0.080(6) 0.123(9) 0.016(6) -0.044(7) -0.013(6)
O9 0.097(9) 0.130(8) 0.140(9) 0.035(8) -0.029(8) -0.029(7)
O10 0.125(12) 0.168(11) 0.090(7) 0.048(8) 0.006(7) 0.064(9)
O11 0.187(14) 0.156(10) 0.092(7) 0.039(8) -0.002(9) 0.016(10)
O12 0.166(10) 0.090(6) 0.182(10) -0.018(7) 0.081(10) -0.029(6)
O13 0.085(8) 0.083(6) 0.196(13) 0.009(7) 0.027(8) 0.007(5)
O14 0.076(7) 0.092(6) 0.092(6) -0.010(4) 0.009(5) 0.009(5)
O15 0.107(10) 0.198(11) 0.094(7) -0.022(8) 0.020(7) 0.043(8)
N1 0.047(5) 0.051(4) 0.068(5) 0.001(3) -0.011(4) 0.002(4)
N2 0.053(5) 0.043(3) 0.063(4) -0.001(3) -0.004(4) 0.003(4)
N3 0.081(7) 0.052(4) 0.077(5) -0.026(4) -0.007(6) 0.019(5)
N4 0.073(7) 0.066(5) 0.084(6) 0.021(4) -0.031(6) -0.015(5)
N5 0.051(5) 0.058(4) 0.050(4) -0.004(3) 0.000(4) 0.002(4)
N6 0.059(6) 0.055(4) 0.055(4) 0.004(3) 0.008(4) 0.014(4)
N7 0.104(8) 0.062(5) 0.060(5) -0.014(4) -0.003(5) 0.020(5)
N8 0.082(8) 0.067(5) 0.080(6) 0.021(4) 0.025(5) 0.034(5)
C1 0.074(9) 0.050(5) 0.070(6) 0.010(4) -0.026(6) -0.009(5)
C77 0.104(13) 0.140(12) 0.061(7) 0.001(7) -0.002(7) 0.010(10)
C2 0.042(6) 0.047(4) 0.084(6) 0.003(4) -0.014(5) -0.009(4)
C3 0.059(9) 0.094(8) 0.101(9) -0.011(7) 0.009(7) -0.020(6)
C4 0.076(11) 0.131(12) 0.122(12) -0.011(10) 0.005(9) -0.040(9)
C5 0.078(11) 0.113(11) 0.128(12) 0.006(10) -0.005(9) -0.034(8)
C6 0.081(10) 0.057(6) 0.135(11) 0.007(6) -0.042(9) -0.019(6)
C7 0.056(7) 0.050(4) 0.070(5) -0.012(4) 0.006(5) -0.004(4)
C78 0.102(13) 0.054(6) 0.200(18) 0.019(8) -0.049(12) -0.019(7)
C13 0.048(7) 0.043(4) 0.063(5) -0.009(4) -0.007(4) 0.007(4)
C12 0.064(7) 0.036(4) 0.054(5) -0.001(3) -0.003(4) 0.008(4)
C11 0.063(7) 0.045(4) 0.064(5) -0.008(4) -0.006(5) -0.005(4)
C10 0.060(7) 0.049(4) 0.065(5) -0.011(4) -0.005(5) 0.008(5)
C9 0.063(8) 0.064(5) 0.063(5) -0.012(4) 0.011(5) 0.009(5)
C8 0.053(7) 0.044(4) 0.064(5) -0.005(4) -0.006(5) 0.002(4)
C14 0.078(8) 0.040(4) 0.072(6) -0.001(4) 0.004(5) -0.011(5)
C15 0.065(8) 0.066(6) 0.088(7) 0.001(5) 0.018(6) 0.003(5)
C16 0.093(10) 0.063(5) 0.067(6) 0.008(5) -0.009(6) -0.006(6)
C17 0.084(9) 0.046(5) 0.086(7) 0.003(5) 0.014(6) -0.006(5)
C18 0.064(8) 0.051(4) 0.059(5) -0.009(4) -0.003(5) 0.003(5)
C19 0.093(10) 0.065(6) 0.092(8) -0.030(6) 0.007(7) -0.020(6)
C20 0.100(11) 0.074(7) 0.080(7) -0.014(6) 0.020(7) -0.011(7)
C21 0.085(11) 0.098(9) 0.108(10) -0.041(8) -0.007(9) -0.023(8)
C22 0.092(11) 0.082(7) 0.094(8) -0.031(6) 0.013(8) 0.001(7)
C23 0.069(7) 0.043(4) 0.063(5) -0.011(4) -0.017(5) 0.013(4)
C24 0.063(7) 0.049(4) 0.064(5) -0.011(4) -0.026(5) 0.009(4)
C29 0.069(7) 0.054(5) 0.056(5) -0.006(4) -0.016(5) 0.004(5)
C28 0.085(8) 0.048(4) 0.063(5) -0.004(4) -0.019(6) 0.006(5)
C27 0.070(8) 0.069(6) 0.068(6) 0.003(5) -0.015(6) 0.011(5)
C26 0.065(8) 0.054(5) 0.073(6) -0.002(4) -0.010(5) -0.003(5)
C25 0.073(8) 0.048(4) 0.062(5) -0.003(4) -0.016(5) 0.002(5)
C30 0.138(14) 0.042(5) 0.106(9) -0.002(5) -0.051(9) 0.004(7)
C31 0.18(2) 0.060(6) 0.140(13) -0.031(8) -0.018(13) 0.044(10)
C32 0.179(18) 0.060(6) 0.111(10) 0.017(6) -0.061(12) -0.010(9)
C33 0.21(2) 0.067(8) 0.24(3) -0.006(12) -0.14(2) 0.025(11)
C34 0.056(7) 0.063(5) 0.065(6) 0.003(4) -0.011(5) -0.004(5)
C35 0.088(11) 0.108(9) 0.091(8) 0.034(7) -0.035(8) -0.037(8)
C36 0.097(11) 0.085(7) 0.108(9) 0.016(7) -0.057(9) -0.030(7)
C37 0.072(8) 0.076(6) 0.062(5) 0.012(5) -0.018(5) -0.007(6)
C38 0.076(9) 0.059(5) 0.084(7) 0.014(5) -0.020(6) -0.012(6)
C39 0.056(7) 0.058(5) 0.072(6) 0.000(4) 0.017(5) 0.001(5)
C40 0.041(6) 0.057(5) 0.082(6) 0.001(4) 0.009(5) 0.008(4)
C41 0.102(11) 0.074(6) 0.093(8) -0.009(6) 0.044(8) -0.005(7)
C42 0.074(11) 0.111(10) 0.146(14) -0.019(10) 0.051(10) -0.013(8)
C43 0.091(12) 0.078(8) 0.22(2) -0.023(10) 0.091(14) -0.020(8)
C44 0.061(9) 0.085(7) 0.116(10) -0.019(7) 0.013(7) -0.006(6)
C45 0.062(7) 0.041(4) 0.057(5) -0.005(3) 0.004(4) -0.008(4)
C48 0.069(7) 0.048(4) 0.055(5) -0.007(3) -0.002(5) 0.011(5)
C47 0.065(7) 0.047(4) 0.058(5) -0.010(4) -0.008(5) -0.006(4)
C46 0.056(6) 0.043(4) 0.050(4) -0.007(3) 0.006(4) 0.003(4)
C51 0.062(7) 0.050(4) 0.048(4) -0.005(3) -0.008(4) 0.008(4)
C49 0.059(7) 0.055(4) 0.046(4) -0.010(3) -0.001(4) 0.006(4)
C50 0.061(7) 0.063(5) 0.048(4) -0.007(4) 0.000(4) 0.002(5)
C52 0.082(8) 0.055(5) 0.058(5) -0.003(4) 0.008(5) -0.010(5)
C53 0.090(10) 0.080(7) 0.073(6) -0.005(5) 0.022(6) -0.015(7)
C54 0.105(11) 0.063(5) 0.073(6) 0.006(5) 0.009(7) 0.004(6)
C55 0.051(8) 0.101(8) 0.078(7) -0.016(6) -0.006(6) -0.015(6)
C56 0.072(8) 0.056(5) 0.050(5) -0.003(4) 0.001(5) 0.006(5)
C57 0.076(9) 0.071(6) 0.071(6) -0.023(5) 0.011(6) -0.013(6)
C58 0.078(8) 0.069(6) 0.076(6) -0.023(5) 0.000(6) -0.013(6)
C59 0.097(11) 0.072(6) 0.066(6) -0.018(5) 0.009(6) 0.000(7)
C60 0.083(9) 0.071(6) 0.079(7) -0.030(5) 0.022(7) -0.007(6)
C61 0.084(9) 0.063(5) 0.052(5) -0.005(4) -0.005(5) 0.015(5)
C62 0.057(7) 0.046(4) 0.050(4) -0.005(3) -0.006(4) 0.005(4)
C67 0.054(7) 0.046(4) 0.053(4) -0.009(3) 0.002(4) 0.000(4)
C66 0.075(8) 0.047(4) 0.058(5) -0.002(4) -0.003(5) 0.005(5)
C65 0.068(8) 0.054(5) 0.061(5) -0.009(4) -0.007(5) 0.014(5)
C64 0.067(7) 0.052(5) 0.060(5) -0.006(4) 0.010(5) 0.013(5)
C63 0.056(6) 0.060(5) 0.052(4) -0.002(4) 0.006(4) 0.014(5)
C68 0.102(11) 0.072(6) 0.055(5) -0.012(5) -0.006(6) 0.027(7)
C71 0.186(19) 0.107(10) 0.083(8) -0.043(8) -0.046(11) 0.024(12)
C70 0.142(16) 0.099(8) 0.060(6) 0.002(6) 0.007(8) 0.051(9)
C69 0.131(15) 0.131(11) 0.078(8) -0.003(8) -0.020(9) 0.062(11)
C72 0.065(8) 0.052(4) 0.072(6) -0.012(4) 0.005(6) 0.010(5)
C76 0.138(15) 0.065(6) 0.111(10) 0.038(6) 0.060(10) 0.036(8)
C75 0.093(11) 0.077(7) 0.101(9) 0.020(6) 0.035(8) 0.041(7)
C74 0.073(9) 0.049(5) 0.092(7) 0.006(5) 0.025(7) 0.015(5)
C73 0.082(9) 0.059(5) 0.077(6) 0.019(5) 0.013(6) 0.012(6)
C79 0.089(12) 0.087(9) 0.152(15) 0.005(10) -0.058(12) -0.006(8)
C80 0.112(16) 0.153(16) 0.18(2) 0.019(15) -0.033(15) 0.027(13)
C81 0.084(15) 0.153(16) 0.122(14) 0.000(14) 0.023(11) 0.029(12)
C82 0.31(5) 0.23(3) 0.27(4) 0.10(3) -0.17(4) -0.10(3)
C83 0.135(11) 0.077(7) 0.151(10) -0.010(7) 0.098(9) -0.016(7)
C84 0.138(15) 0.137(13) 0.198(19) -0.050(14) 0.052(13) -0.007(11)
C85 0.080(10) 0.090(7) 0.057(6) 0.001(5) 0.004(7) 0.034(7)
C86 0.096(14) 0.169(16) 0.145(16) 0.038(15) 0.005(12) 0.018(12)
loop_
_atom_type_symbol
_atom_type_description
_atom_type_scat_dispersion_real
_atom_type_scat_dispersion_imag
_atom_type_scat_source
C C 0.0181 0.0091 'International Tables Vol C Tables 4.2.6.8 and 6.1.1.4'
H H 0.0000 0.0000 'International Tables Vol C Tables 4.2.6.8 and 6.1.1.4'
Cd Cd 0.1185 4.6533 'International Tables Vol C Tables 4.2.6.8 and 6.1.1.4'
N N 0.0311 0.0180 'International Tables Vol C Tables 4.2.6.8 and 6.1.1.4'
O O 0.0492 0.0322 'International Tables Vol C Tables 4.2.6.8 and 6.1.1.4'
Ti Ti 0.2191 1.8069 'International Tables Vol C Tables 4.2.6.8 and 6.1.1.4'
loop_
_geom_angle_atom_site_label_1
_geom_angle_atom_site_label_2
_geom_angle_atom_site_label_3
_geom_angle
_geom_angle_site_symmetry_1
_geom_angle_site_symmetry_3
O8 Cd1 O9 55.6(4) . .
O8 Cd1 O13 90.3(4) . 3_667
O8 Cd1 N4 85.7(3) . .
O8 Cd1 C79 27.0(5) . .
O9 Cd1 O13 86.8(4) . 3_667
O9 Cd1 C79 28.7(5) . .
O13 Cd1 C79 90.3(4) 3_667 .
O14 Cd1 O8 102.2(4) 3_667 .
O14 Cd1 O9 151.8(4) 3_667 .
O14 Cd1 O13 75.4(4) 3_667 3_667
O14 Cd1 N4 118.5(4) 3_667 .
O14 Cd1 C79 128.1(5) 3_667 .
N3 Cd1 O8 148.2(5) 4_756 .
N3 Cd1 O9 92.8(4) 4_756 .
N3 Cd1 O13 85.4(4) 4_756 3_667
N3 Cd1 O14 107.1(3) 4_756 3_667
N3 Cd1 N4 91.0(3) 4_756 .
N3 Cd1 C79 121.5(6) 4_756 .
N4 Cd1 O9 79.9(4) . .
N4 Cd1 O13 166.1(4) . 3_667
N4 Cd1 C79 80.1(4) . .
O10 Cd2 O11 54.3(5) . .
O10 Cd2 O12 93.8(6) . .
O10 Cd2 O13 134.2(5) . .
O10 Cd2 O14 90.2(4) . .
O10 Cd2 N7 141.0(5) . 2_565
O10 Cd2 N8 86.3(4) . .
O10 Cd2 C81 27.6(5) . .
O11 Cd2 C81 26.7(5) . .
O12 Cd2 O11 146.1(5) . .
O12 Cd2 C81 120.4(7) . .
O13 Cd2 O11 162.5(5) . .
O13 Cd2 O12 49.5(4) . .
O13 Cd2 C81 159.2(6) . .
O14 Cd2 O11 91.4(4) . .
O14 Cd2 O12 100.8(4) . .
O14 Cd2 O13 74.5(3) . .
O14 Cd2 C81 92.1(5) . .
N7 Cd2 O11 86.7(4) 2_565 .
N7 Cd2 O12 124.1(5) 2_565 .
N7 Cd2 O13 83.3(4) 2_565 .
N7 Cd2 O14 91.2(3) 2_565 .
N7 Cd2 N8 89.7(3) 2_565 .
N7 Cd2 C81 113.4(6) 2_565 .
N8 Cd2 O11 84.2(5) . .
N8 Cd2 O12 82.4(4) . .
N8 Cd2 O13 110.1(4) . .
N8 Cd2 O14 175.4(4) . .
N8 Cd2 C81 83.4(5) . .
O2 Ti1 O1 92.6(3) . .
O2 Ti1 N1 158.1(3) . .
O2 Ti1 N2 82.3(3) . .
O1 Ti1 N1 80.0(3) . .
O1 Ti1 N2 87.2(3) . .
O5 Ti1 O2 99.9(3) . .
O5 Ti1 O1 165.1(3) . .
O5 Ti1 O6 92.1(3) . .
O5 Ti1 N1 85.5(3) . .
O5 Ti1 N2 86.5(3) . .
O6 Ti1 O2 102.5(3) . .
O6 Ti1 O1 93.1(3) . .
O6 Ti1 N1 98.5(3) . .
O6 Ti1 N2 175.2(3) . .
N1 Ti1 N2 76.8(3) . .
O3 Ti2 O4 95.3(3) . .
O3 Ti2 N5 82.2(3) . .
O3 Ti2 N6 157.4(3) . .
O4 Ti2 N5 87.7(3) . .
O4 Ti2 N6 79.8(3) . .
O5 Ti2 O3 100.1(3) . .
O5 Ti2 O4 163.0(3) . .
O5 Ti2 O7 91.8(3) . .
O5 Ti2 N5 87.3(3) . .
O5 Ti2 N6 83.2(3) . .
O7 Ti2 O3 101.3(3) . .
O7 Ti2 O4 92.2(3) . .
O7 Ti2 N5 176.5(3) . .
O7 Ti2 N6 101.0(3) . .
N6 Ti2 N5 75.6(3) . .
C13 O2 Ti1 138.7(5) . .
C29 O1 Ti1 140.5(4) . .
C51 O3 Ti2 140.9(5) . .
C67 O4 Ti2 139.5(4) . .
Ti2 O5 Ti1 155.5(3) . .
C77 O6 Ti1 132.8(9) . .
C78 O7 Ti2 131.6(8) . .
C79 O8 Cd1 94.6(10) . .
C79 O9 Cd1 88.0(12) . .
C81 O10 Cd2 93.9(12) . .
C81 O11 Cd2 85.5(14) . .
C83 O12 Cd2 96.9(10) . .
Cd2 O13 Cd1 102.4(5) . 3_367
C83 O13 Cd1 126.8(10) . 3_367
C83 O13 Cd2 99.9(13) . .
Cd1 O14 Cd2 107.6(4) 3_367 .
C85 O14 Cd1 105.3(8) . 3_367
C85 O14 Cd2 133.1(8) . .
C1 N1 Ti1 112.2(6) . .
C23 N1 Ti1 109.7(6) . .
C23 N1 C1 114.6(8) . .
C2 N2 Ti1 110.7(6) . .
C7 N2 Ti1 112.1(6) . .
C7 N2 C2 110.3(7) . .
C20 N3 Cd1 124.5(8) . 4_746
C20 N3 C21 113.5(9) . .
C21 N3 Cd1 122.0(8) . 4_746
C36 N4 Cd1 120.4(8) . .
C36 N4 C37 116.0(10) . .
C37 N4 Cd1 123.7(7) . .
C39 N5 Ti2 112.3(6) . .
C39 N5 C45 111.3(7) . .
C45 N5 Ti2 110.6(6) . .
C40 N6 Ti2 111.4(6) . .
C61 N6 Ti2 108.9(6) . .
C61 N6 C40 113.4(8) . .
C58 N7 Cd2 118.3(8) . 2_564
C59 N7 Cd2 126.1(8) . 2_564
C59 N7 C58 115.2(9) . .
C75 N8 Cd2 125.5(8) . .
C75 N8 C74 115.8(10) . .
C74 N8 Cd2 117.5(7) . .
N1 C1 C2 111.6(8) . .
N1 C1 C6 113.2(10) . .
C2 C1 C6 110.2(10) . .
N2 C2 C3 113.3(8) . .
C1 C2 N2 108.6(8) . .
C1 C2 C3 112.2(9) . .
C4 C3 C2 112.3(11) . .
C3 C4 C5 105.5(13) . .
C6 C5 C4 115.1(12) . .
C1 C6 C5 109.7(11) . .
N2 C7 C8 115.3(7) . .
O2 C13 C12 120.0(5) . .
O2 C13 C8 120.0(4) . .
C12 C13 C8 120.0 . .
C13 C12 C11 120.0 . .
C13 C12 C14 121.0(5) . .
C11 C12 C14 119.0(5) . .
C10 C11 C12 120.0 . .
C11 C10 C18 122.3(5) . .
C9 C10 C11 120.0 . .
C9 C10 C18 117.7(5) . .
C10 C9 C8 120.0 . .
C13 C8 C7 124.8(5) . .
C9 C8 C7 115.1(5) . .
C9 C8 C13 120.0 . .
C12 C14 C15 110.8(8) . .
C12 C14 C16 110.0(9) . .
C12 C14 C17 113.8(8) . .
C15 C14 C17 104.9(9) . .
C16 C14 C15 108.9(9) . .
C16 C14 C17 108.3(9) . .
C19 C18 C10 124.3(9) . .
C19 C18 C22 113.8(10) . .
C22 C18 C10 121.8(10) . .
C18 C19 C20 124.0(12) . .
C19 C20 N3 123.5(12) . .
C22 C21 N3 123.7(12) . .
C21 C22 C18 121.3(13) . .
N1 C23 C24 109.1(7) . .
C29 C24 C23 121.0(5) . .
C29 C24 C25 120.0 . .
C25 C24 C23 119.0(5) . .
O1 C29 C24 118.0(4) . .
O1 C29 C28 121.9(4) . .
C28 C29 C24 120.0 . .
C29 C28 C27 120.0 . .
C29 C28 C30 121.5(6) . .
C27 C28 C30 118.5(6) . .
C26 C27 C28 120.0 . .
C27 C26 C25 120.0 . .
C27 C26 C34 119.8(5) . .
C25 C26 C34 120.2(5) . .
C26 C25 C24 120.0 . .
C31 C30 C28 109.9(10) . .
C32 C30 C28 106.7(12) . .
C32 C30 C31 110.1(13) . .
C32 C30 C33 114.6(14) . .
C33 C30 C28 111.9(11) . .
C33 C30 C31 103.6(16) . .
C35 C34 C26 118.1(9) . .
C38 C34 C26 125.7(9) . .
C38 C34 C35 116.0(11) . .
C34 C35 C36 120.1(12) . .
N4 C36 C35 123.1(12) . .
N4 C37 C38 122.1(10) . .
C34 C38 C37 122.4(10) . .
N5 C39 C40 108.5(8) . .
N5 C39 C44 113.5(10) . .
C44 C39 C40 111.2(9) . .
N6 C40 C39 109.1(8) . .
N6 C40 C41 111.6(10) . .
C39 C40 C41 109.8(8) . .
C42 C41 C40 108.0(12) . .
C43 C42 C41 112.6(12) . .
C42 C43 C44 108.2(11) . .
C39 C44 C43 111.1(13) . .
N5 C45 C46 115.7(6) . .
C47 C48 C50 120.0 . .
C47 C48 C56 118.6(5) . .
C50 C48 C56 121.4(5) . .
C48 C47 C46 120.0 . .
C47 C46 C45 116.5(4) . .
C51 C46 C45 123.3(4) . .
C51 C46 C47 120.0 . .
O3 C51 C46 119.3(4) . .
O3 C51 C49 120.6(4) . .
C49 C51 C46 120.0 . .
C51 C49 C52 120.8(5) . .
C50 C49 C51 120.0 . .
C50 C49 C52 119.2(5) . .
C49 C50 C48 120.0 . .
C49 C52 C53 112.9(8) . .
C49 C52 C55 110.8(8) . .
C54 C52 C49 113.0(9) . .
C54 C52 C53 107.9(9) . .
C54 C52 C55 106.1(9) . .
C55 C52 C53 105.6(10) . .
C57 C56 C48 122.7(9) . .
C57 C56 C60 114.3(9) . .
C60 C56 C48 123.0(9) . .
C56 C57 C58 122.9(11) . .
N7 C58 C57 122.0(11) . .
N7 C59 C60 125.4(11) . .
C59 C60 C56 120.0(11) . .
N6 C61 C62 112.0(8) . .
C67 C62 C61 121.7(5) . .
C67 C62 C63 120.0 . .
C63 C62 C61 118.2(5) . .
O4 C67 C62 118.7(4) . .
O4 C67 C66 121.3(4) . .
C62 C67 C66 120.0 . .
C67 C66 C68 119.0(6) . .
C65 C66 C67 120.0 . .
C65 C66 C68 120.9(6) . .
C66 C65 C64 120.0 . .
C65 C64 C72 120.9(6) . .
C63 C64 C65 120.0 . .
C63 C64 C72 119.1(6) . .
C64 C63 C62 120.0 . .
C66 C68 C71 109.4(10) . .
C66 C68 C70 110.4(10) . .
C66 C68 C69 109.1(9) . .
C71 C68 C69 107.1(12) . .
C70 C68 C71 114.4(12) . .
C70 C68 C69 106.3(11) . .
C76 C72 C64 121.2(9) . .
C73 C72 C64 125.1(10) . .
C73 C72 C76 113.6(10) . .
C75 C76 C72 120.8(10) . .
N8 C75 C76 124.4(12) . .
C73 C74 N8 122.7(9) . .
C74 C73 C72 122.5(10) . .
O8 C79 Cd1 58.5(8) . .
O8 C79 O9 121.4(15) . .
O8 C79 C80 122.9(18) . .
O9 C79 Cd1 63.3(9) . .
O9 C79 C80 116(2) . .
C80 C79 Cd1 177.0(13) . .
O10 C81 Cd2 58.5(11) . .
O10 C81 C82 113(2) . .
O11 C81 Cd2 67.8(13) . .
O11 C81 O10 126(2) . .
O11 C81 C82 120(2) . .
C82 C81 Cd2 171.8(18) . .
O12 C83 C84 124.8(15) . .
O13 C83 O12 111.5(19) . .
O13 C83 C84 123.3(17) . .
O14 C85 O15 121.2(15) . .
O14 C85 C86 119.4(11) . .
O15 C85 C86 119.4(16) . .
loop_
_geom_bond_atom_site_label_1
_geom_bond_atom_site_label_2
_geom_bond_distance
_geom_bond_site_symmetry_2
Cd1 O8 2.322(10) .
Cd1 O9 2.429(14) .
Cd1 O13 2.430(11) 3_667
Cd1 O14 2.295(9) 3_667
Cd1 N3 2.281(7) 4_756
Cd1 N4 2.341(9) .
Cd1 C79 2.716(16) .
Cd2 O10 2.260(11) .
Cd2 O11 2.457(16) .
Cd2 O12 2.421(12) .
Cd2 O13 2.403(14) .
Cd2 O14 2.370(9) .
Cd2 N7 2.331(8) 2_565
Cd2 N8 2.363(9) .
Cd2 C81 2.65(2) .
Ti1 O2 1.876(5) .
Ti1 O1 1.922(7) .
Ti1 O5 1.851(6) .
Ti1 O6 1.865(7) .
Ti1 N1 2.208(8) .
Ti1 N2 2.262(9) .
Ti2 O3 1.881(6) .
Ti2 O4 1.959(6) .
Ti2 O5 1.822(6) .
Ti2 O7 1.861(6) .
Ti2 N5 2.277(8) .
Ti2 N6 2.216(8) .
O2 C13 1.338(6) .
O1 C29 1.353(7) .
O3 C51 1.346(6) .
O4 C67 1.346(7) .
O6 C77 1.385(14) .
O7 C78 1.405(12) .
O8 C79 1.24(2) .
O9 C79 1.31(2) .
O10 C81 1.23(2) .
O11 C81 1.19(2) .
O12 C83 1.26(2) .
O13 Cd1 2.430(11) 3_367
O13 C83 1.188(16) .
O14 Cd1 2.295(9) 3_367
O14 C85 1.204(17) .
O15 C85 1.224(16) .
N1 C1 1.457(14) .
N1 C23 1.452(12) .
N2 C2 1.504(11) .
N2 C7 1.489(12) .
N3 Cd1 2.281(7) 4_746
N3 C20 1.349(15) .
N3 C21 1.369(18) .
N4 C36 1.292(16) .
N4 C37 1.367(13) .
N5 C39 1.453(13) .
N5 C45 1.484(11) .
N6 C40 1.478(13) .
N6 C61 1.474(11) .
N7 Cd2 2.331(8) 2_564
N7 C58 1.363(15) .
N7 C59 1.305(16) .
N8 C75 1.326(13) .
N8 C74 1.353(14) .
C1 C2 1.491(14) .
C1 C6 1.549(14) .
C2 C3 1.589(16) .
C3 C4 1.523(18) .
C4 C5 1.57(2) .
C5 C6 1.55(2) .
C7 C8 1.546(10) .
C13 C12 1.3900 .
C13 C8 1.3900 .
C12 C11 1.3900 .
C12 C14 1.548(11) .
C11 C10 1.3900 .
C10 C9 1.3900 .
C10 C18 1.496(9) .
C9 C8 1.3900 .
C14 C15 1.548(15) .
C14 C16 1.548(15) .
C14 C17 1.573(13) .
C18 C19 1.341(17) .
C18 C22 1.396(16) .
C19 C20 1.343(16) .
C21 C22 1.354(17) .
C23 C24 1.517(10) .
C24 C29 1.3900 .
C24 C25 1.3900 .
C29 C28 1.3900 .
C28 C27 1.3900 .
C28 C30 1.581(11) .
C27 C26 1.3900 .
C26 C25 1.3900 .
C26 C34 1.508(11) .
C30 C31 1.56(2) .
C30 C32 1.49(2) .
C30 C33 1.50(2) .
C34 C35 1.362(15) .
C34 C38 1.335(15) .
C35 C36 1.419(17) .
C37 C38 1.369(15) .
C39 C40 1.510(13) .
C39 C44 1.501(17) .
C40 C41 1.558(16) .
C41 C42 1.53(2) .
C42 C43 1.489(19) .
C43 C44 1.56(2) .
C45 C46 1.552(10) .
C48 C47 1.3900 .
C48 C50 1.3900 .
C48 C56 1.485(9) .
C47 C46 1.3900 .
C46 C51 1.3900 .
C51 C49 1.3900 .
C49 C50 1.3900 .
C49 C52 1.544(10) .
C52 C53 1.552(15) .
C52 C54 1.517(15) .
C52 C55 1.551(16) .
C56 C57 1.364(15) .
C56 C60 1.394(16) .
C57 C58 1.383(13) .
C59 C60 1.387(14) .
C61 C62 1.506(11) .
C62 C67 1.3900 .
C62 C63 1.3900 .
C67 C66 1.3900 .
C66 C65 1.3900 .
C66 C68 1.540(11) .
C65 C64 1.3900 .
C64 C63 1.3900 .
C64 C72 1.479(11) .
C68 C71 1.572(16) .
C68 C70 1.57(2) .
C68 C69 1.574(16) .
C72 C76 1.400(16) .
C72 C73 1.396(13) .
C76 C75 1.355(16) .
C74 C73 1.345(16) .
C79 C80 1.58(2) .
C81 C82 1.57(3) .
C83 C84 1.608(19) .
C85 C86 1.61(2) .
