#------------------------------------------------------------------------------
#$Date: 2015-12-09 14:36:34 +0200 (Wed, 09 Dec 2015) $
#$Revision: 171036 $
#$URL: svn://www.crystallography.net/cod/cif/7/03/68/7036838.cif $
#------------------------------------------------------------------------------
#
# This file is available in the Crystallography Open Database (COD),
# http://www.crystallography.net/
#
# All data on this site have been placed in the public domain by the
# contributors.
#
data_7036838
loop_
_publ_author_name
'Liu, Jian-Qiang'
'Li, X. F.'
'Gu, C. Y.'
'da Silva, J\'ulio C. S.'
'Barros, Amanda L.'
'J\'unior, Severino Alves'
'Li, B. H.'
'Ren, Fei'
'Batten, Stuart R.'
'Soares, Thereza A.'
_publ_section_title
;
 Combined Experimental and Simulation Study of Large Nanocage-based
 Metal-Organic Frameworks for Drug Delivery
;
_journal_issue                   44
_journal_name_full               'Dalton Trans.'
_journal_page_first              19370
_journal_page_last               19382
_journal_paper_doi               10.1039/C5DT02171E
_journal_volume                  44
_journal_year                    2015
_chemical_formula_moiety
'(C2 H8 N)+, [Sm3 (H2 O) (C3 H7 N O)2 (C21 H9 N O8)2] (C H O2)2]-, 18H(H2 O), 2 (C3 H7 N O)''
_chemical_formula_sum            'C58 H94 N7 O43 Sm3'
_chemical_formula_weight         2028.45
_space_group_crystal_system      cubic
_space_group_IT_number           204
_space_group_name_Hall           '-I 2 2 3'
_space_group_name_H-M_alt        'I m -3'
_symmetry_space_group_name_Hall  '-I 2 2 3'
_symmetry_space_group_name_H-M   'I m -3'
_atom_sites_solution_hydrogens   geom
_audit_creation_method           SHELXL-2014/7
_audit_update_record
;
2015-10-08 deposited with the CCDC.
2015-10-09 downloaded from the CCDC.
;
_cell_angle_alpha                90
_cell_angle_beta                 90
_cell_angle_gamma                90
_cell_formula_units_Z            24
_cell_length_a                   38.3513(17)
_cell_length_b                   38.3513
_cell_length_c                   38.3513
_cell_measurement_reflns_used    9856
_cell_measurement_temperature    293(2)
_cell_measurement_theta_max      26.5216
_cell_measurement_theta_min      2.2551
_cell_volume                     56408(3)
_computing_structure_refinement  'SHELXL-2014/7 (Sheldrick, 2014)'
_diffrn_ambient_temperature      293(2)
_diffrn_measured_fraction_theta_full 0.999
_diffrn_measured_fraction_theta_max 0.999
_diffrn_measurement_device_type  'Bruker SMART APEX'
_diffrn_measurement_method       '\w scans'
_diffrn_radiation_type           MoK\a
_diffrn_radiation_wavelength     0.71073
_diffrn_reflns_av_R_equivalents  0.0705
_diffrn_reflns_av_unetI/netI     0.0297
_diffrn_reflns_laue_measured_fraction_full 0.999
_diffrn_reflns_laue_measured_fraction_max 0.999
_diffrn_reflns_limit_h_max       48
_diffrn_reflns_limit_h_min       -49
_diffrn_reflns_limit_k_max       49
_diffrn_reflns_limit_k_min       -49
_diffrn_reflns_limit_l_max       39
_diffrn_reflns_limit_l_min       -49
_diffrn_reflns_number            175427
_diffrn_reflns_point_group_measured_fraction_full 0.999
_diffrn_reflns_point_group_measured_fraction_max 0.999
_diffrn_reflns_theta_full        25.242
_diffrn_reflns_theta_max         27.492
_diffrn_reflns_theta_min         1.679
_exptl_absorpt_coefficient_mu    1.934
_exptl_crystal_colour            colorless
_exptl_crystal_density_diffrn    1.433
_exptl_crystal_description       prism
_exptl_crystal_F_000             24504
_exptl_crystal_size_max          0.160
_exptl_crystal_size_mid          0.140
_exptl_crystal_size_min          0.120
_refine_diff_density_max         1.737
_refine_diff_density_min         -0.959
_refine_diff_density_rms         0.142
_refine_ls_extinction_coef       0.000032(4)
_refine_ls_extinction_expression Fc^*^=kFc[1+0.001xFc^2^\l^3^/sin(2\q)]^-1/4^
_refine_ls_extinction_method     'SHELXL-2014/7 (Sheldrick 2014'
_refine_ls_goodness_of_fit_ref   1.079
_refine_ls_hydrogen_treatment    constr
_refine_ls_matrix_type           full
_refine_ls_number_parameters     327
_refine_ls_number_reflns         11288
_refine_ls_number_restraints     282
_refine_ls_restrained_S_all      1.111
_refine_ls_R_factor_all          0.0756
_refine_ls_R_factor_gt           0.0577
_refine_ls_shift/su_max          0.001
_refine_ls_shift/su_mean         0.001
_refine_ls_structure_factor_coef Fsqd
_refine_ls_weighting_details
'w=1/[\s^2^(Fo^2^)+(0.0751P)^2^+657.8595P] where P=(Fo^2^+2Fc^2^)/3'
_refine_ls_weighting_scheme      calc
_refine_ls_wR_factor_gt          0.1479
_refine_ls_wR_factor_ref         0.1699
_reflns_number_gt                9271
_reflns_number_total             11288
_reflns_threshold_expression     'I > 2\s(I)'
_cod_data_source_file            c5dt02171e2.cif
_cod_data_source_block           sm
_cod_original_cell_volume        56408(8)
_cod_database_code               7036838
#BEGIN Tags that were not found in dictionaries:
_shelx_shelxl_version_number     2014/7
_shelx_estimated_absorpt_t_min   0.747
_shelx_estimated_absorpt_t_max   0.801
_shelx_res_file
;

    sm_sq.res created by SHELXL-2014/7

TITL  Im-3
rem   [Sm3 (H2O) (C3H7NO)2 (C21H9NO8)2 (C2HO2)2] found
rem   24 x (Me2NH2, 2DMF, 18water) not found, squeezed
rem   24 x C8H58N3O20 included in unit cell contents
CELL  0.71073 38.3513 38.3513 38.3513 90.000 90.000 90.000
ZERR  24       0.0017  0.0000  0.0000  0.000  0.000  0.000
LATT  2
SYMM -X,-Y,Z
SYMM -X,Y,-Z
SYMM  X,-Y,-Z
SYMM  Z,X,Y
SYMM  Z,-X,-Y
SYMM -Z,-X,Y
SYMM -Z,X,-Y
SYMM  Y,Z,X
SYMM -Y,Z,-X
SYMM  Y,-Z,-X
SYMM -Y,-Z,X
SFAC  C H N O Sm
rem UNIT  1200 864 96 552 72
UNIT  1392 2256 168 1032 72
ACTA
OMIT -3 55
OMIT  0   1   1
OMIT  0   0   2
OMIT  1   1   2
OMIT  2   3   3
OMIT  4   0   6
OMIT  2   2   6
OMIT  0   4   6
OMIT  0   0   8
OMIT  0   1   3
SIZE  0.16 0.14 0.12
TWIN  0 -1 0 -1 0 0 0 0 -1
L.S.  25 0 100
BOND  $H
CONF
FMAP  2
PLAN -1
EQIV  $1 1-X,Y,Z
EQIV  $2 X,-Y,Z
DFIX  1.25 0.01 C1 O1 C1 O2 C8 O3 C8 O4 C12 O5 C12 O6 C19 O7 C19 O8 =
                C26 O10 C27 O11 C27 O12
DFIX  2.17 0.01 O1 O2 O3 O4 O5 O6 O7 O8 O10 O10_$2 O11 O12
DFIX  1.50 0.01 C1 C2 C1 C2' C4 C8 C4' C8 C12 C13 C15 C19 C6 C9 C6' C9 C17 C20
DFIX  1.39 0.01 N1 C9 C9 C10 C10 C11 N1' C9' C9' C10' C10' C11' =
                N2 C20 C20 C21 C21 C22
DFIX  2.41 0.01 N1 C10 C9 C11 C9 C9_$1 C10 C10_$1 =
                N1' C10' C9' C11' C9' C9'_$1 C10' C10'_$1 =
                N2 C21 C20 C22 C20 C20_$2 C21 C21_$2
DFIX  2.78 0.01 N1 C11 C9 C10_$1 C10 C9_$1 =
                N1' C11' C9' C10'_$1 C10' C9'_$1 =
                N2 C22 C20 C21_$2 C21 C20_$2
FLAT  0.01 C1 C2 O1 O2
FLAT  0.01 C4 C8 O3 O4
FLAT  0.01 C1 C2' O1 O2
FLAT  0.01 C4' C8 O3 O4
FLAT  0.01 C12 C13 O5 O6
FLAT  0.01 C15 C19 O7 O8
FLAT  0.01 C1 C2 C3 C4 C5 C6 C7 C8 C9
FLAT  0.01 C1 C2' C3' C4' C5' C6' C7' C8 C9'
FLAT  0.01 N1 C9 C10 C11 C10_$1 C9_$1
FLAT  0.01 N1' C9' C10' C11' C10'_$1 C9'_$1
FLAT  0.01 N2 C20 C21 C22 C21_$2 C20_$2
EADP  N1 N1'
EADP  C2 C2'
EADP  C3 C3'
EADP  C4 C4'
EADP  C5 C5'
EADP  C6 C6'
EADP  C7 C7'
EADP  C9 C9'
EADP  C10 C10'
EADP  C11 C11'
ISOR  0.01 $C $N $O
EQIV  $3 0.5-Z,0.5-X,0.5-Y
FREE  Sm1 C26 Sm1 C27 Sm2 C8_$3 Sm2 C12
DFIX  1.37 0.01 H1 H1_$2
ABIN
WGHT    0.075100  657.859497
EXTI    0.000032
BASF   0.40080
FVAR       0.02717
SM1   5    0.309424    0.000000    0.185717    10.50000    0.06006    0.01936 =
         0.04902    0.00000    0.00754    0.00000
SM2   5    0.256927    0.088905    0.243329    11.00000    0.04746    0.01632 =
         0.05027    0.00122    0.00939    0.00000
O1    4    0.342390    0.038458    0.219268    11.00000    0.08804    0.06553 =
         0.12212   -0.02815    0.00988   -0.01003
O2    4    0.318490    0.087292    0.237757    11.00000    0.04918    0.04498 =
         0.07676   -0.00572    0.00473    0.00791
O3    4    0.382573    0.199820    0.238978    11.00000    0.02612    0.05325 =
         0.07625   -0.00257    0.01278   -0.00046
O4    4    0.438994    0.199864    0.232842    11.00000    0.03529    0.07128 =
         0.11766   -0.00445    0.00121    0.00296
O5    4    0.200451    0.061072    0.251158    11.00000    0.05639    0.03260 =
         0.12720    0.00930    0.03005    0.00302
O6    4    0.200252    0.116833    0.243490    11.00000    0.04458    0.04098 =
         0.09371    0.00762    0.00380   -0.00015
O7    4    0.087389    0.182071    0.255224    11.00000    0.04261    0.04870 =
         0.06994   -0.00018    0.01156    0.00061
O8    4    0.053728    0.160556    0.296215    11.00000    0.10068    0.08553 =
         0.15735    0.02693    0.08512    0.03361
O9    4    0.270657    0.147895    0.224488    11.00000    0.06343    0.03653 =
         0.06952    0.00381    0.01362   -0.00342
O10   4    0.267629    0.028313    0.230148    11.00000    0.05331    0.01900 =
         0.06756    0.00117   -0.00194    0.00718
O11   4    0.323719    0.000000    0.119087    10.50000    0.18326    0.13758 =
         0.14321    0.00000    0.01839    0.00000
O12   4    0.368568    0.000000    0.153253    10.50000    0.16090    0.12513 =
         0.14954    0.00000    0.01160    0.00000
O1W   4    0.249440    0.000000    0.158913    10.50000    0.15399    0.11846 =
         0.09263    0.00000   -0.02470    0.00000
AFIX 147  0.8400
H1    2    0.238535   -0.017847    0.165422    11.00000   -1.50000
AFIX   0
PART   1
N1    3    0.500000    0.097293    0.197117    10.25000    0.06841
PART   2
N1'   3    0.500000    0.085013    0.209327    10.25000    0.06841
PART   0
N2    3    0.094287    0.000000    0.289444    10.50000    0.09788    0.06275 =
         0.12844    0.00000    0.02818    0.00000
N3    3    0.301849    0.183061    0.187312    11.00000    0.06836    0.06603 =
         0.05168    0.03046   -0.00882   -0.03576
C1    1    0.343904    0.070708    0.226340    11.00000    0.06075    0.06247 =
         0.09957   -0.03564    0.01058   -0.01328
PART  1
AFIX  66
C2    1    0.376372    0.091853    0.220130    10.50000    0.08976
C3    1    0.376365    0.126727    0.229998    10.50000    0.05736
AFIX  43
H3    2    0.356602    0.136455    0.240139    10.50000   -1.20000
AFIX  65
C4    1    0.405896    0.147063    0.224708    10.50000    0.06086
C5    1    0.435435    0.132525    0.209551    10.50000    0.08254
AFIX  43
H5    2    0.455193    0.146131    0.206013    10.50000   -1.20000
AFIX  65
C6    1    0.435442    0.097650    0.199683    10.50000    0.08567
C7    1    0.405911    0.077314    0.204972    10.50000    0.12602
AFIX  43
H7    2    0.405915    0.053981    0.198369    10.50000   -1.20000
AFIX  66
PART  2
C2'   1    0.376980    0.092288    0.222937    10.50000    0.08976
C3'   1    0.379152    0.127929    0.229148    10.50000    0.05736
AFIX  43
H3'   2    0.359412    0.140282    0.235913    10.50000   -1.20000
AFIX  65
C4'   1    0.410826    0.145107    0.225248    10.50000    0.06086
C5'   1    0.440330    0.126644    0.215136    10.50000    0.08254
AFIX  43
H5'   2    0.461523    0.138138    0.212527    10.50000   -1.20000
AFIX  65
C6'   1    0.438159    0.091003    0.208925    10.50000    0.08567
C7'   1    0.406485    0.073824    0.212825    10.50000    0.12602
AFIX  43
H7'   2    0.405032    0.049978    0.208669    10.50000   -1.20000
AFIX   0
PART  0
C8    1    0.410699    0.184195    0.232710    11.00000    0.03775    0.05280 =
         0.05643   -0.01136    0.00088   -0.00247
PART   1
C9    1    0.468597    0.085655    0.183574    10.50000    0.07844
C10   1    0.468566    0.061952    0.155931    10.50000    0.10779
AFIX  43
H10   2    0.447549    0.054061    0.146762    10.50000   -1.20000
AFIX   0
C11   1    0.500000    0.050114    0.142077    10.25000    0.09719
AFIX  43
H11   2    0.500000    0.034362    0.123641    10.25000   -1.20000
AFIX   0
PART   2
C9'   1    0.468608    0.070665    0.198240    10.50000    0.07844
C10'  1    0.468567    0.042012    0.176089    10.50000    0.10779
AFIX  43
H10'  2    0.447547    0.032444    0.168697    10.50000   -1.20000
AFIX   0
C11'  1    0.500000    0.027586    0.164931    10.25000    0.09719
AFIX  43
H11'  2    0.500000    0.008406    0.150094    10.25000   -1.20000
AFIX   0
PART   0
C12   1    0.184745    0.089455    0.251042    11.00000    0.05456    0.03478 =
         0.06604    0.00395    0.00938    0.00377
AFIX  66
C13   1    0.146850    0.091208    0.260047    11.00000    0.06517    0.03611 =
         0.09105   -0.01197    0.03291    0.00659
C14   1    0.127912    0.122103    0.259384    11.00000    0.06295    0.04237 =
         0.07597   -0.00441    0.02884   -0.00143
AFIX  43
H14   2    0.137648    0.142087    0.249694    11.00000   -1.20000
AFIX  65
C15   1    0.094421    0.123130    0.273203    11.00000    0.08083    0.04674 =
         0.11551   -0.01353    0.04345    0.00689
C16   1    0.079869    0.093261    0.287685    11.00000    0.09224    0.07702 =
         0.13462   -0.00346    0.04184    0.01540
AFIX  43
H16   2    0.057462    0.093948    0.296930    11.00000   -1.20000
AFIX  65
C17   1    0.098808    0.062366    0.288348    11.00000    0.09674    0.05688 =
         0.12728    0.00864    0.03911    0.01696
C18   1    0.132298    0.061339    0.274530    11.00000    0.08260    0.04849 =
         0.12162   -0.00891    0.02544    0.01191
AFIX  43
H18   2    0.144969    0.040668    0.274974    11.00000   -1.20000
AFIX   0
C19   1    0.077473    0.158085    0.274634    11.00000    0.09060    0.07310 =
         0.11405    0.00207    0.03575    0.02003
C20   1    0.081696    0.031226    0.302906    11.00000    0.10157    0.08357 =
         0.13849   -0.00027    0.03953    0.00420
C21   1    0.056924    0.031526    0.329395    11.00000    0.13760    0.11956 =
         0.14367    0.00996    0.03996   -0.00221
AFIX  43
H21   2    0.048691    0.052563    0.338209    11.00000   -1.20000
AFIX   0
C22   1    0.044547    0.000000    0.342613    10.50000    0.20485    0.20010 =
         0.20121    0.00000    0.01860    0.00000
AFIX  43
H22   2    0.027973    0.000000    0.360314    10.50000   -1.20000
AFIX   0
C23   1    0.294098    0.154433    0.201837    11.00000    0.06048    0.04280 =
         0.08277    0.01307   -0.00141    0.00390
AFIX  43
H23   2    0.307460    0.135395    0.194978    11.00000   -1.20000
AFIX   0
C24   1    0.279195    0.214997    0.196379    11.00000    0.16816    0.05794 =
         0.06224    0.01724   -0.00839    0.01587
AFIX 137
H24A  2    0.255710    0.207571    0.200841    11.00000   -1.50000
H24B  2    0.279361    0.231064    0.177185    11.00000   -1.50000
H24C  2    0.288404    0.226244    0.216757    11.00000   -1.50000
AFIX   0
C25   1    0.327135    0.187569    0.163454    11.00000    0.06092    0.11048 =
         0.11568    0.05617   -0.00329   -0.01713
AFIX 137
H25A  2    0.341724    0.167238    0.162815    11.00000   -1.50000
H25B  2    0.340923    0.207543    0.169580    11.00000   -1.50000
H25C  2    0.316815    0.191144    0.140931    11.00000   -1.50000
AFIX   0
C26   1    0.256892    0.000000    0.241852    10.50000    0.04765    0.02694 =
         0.06387    0.00000    0.01546    0.00000
AFIX  43
H26   2    0.240499    0.000000    0.259721    10.50000   -1.20000
AFIX   0
C27   1    0.355749    0.000000    0.123301    10.50000    0.13069    0.10241 =
         0.12245    0.00000   -0.00701    0.00000
AFIX  43
H27   2    0.370397    0.000000    0.103975    10.50000   -1.20000

AFIX   0
HKLF  4

REM   Im-3
REM R1 =  0.0577 for    9271 Fo > 4sig(Fo)  and  0.0756 for all   11288 data
REM    327 parameters refined using    282 restraints

END

WGHT      0.0743    659.9706

REM Highest difference peak  1.737,  deepest hole -0.959,  1-sigma level  0.142
Q1    1   0.3400  0.0571  0.1908  11.00000  0.05    1.74
;
_shelx_res_checksum              63251
_shelx_fab_file
;
    2    2    2    264.41      0.00
    1    0    3   -629.82      0.00
    0    1    3    307.88      0.00
    2    1    3    186.98      0.00
    1    2    3    -19.81      0.00
    0    3    3    179.34      0.00
    0    0    4   -255.15      0.00
    2    0    4    -56.26      0.00
    1    1    4    -14.61      0.00
    3    1    4    174.07      0.00
    0    2    4     15.00      0.00
    2    2    4    319.47      0.00
    1    3    4    -65.25      0.00
    3    3    4     52.96      0.00
    0    4    4    559.72      0.00
    2    4    4    367.51      0.00
    4    4    4   -153.47      0.00
    1    0    5    458.68      0.00
    3    0    5     -6.63      0.00
    0    1    5    -48.40      0.00
    2    1    5    -13.08      0.00
    4    1    5    -44.80      0.00
    1    2    5     98.27      0.00
    3    2    5   -152.95      0.00
    0    3    5   -186.42      0.00
    2    3    5    152.21      0.00
    4    3    5    142.02      0.00
    1    4    5      6.21      0.00
    3    4    5    -19.57      0.00
    0    5    5    -29.17      0.00
    2    5    5   -120.89      0.00
    4    5    5     19.41      0.00
    0    0    6    313.54      0.00
    2    0    6   -256.12      0.00
    4    0    6    335.51      0.00
    1    1    6     51.60      0.00
    3    1    6   -247.15      0.00
    5    1    6     52.69      0.00
    0    2    6   -173.27      0.00
    2    2    6    -58.32      0.00
    4    2    6     67.80      0.00
    1    3    6     -4.79      0.00
    3    3    6    249.67      0.00
    5    3    6     -2.22      0.00
    0    4    6    271.07      0.00
    2    4    6     11.72      0.00
    4    4    6   -182.21      0.00
    1    5    6     45.41      0.00
    3    5    6   -118.67      0.00
    5    5    6    124.08      0.00
    0    6    6    800.29      0.00
    2    6    6    -27.74      0.00
    4    6    6   -164.12      0.00
    6    6    6    100.15      0.00
    1    0    7    -88.76      0.00
    3    0    7    -14.09      0.00
    5    0    7    -19.63      0.00
    0    1    7     46.16      0.00
    2    1    7      1.07      0.00
    4    1    7    -45.71      0.00
    6    1    7     70.29      0.00
    1    2    7     21.88      0.00
    3    2    7    121.21      0.00
    5    2    7     81.33      0.00
    0    3    7   -131.13      0.00
    2    3    7      7.52      0.00
    4    3    7    -85.03      0.00
    6    3    7   -232.70      0.00
    1    4    7     22.07      0.00
    3    4    7    123.88      0.00
    5    4    7     29.34      0.00
    0    5    7    122.94      0.00
    2    5    7    -30.71      0.00
    4    5    7    -44.52      0.00
    6    5    7     78.67      0.00
    1    6    7    -14.21      0.00
    3    6    7   -107.32      0.00
    5    6    7    -48.41      0.00
    0    7    7     28.03      0.00
    2    7    7     -7.04      0.00
    4    7    7    -27.32      0.00
    6    7    7     62.30      0.00
    0    0    8    -76.48      0.00
    2    0    8    -60.53      0.00
    4    0    8    -22.29      0.00
    6    0    8    -13.16      0.00
    1    1    8    -36.86      0.00
    3    1    8    -36.89      0.00
    5    1    8    -22.60      0.00
    7    1    8     60.03      0.00
    0    2    8    -30.25      0.00
    2    2    8    170.96      0.00
    4    2    8     91.27      0.00
    6    2    8    -69.77      0.00
    1    3    8     56.36      0.00
    3    3    8    -19.91      0.00
    5    3    8    -20.97      0.00
    7    3    8     30.33      0.00
    0    4    8    -35.34      0.00
    2    4    8    107.60      0.00
    4    4    8     97.23      0.00
    6    4    8    -42.98      0.00
    1    5    8    -42.01      0.00
    3    5    8    -12.91      0.00
    5    5    8    -11.09      0.00
    7    5    8     24.86      0.00
    0    6    8    -54.04      0.00
    2    6    8    -59.49      0.00
    4    6    8    -24.24      0.00
    6    6    8   -101.03      0.00
    1    7    8      5.72      0.00
    3    7    8    -42.20      0.00
    5    7    8     19.95      0.00
    7    7    8     15.85      0.00
    0    8    8    -27.17      0.00
    2    8    8     35.80      0.00
    4    8    8     -5.02      0.00
    6    8    8    -50.85      0.00
    8    8    8    106.54      0.00
    1    0    9   -211.23      0.00
    3    0    9    155.56      0.00
    5    0    9    -33.76      0.00
    7    0    9    -89.85      0.00
    0    1    9    -53.53      0.00
    2    1    9    -17.18      0.00
    4    1    9     57.92      0.00
    6    1    9    -12.36      0.00
    8    1    9     -8.01      0.00
    1    2    9     80.06      0.00
    3    2    9    -25.68      0.00
    5    2    9     65.51      0.00
    7    2    9    -27.96      0.00
    0    3    9    150.22      0.00
    2    3    9    -23.04      0.00
    4    3    9     -3.49      0.00
    6    3    9     43.51      0.00
    8    3    9     30.47      0.00
    1    4    9    127.21      0.00
    3    4    9    -39.44      0.00
    5    4    9     -7.58      0.00
    7    4    9     -8.33      0.00
    0    5    9      6.82      0.00
    2    5    9    -58.45      0.00
    4    5    9    -24.71      0.00
    6    5    9    -34.53      0.00
    8    5    9     -7.90      0.00
    1    6    9    -71.41      0.00
    3    6    9     26.88      0.00
    5    6    9    -37.61      0.00
    7    6    9     36.83      0.00
    0    7    9    -53.40      0.00
    2    7    9      2.04      0.00
    4    7    9     41.27      0.00
    6    7    9    -13.84      0.00
    8    7    9      7.62      0.00
    1    8    9     13.01      0.00
    3    8    9    -18.97      0.00
    5    8    9     50.32      0.00
    7    8    9     11.17      0.00
    0    9    9     72.35      0.00
    2    9    9      5.81      0.00
    4    9    9     40.42      0.00
    6    9    9    100.97      0.00
    8    9    9     18.07      0.00
    0    0   10    291.23      0.00
    2    0   10     14.40      0.00
    4    0   10   -109.52      0.00
    6    0   10    -40.38      0.00
    8    0   10     33.04      0.00
    1    1   10   -121.89      0.00
    3    1   10     98.44      0.00
    5    1   10     56.96      0.00
    7    1   10    -40.11      0.00
    9    1   10     -2.02      0.00
    0    2   10    -32.73      0.00
    2    2   10      3.44      0.00
    4    2   10    -99.86      0.00
    6    2   10   -100.19      0.00
    8    2   10     38.01      0.00
    1    3   10     36.63      0.00
    3    3   10     53.34      0.00
    5    3   10     -4.25      0.00
    7    3   10     60.93      0.00
    9    3   10     19.04      0.00
    0    4   10   -137.95      0.00
    2    4   10    -96.74      0.00
    4    4   10    -15.34      0.00
    6    4   10     32.57      0.00
    8    4   10    -39.86      0.00
    1    5   10     12.41      0.00
    3    5   10     -6.87      0.00
    5    5   10     11.29      0.00
    7    5   10     22.13      0.00
    9    5   10     14.96      0.00
    0    6   10    -26.87      0.00
    2    6   10    -83.44      0.00
    4    6   10     30.44      0.00
    6    6   10     68.85      0.00
    8    6   10    -51.08      0.00
    1    7   10    -15.46      0.00
    3    7   10     -5.49      0.00
    5    7   10     -9.23      0.00
    7    7   10      7.17      0.00
    9    7   10    -20.28      0.00
    0    8   10     15.24      0.00
    2    8   10     27.04      0.00
    4    8   10    -29.90      0.00
    6    8   10    -23.98      0.00
    8    8   10     33.49      0.00
    1    9   10      7.53      0.00
    3    9   10     41.83      0.00
    5    9   10     -3.00      0.00
    7    9   10     13.62      0.00
    9    9   10      0.89      0.00
    0   10   10     93.92      0.00
    2   10   10    -32.16      0.00
    4   10   10    -43.87      0.00
    6   10   10    -19.07      0.00
    8   10   10    -33.42      0.00
   10   10   10     32.19      0.00
    1    0   11    119.73      0.00
    3    0   11      4.60      0.00
    5    0   11     58.91      0.00
    7    0   11     53.28      0.00
    9    0   11    -12.47      0.00
    0    1   11     -8.51      0.00
    2    1   11    -43.22      0.00
    4    1   11     -9.53      0.00
    6    1   11      9.52      0.00
    8    1   11    -17.74      0.00
   10    1   11     10.80      0.00
    1    2   11     -1.25      0.00
    3    2   11    -65.70      0.00
    5    2   11    -15.29      0.00
    7    2   11     33.45      0.00
    9    2   11     16.34      0.00
    0    3   11   -118.03      0.00
    2    3   11     28.76      0.00
    4    3   11     24.27      0.00
    6    3   11    -99.67      0.00
    8    3   11      1.65      0.00
   10    3   11    -10.76      0.00
    1    4   11     13.00      0.00
    3    4   11    -13.49      0.00
    5    4   11    -21.49      0.00
    7    4   11    -24.82      0.00
    9    4   11    -12.12      0.00
    0    5   11     34.13      0.00
    2    5   11    -42.01      0.00
    4    5   11    -13.50      0.00
    6    5   11     20.76      0.00
    8    5   11      5.24      0.00
   10    5   11     42.38      0.00
    1    6   11     62.76      0.00
    3    6   11      2.99      0.00
    5    6   11     51.69      0.00
    7    6   11     17.31      0.00
    9    6   11    -28.51      0.00
    0    7   11    -31.07      0.00
    2    7   11     -4.44      0.00
    4    7   11     -5.12      0.00
    6    7   11     15.65      0.00
    8    7   11     59.09      0.00
   10    7   11     14.90      0.00
    1    8   11     -3.49      0.00
    3    8   11    -17.21      0.00
    5    8   11    -13.11      0.00
    7    8   11    -10.53      0.00
    9    8   11     -7.22      0.00
    0    9   11    -36.45      0.00
    2    9   11     13.03      0.00
    4    9   11      4.92      0.00
    6    9   11    -12.94      0.00
    8    9   11      1.53      0.00
   10    9   11      5.83      0.00
    1   10   11     10.30      0.00
    3   10   11     10.85      0.00
    5   10   11     21.13      0.00
    7   10   11      2.68      0.00
    9   10   11     21.75      0.00
    0   11   11      4.37      0.00
    2   11   11      8.82      0.00
    4   11   11      7.92      0.00
    6   11   11      9.87      0.00
    8   11   11    -16.79      0.00
   10   11   11     24.24      0.00
    0    0   12    454.13      0.00
    2    0   12      3.89      0.00
    4    0   12    -59.74      0.00
    6    0   12     61.60      0.00
    8    0   12    -47.04      0.00
   10    0   12     26.71      0.00
    1    1   12     13.44      0.00
    3    1   12    -85.64      0.00
    5    1   12     51.52      0.00
    7    1   12    -11.29      0.00
    9    1   12    -11.77      0.00
   11    1   12      7.41      0.00
    0    2   12      6.37      0.00
    2    2   12     51.60      0.00
    4    2   12     31.64      0.00
    6    2   12    -64.67      0.00
    8    2   12     -7.54      0.00
   10    2   12    -30.86      0.00
    1    3   12    -56.26      0.00
    3    3   12     11.86      0.00
    5    3   12    -56.54      0.00
    7    3   12    -18.14      0.00
    9    3   12     59.49      0.00
   11    3   12    -21.06      0.00
    0    4   12    -69.80      0.00
    2    4   12     11.64      0.00
    4    4   12     81.21      0.00
    6    4   12     18.15      0.00
    8    4   12    -19.73      0.00
   10    4   12     15.95      0.00
    1    5   12     46.61      0.00
    3    5   12    -37.92      0.00
    5    5   12     33.49      0.00
    7    5   12      6.57      0.00
    9    5   12    -13.21      0.00
   11    5   12      6.82      0.00
    0    6   12     55.55      0.00
    2    6   12    -88.70      0.00
    4    6   12    -10.66      0.00
    6    6   12     99.40      0.00
    8    6   12    -43.93      0.00
   10    6   12    -27.41      0.00
    1    7   12     35.69      0.00
    3    7   12    -62.51      0.00
    5    7   12     42.14      0.00
    7    7   12     64.58      0.00
    9    7   12    -19.14      0.00
   11    7   12     12.24      0.00
    0    8   12    -13.94      0.00
    2    8   12      3.59      0.00
    4    8   12      1.52      0.00
    6    8   12    -16.40      0.00
    8    8   12     -2.64      0.00
   10    8   12    -19.73      0.00
    1    9   12    -20.23      0.00
    3    9   12     22.52      0.00
    5    9   12     -8.88      0.00
    7    9   12    -13.98      0.00
    9    9   12     20.44      0.00
   11    9   12     -3.00      0.00
    0   10   12     22.52      0.00
    2   10   12    -26.77      0.00
    4   10   12     49.74      0.00
    6   10   12    -15.32      0.00
    8   10   12    -13.96      0.00
   10   10   12     33.89      0.00
    1   11   12     19.96      0.00
    3   11   12     -2.85      0.00
    5   11   12     37.81      0.00
    7   11   12    -43.39      0.00
    9   11   12      9.08      0.00
   11   11   12     16.93      0.00
    0   12   12     57.47      0.00
    2   12   12    -37.60      0.00
    4   12   12     10.97      0.00
    6   12   12    -45.41      0.00
    8   12   12     16.43      0.00
   10   12   12     17.20      0.00
   12   12   12    -23.45      0.00
    1    0   13     27.33      0.00
    3    0   13     -7.21      0.00
    5    0   13    -84.32      0.00
    7    0   13    -49.42      0.00
    9    0   13    -57.47      0.00
   11    0   13      7.34      0.00
    0    1   13     80.68      0.00
    2    1   13      0.18      0.00
    4    1   13    -21.62      0.00
    6    1   13     52.80      0.00
    8    1   13      7.80      0.00
   10    1   13    -17.51      0.00
   12    1   13     -6.90      0.00
    1    2   13     28.80      0.00
    3    2   13     37.54      0.00
    5    2   13     21.94      0.00
    7    2   13     14.32      0.00
    9    2   13     25.79      0.00
   11    2   13     37.40      0.00
    0    3   13    -74.62      0.00
    2    3   13     -6.94      0.00
    4    3   13     16.22      0.00
    6    3   13    -24.11      0.00
    8    3   13     -2.53      0.00
   10    3   13      1.68      0.00
   12    3   13    -11.90      0.00
    1    4   13    -11.40      0.00
    3    4   13    116.58      0.00
    5    4   13     26.16      0.00
    7    4   13    -24.83      0.00
    9    4   13     -3.64      0.00
   11    4   13     -6.88      0.00
    0    5   13     55.94      0.00
    2    5   13     19.23      0.00
    4    5   13     -4.45      0.00
    6    5   13     14.39      0.00
    8    5   13      5.41      0.00
   10    5   13     -1.46      0.00
   12    5   13      5.37      0.00
    1    6   13    -81.18      0.00
    3    6   13      7.96      0.00
    5    6   13     17.11      0.00
    7    6   13     -4.48      0.00
    9    6   13    -46.14      0.00
   11    6   13     -2.42      0.00
    0    7   13     63.80      0.00
    2    7   13     12.36      0.00
    4    7   13     -3.15      0.00
    6    7   13     37.52      0.00
    8    7   13     12.97      0.00
   10    7   13     20.04      0.00
   12    7   13     -1.10      0.00
    1    8   13    -22.87      0.00
    3    8   13    -23.32      0.00
    5    8   13     31.27      0.00
    7    8   13      6.10      0.00
    9    8   13    -11.80      0.00
   11    8   13    -22.80      0.00
    0    9   13     21.41      0.00
    2    9   13      0.27      0.00
    4    9   13      7.54      0.00
    6    9   13      8.08      0.00
    8    9   13    -16.41      0.00
   10    9   13     19.49      0.00
   12    9   13     21.48      0.00
    1   10   13     12.03      0.00
    3   10   13     26.26      0.00
    5   10   13     -3.98      0.00
    7   10   13     19.85      0.00
    9   10   13     14.69      0.00
   11   10   13    -38.02      0.00
    0   11   13    -36.52      0.00
    2   11   13     -7.34      0.00
    4   11   13      2.76      0.00
    6   11   13      8.21      0.00
    8   11   13     -0.84      0.00
   10   11   13     -9.56      0.00
   12   11   13      4.47      0.00
    1   12   13     38.83      0.00
    3   12   13    -12.29      0.00
    5   12   13    -37.29      0.00
    7   12   13    -14.25      0.00
    9   12   13    -33.69      0.00
   11   12   13    -13.51      0.00
    0   13   13      9.96      0.00
    2   13   13      0.78      0.00
    4   13   13     -7.40      0.00
    6   13   13     20.33      0.00
    8   13   13    -22.77      0.00
   10   13   13     -7.21      0.00
   12   13   13     14.19      0.00
    0    0   14     62.85      0.00
    2    0   14     -0.17      0.00
    4    0   14     -3.87      0.00
    6    0   14    -17.75      0.00
    8    0   14    -28.15      0.00
   10    0   14     13.55      0.00
   12    0   14     12.73      0.00
    1    1   14     32.10      0.00
    3    1   14     -9.14      0.00
    5    1   14      3.06      0.00
    7    1   14      6.18      0.00
    9    1   14     12.58      0.00
   11    1   14    -18.59      0.00
   13    1   14      1.17      0.00
    0    2   14    -50.08      0.00
    2    2   14     19.98      0.00
    4    2   14     15.39      0.00
    6    2   14    -16.68      0.00
    8    2   14      0.95      0.00
   10    2   14    -20.78      0.00
   12    2   14    -27.39      0.00
    1    3   14     12.59      0.00
    3    3   14     -4.84      0.00
    5    3   14     11.84      0.00
    7    3   14     41.23      0.00
    9    3   14     28.97      0.00
   11    3   14    -18.97      0.00
   13    3   14    -11.64      0.00
    0    4   14     -9.73      0.00
    2    4   14     29.96      0.00
    4    4   14     -3.68      0.00
    6    4   14    -19.71      0.00
    8    4   14      1.78      0.00
   10    4   14     12.27      0.00
   12    4   14     -5.38      0.00
    1    5   14    -21.27      0.00
    3    5   14     34.59      0.00
    5    5   14      3.06      0.00
    7    5   14    -14.19      0.00
    9    5   14     -2.26      0.00
   11    5   14     -6.96      0.00
   13    5   14    -18.84      0.00
    0    6   14    -32.05      0.00
    2    6   14    -12.46      0.00
    4    6   14     -4.60      0.00
    6    6   14    -21.45      0.00
    8    6   14    -20.12      0.00
   10    6   14     -3.57      0.00
   12    6   14    -31.58      0.00
    1    7   14     -8.49      0.00
    3    7   14     -0.86      0.00
    5    7   14     -8.96      0.00
    7    7   14    -13.03      0.00
    9    7   14    -20.25      0.00
   11    7   14      7.15      0.00
   13    7   14    -13.93      0.00
    0    8   14    -32.20      0.00
    2    8   14     -3.36      0.00
    4    8   14     23.81      0.00
    6    8   14     -8.51      0.00
    8    8   14     12.92      0.00
   10    8   14      7.46      0.00
   12    8   14     30.04      0.00
    1    9   14      4.62      0.00
    3    9   14      6.29      0.00
    5    9   14     -1.22      0.00
    7    9   14      8.31      0.00
    9    9   14     25.57      0.00
   11    9   14      6.73      0.00
   13    9   14     11.79      0.00
    0   10   14     25.71      0.00
    2   10   14    -27.57      0.00
    4   10   14     21.56      0.00
    6   10   14    -14.52      0.00
    8   10   14     -6.74      0.00
   10   10   14    -45.43      0.00
   12   10   14    -23.42      0.00
    1   11   14    -25.46      0.00
    3   11   14    -16.02      0.00
    5   11   14     12.49      0.00
    7   11   14     -8.21      0.00
    9   11   14     -2.98      0.00
   11   11   14     -2.66      0.00
   13   11   14     28.23      0.00
    0   12   14     30.88      0.00
    2   12   14    -13.75      0.00
    4   12   14     13.11      0.00
    6   12   14    -37.60      0.00
    8   12   14     23.26      0.00
   10   12   14     -8.40      0.00
   12   12   14      2.90      0.00
    1   13   14    -17.91      0.00
    3   13   14      5.79      0.00
    5   13   14      7.20      0.00
    7   13   14     -4.15      0.00
    9   13   14    -19.93      0.00
   11   13   14    -11.61      0.00
   13   13   14     26.37      0.00
    0   14   14      9.57      0.00
    2   14   14    -18.32      0.00
    4   14   14     12.31      0.00
    6   14   14    -11.93      0.00
    8   14   14     -2.70      0.00
   10   14   14    -23.54      0.00
   12   14   14     11.86      0.00
   14   14   14    -34.85      0.00
    1    0   15    -14.88      0.00
    3    0   15     94.32      0.00
    5    0   15      7.96      0.00
    7    0   15    -14.65      0.00
    9    0   15     12.01      0.00
   11    0   15    -10.10      0.00
   13    0   15      0.21      0.00
    0    1   15    -58.70      0.00
    2    1   15      1.88      0.00
    4    1   15     21.29      0.00
    6    1   15    -13.49      0.00
    8    1   15     -6.78      0.00
   10    1   15      9.85      0.00
   12    1   15    -13.95      0.00
   14    1   15      4.19      0.00
    1    2   15    -18.42      0.00
    3    2   15    -45.55      0.00
    5    2   15     -3.44      0.00
    7    2   15     10.45      0.00
    9    2   15      2.40      0.00
   11    2   15    -10.83      0.00
   13    2   15     -4.17      0.00
    0    3   15    -73.70      0.00
    2    3   15    -26.52      0.00
    4    3   15     20.62      0.00
    6    3   15     26.55      0.00
    8    3   15     18.75      0.00
   10    3   15     10.07      0.00
   12    3   15      4.06      0.00
   14    3   15     -3.18      0.00
    1    4   15     16.46      0.00
    3    4   15    -24.51      0.00
    5    4   15    -43.21      0.00
    7    4   15    -24.72      0.00
    9    4   15      0.69      0.00
   11    4   15     -7.20      0.00
   13    4   15     -2.03      0.00
    0    5   15    -19.92      0.00
    2    5   15     10.55      0.00
    4    5   15     12.35      0.00
    6    5   15    -22.25      0.00
    8    5   15    -12.13      0.00
   10    5   15      6.49      0.00
   12    5   15    -10.19      0.00
   14    5   15     -0.22      0.00
    1    6   15      7.39      0.00
    3    6   15     45.21      0.00
    5    6   15     -5.20      0.00
    7    6   15    -28.83      0.00
    9    6   15     11.62      0.00
   11    6   15     22.25      0.00
   13    6   15     29.04      0.00
    0    7   15      8.18      0.00
    2    7   15     30.96      0.00
    4    7   15     11.66      0.00
    6    7   15    -41.43      0.00
    8    7   15    -25.45      0.00
   10    7   15      7.77      0.00
   12    7   15     -3.04      0.00
   14    7   15     20.62      0.00
    1    8   15     29.60      0.00
    3    8   15     -2.84      0.00
    5    8   15     13.19      0.00
    7    8   15    -27.11      0.00
    9    8   15     -6.67      0.00
   11    8   15    -15.05      0.00
   13    8   15     -0.99      0.00
    0    9   15     60.88      0.00
    2    9   15     11.25      0.00
    4    9   15     -1.70      0.00
    6    9   15      8.06      0.00
    8    9   15     -6.63      0.00
   10    9   15     -6.73      0.00
   12    9   15      7.20      0.00
   14    9   15      0.37      0.00
    1   10   15    -21.12      0.00
    3   10   15    -48.64      0.00
    5   10   15     -5.73      0.00
    7   10   15     14.20      0.00
    9   10   15     23.47      0.00
   11   10   15      1.79      0.00
   13   10   15      6.97      0.00
    0   11   15     -4.84      0.00
    2   11   15     14.12      0.00
    4   11   15      8.98      0.00
    6   11   15     11.16      0.00
    8   11   15     15.12      0.00
   10   11   15     -6.66      0.00
   12   11   15     -2.47      0.00
   14   11   15      1.22      0.00
    1   12   15     -9.44      0.00
    3   12   15      2.21      0.00
    5   12   15      2.46      0.00
    7   12   15      7.76      0.00
    9   12   15      5.24      0.00
   11   12   15      7.39      0.00
   13   12   15     11.02      0.00
    0   13   15    -48.74      0.00
    2   13   15      5.80      0.00
    4   13   15      1.82      0.00
    6   13   15    -15.53      0.00
    8   13   15     -7.90      0.00
   10   13   15      3.20      0.00
   12   13   15    -12.42      0.00
   14   13   15     -1.67      0.00
    1   14   15    -34.65      0.00
    3   14   15     -8.02      0.00
    5   14   15      0.55      0.00
    7   14   15     -9.10      0.00
    9   14   15      6.13      0.00
   11   14   15     -3.16      0.00
   13   14   15      7.31      0.00
    0   15   15      7.17      0.00
    2   15   15     11.37      0.00
    4   15   15      4.13      0.00
    6   15   15     16.71      0.00
    8   15   15    -10.21      0.00
   10   15   15    -14.92      0.00
   12   15   15    -20.31      0.00
   14   15   15      1.39      0.00
    0    0   16    138.15      0.00
    4    0   16     44.55      0.00
    6    0   16     46.28      0.00
    8    0   16    -43.36      0.00
   10    0   16     15.78      0.00
   12    0   16     -0.91      0.00
   14    0   16     27.26      0.00
    1    1   16    -18.26      0.00
    3    1   16      4.57      0.00
    5    1   16    -15.43      0.00
    7    1   16     -4.28      0.00
    9    1   16     25.51      0.00
   11    1   16      4.95      0.00
   13    1   16     -4.12      0.00
   15    1   16     12.16      0.00
    0    2   16    -23.98      0.00
    2    2   16     38.90      0.00
    4    2   16    -19.36      0.00
    6    2   16     -8.24      0.00
    8    2   16     -8.34      0.00
   10    2   16    -30.31      0.00
   12    2   16    -18.21      0.00
   14    2   16      5.28      0.00
    1    3   16    -13.94      0.00
    3    3   16     11.04      0.00
    5    3   16    -15.81      0.00
    7    3   16     16.82      0.00
    9    3   16     -0.27      0.00
   11    3   16      5.41      0.00
   13    3   16     37.98      0.00
   15    3   16     -2.01      0.00
    0    4   16     25.76      0.00
    2    4   16     -9.75      0.00
    4    4   16    -58.62      0.00
    6    4   16      5.83      0.00
    8    4   16      3.50      0.00
   10    4   16     27.40      0.00
   12    4   16     26.80      0.00
   14    4   16      9.92      0.00
    1    5   16     -2.04      0.00
    3    5   16     -6.12      0.00
    5    5   16     23.36      0.00
    7    5   16    -12.77      0.00
    9    5   16      1.55      0.00
   11    5   16     32.12      0.00
   13    5   16      3.60      0.00
   15    5   16     -0.05      0.00
    0    6   16     91.66      0.00
    2    6   16     21.94      0.00
    4    6   16     24.17      0.00
    6    6   16     21.88      0.00
    8    6   16    -20.54      0.00
   10    6   16     25.38      0.00
   12    6   16     10.59      0.00
   14    6   16      2.07      0.00
    1    7   16     -1.45      0.00
    3    7   16     10.48      0.00
    5    7   16    -20.75      0.00
    7    7   16    -15.02      0.00
    9    7   16      7.03      0.00
   11    7   16     -5.01      0.00
   13    7   16     -9.00      0.00
   15    7   16     -6.30      0.00
    0    8   16    -38.62      0.00
    2    8   16    -13.87      0.00
    4    8   16      5.83      0.00
    6    8   16    -29.34      0.00
    8    8   16      9.61      0.00
   10    8   16     -4.93      0.00
   12    8   16     26.14      0.00
   14    8   16     -1.65      0.00
    1    9   16     -6.28      0.00
    3    9   16      4.26      0.00
    5    9   16    -13.15      0.00
    7    9   16     -5.60      0.00
    9    9   16      1.53      0.00
   11    9   16    -11.00      0.00
   13    9   16      2.89      0.00
   15    9   16     -6.39      0.00
    0   10   16     33.36      0.00
    2   10   16    -49.22      0.00
    4   10   16     17.20      0.00
    6   10   16     34.65      0.00
    8   10   16      3.35      0.00
   10   10   16    -16.22      0.00
   12   10   16      4.32      0.00
   14   10   16     -8.43      0.00
    1   11   16      8.23      0.00
    3   11   16    -32.51      0.00
    5   11   16     38.69      0.00
    7   11   16      0.19      0.00
    9   11   16    -28.00      0.00
   11   11   16      9.87      0.00
   13   11   16      8.01      0.00
   15   11   16     -2.00      0.00
    0   12   16      6.20      0.00
    2   12   16    -48.21      0.00
    4   12   16     10.26      0.00
    6   12   16     26.50      0.00
    8   12   16     20.02      0.00
   10   12   16     -1.23      0.00
   12   12   16     24.87      0.00
   14   12   16     20.23      0.00
    1   13   16      2.26      0.00
    3   13   16     19.84      0.00
    5   13   16     12.25      0.00
    7   13   16     13.24      0.00
    9   13   16    -22.50      0.00
   11   13   16    -10.72      0.00
   13   13   16     20.23      0.00
   15   13   16      6.97      0.00
    0   14   16     -7.64      0.00
    2   14   16    -14.08      0.00
    4   14   16     10.11      0.00
    6   14   16     -1.32      0.00
    8   14   16     -4.00      0.00
   10   14   16    -17.86      0.00
   12   14   16     10.36      0.00
   14   14   16    -15.06      0.00
    1   15   16    -14.60      0.00
    3   15   16    -17.29      0.00
    5   15   16     -5.15      0.00
    7   15   16      7.85      0.00
    9   15   16     -8.31      0.00
   11   15   16     -2.05      0.00
   13   15   16     -6.87      0.00
   15   15   16      0.11      0.00
    0   16   16     39.87      0.00
    2   16   16     -4.66      0.00
    4   16   16    -10.26      0.00
    6   16   16     -1.34      0.00
    8   16   16    -10.34      0.00
   10   16   16     25.97      0.00
   12   16   16     24.64      0.00
   14   16   16     -0.28      0.00
   16   16   16      7.25      0.00
    1    0   17     19.98      0.00
    3    0   17    -12.77      0.00
    5    0   17     -0.43      0.00
    7    0   17    -25.11      0.00
    9    0   17    -28.08      0.00
   11    0   17     39.68      0.00
   13    0   17     14.95      0.00
   15    0   17     -1.96      0.00
    0    1   17     81.64      0.00
    2    1   17     13.34      0.00
    4    1   17    -13.51      0.00
    6    1   17     16.17      0.00
    8    1   17    -16.14      0.00
   10    1   17     26.68      0.00
   12    1   17     18.88      0.00
   14    1   17     -5.00      0.00
   16    1   17     14.75      0.00
    1    2   17    -15.34      0.00
    3    2   17    -30.84      0.00
    5    2   17      5.65      0.00
    7    2   17      3.38      0.00
    9    2   17      1.67      0.00
   11    2   17     37.64      0.00
   13    2   17     25.57      0.00
   15    2   17     10.42      0.00
    0    3   17    -43.35      0.00
    2    3   17    -14.02      0.00
    4    3   17     -1.55      0.00
    6    3   17    -13.46      0.00
    8    3   17    -13.40      0.00
   10    3   17      7.79      0.00
   12    3   17      9.73      0.00
   14    3   17    -10.99      0.00
   16    3   17    -11.49      0.00
    1    4   17    -13.01      0.00
    3    4   17    -13.71      0.00
    5    4   17     23.95      0.00
    7    4   17     29.48      0.00
    9    4   17      7.40      0.00
   11    4   17      6.35      0.00
   13    4   17    -14.76      0.00
   15    4   17    -24.57      0.00
    0    5   17     29.90      0.00
    2    5   17    -11.08      0.00
    4    5   17     -5.02      0.00
    6    5   17     21.76      0.00
    8    5   17     -8.16      0.00
   10    5   17      9.73      0.00
   12    5   17      3.89      0.00
   14    5   17    -20.29      0.00
   16    5   17      9.10      0.00
    1    6   17    -20.38      0.00
    3    6   17     -5.26      0.00
    5    6   17     39.51      0.00
    7    6   17     31.40      0.00
    9    6   17     -7.28      0.00
   11    6   17    -22.42      0.00
   13    6   17    -17.33      0.00
   15    6   17      1.23      0.00
    0    7   17     34.60      0.00
    2    7   17     22.43      0.00
    4    7   17      2.61      0.00
    6    7   17      0.67      0.00
    8    7   17      5.05      0.00
   10    7   17      7.55      0.00
   12    7   17    -14.23      0.00
   14    7   17      2.29      0.00
   16    7   17      8.13      0.00
    1    8   17     -3.37      0.00
    3    8   17     27.44      0.00
    5    8   17     11.18      0.00
    7    8   17    -29.56      0.00
    9    8   17     -8.99      0.00
   11    8   17    -21.80      0.00
   13    8   17      5.64      0.00
   15    8   17      9.18      0.00
    0    9   17      0.29      0.00
    2    9   17     -3.82      0.00
    4    9   17      0.80      0.00
    6    9   17     -1.41      0.00
    8    9   17     -7.14      0.00
   10    9   17     -5.34      0.00
   12    9   17     -8.05      0.00
   14    9   17      6.72      0.00
   16    9   17      7.32      0.00
    1   10   17    -13.01      0.00
    3   10   17     -1.28      0.00
    5   10   17      5.84      0.00
    7   10   17    -26.17      0.00
    9   10   17      2.36      0.00
   11   10   17     12.21      0.00
   13   10   17     12.31      0.00
   15   10   17    -13.67      0.00
    0   11   17     33.37      0.00
    2   11   17     11.47      0.00
    4   11   17      7.30      0.00
    6   11   17     15.73      0.00
    8   11   17    -17.21      0.00
   10   11   17     -1.48      0.00
   12   11   17      8.25      0.00
   14   11   17     10.79      0.00
   16   11   17     11.39      0.00
    1   12   17      6.15      0.00
    3   12   17    -16.41      0.00
    5   12   17      4.93      0.00
    7   12   17      0.43      0.00
    9   12   17     -4.33      0.00
   11   12   17     -0.39      0.00
   13   12   17      0.20      0.00
   15   12   17    -11.88      0.00
    0   13   17    -12.46      0.00
    2   13   17    -14.16      0.00
    4   13   17    -19.17      0.00
    6   13   17     -0.61      0.00
    8   13   17    -28.43      0.00
   10   13   17      8.98      0.00
   12   13   17      2.83      0.00
   14   13   17     -1.52      0.00
   16   13   17    -14.57      0.00
    1   14   17     -2.11      0.00
    3   14   17     -6.72      0.00
    5   14   17     -0.93      0.00
    7   14   17      0.17      0.00
    9   14   17      6.38      0.00
   11   14   17     -5.80      0.00
   13   14   17      2.44      0.00
   15   14   17     10.53      0.00
    0   15   17     -0.27      0.00
    2   15   17      0.60      0.00
    4   15   17      1.31      0.00
    6   15   17     16.29      0.00
    8   15   17    -18.59      0.00
   10   15   17     15.14      0.00
   12   15   17     -2.89      0.00
   14   15   17      0.67      0.00
   16   15   17     16.63      0.00
    1   16   17      9.88      0.00
    3   16   17     -9.48      0.00
    5   16   17      0.52      0.00
    7   16   17     -7.00      0.00
    9   16   17     -2.06      0.00
   11   16   17      5.65      0.00
   13   16   17    -13.53      0.00
   15   16   17    -24.02      0.00
    0   17   17      7.63      0.00
    2   17   17     -0.75      0.00
    4   17   17     -7.62      0.00
    6   17   17     24.11      0.00
    8   17   17     -9.68      0.00
   10   17   17     -9.03      0.00
   12   17   17    -15.69      0.00
   14   17   17     -1.44      0.00
   16   17   17     -5.84      0.00
    0    0   18    -39.84      0.00
    2    0   18    -55.41      0.00
    4    0   18    -64.45      0.00
    6    0   18     16.86      0.00
    8    0   18    -21.51      0.00
   10    0   18    -13.71      0.00
   12    0   18    -32.73      0.00
   14    0   18      0.04      0.00
   16    0   18     11.04      0.00
    1    1   18     20.67      0.00
    3    1   18     -5.87      0.00
    5    1   18     -9.14      0.00
    7    1   18     19.37      0.00
    9    1   18     10.95      0.00
   11    1   18    -19.38      0.00
   13    1   18    -28.96      0.00
   15    1   18     -6.23      0.00
   17    1   18    -10.37      0.00
    0    2   18    -71.80      0.00
    2    2   18     44.20      0.00
    4    2   18     13.73      0.00
    6    2   18    -11.53      0.00
    8    2   18      1.68      0.00
   10    2   18     -0.02      0.00
   12    2   18    -23.90      0.00
   14    2   18      7.89      0.00
   16    2   18     -1.68      0.00
    1    3   18    -39.52      0.00
    3    3   18     14.97      0.00
    5    3   18    -14.56      0.00
    7    3   18    -15.03      0.00
    9    3   18      5.38      0.00
   11    3   18     -8.54      0.00
   13    3   18     -7.81      0.00
   15    3   18     -6.55      0.00
   17    3   18    -17.22      0.00
    0    4   18    -36.94      0.00
    2    4   18     11.08      0.00
    4    4   18      6.30      0.00
    6    4   18    -14.56      0.00
    8    4   18     -5.46      0.00
   10    4   18     33.79      0.00
   12    4   18     11.16      0.00
   14    4   18      8.55      0.00
   16    4   18     -6.57      0.00
    1    5   18      5.03      0.00
    3    5   18    -24.43      0.00
    5    5   18     23.05      0.00
    7    5   18      0.36      0.00
    9    5   18      1.21      0.00
   11    5   18     -0.22      0.00
   13    5   18     -3.81      0.00
   15    5   18    -11.55      0.00
   17    5   18     -6.16      0.00
    0    6   18     38.06      0.00
    2    6   18    -26.08      0.00
    4    6   18    -21.24      0.00
    6    6   18    -15.70      0.00
    8    6   18    -17.31      0.00
   10    6   18     -4.20      0.00
   12    6   18    -18.95      0.00
   14    6   18    -15.16      0.00
   16    6   18    -12.77      0.00
    1    7   18     -0.68      0.00
    3    7   18    -23.62      0.00
    5    7   18     -2.00      0.00
    7    7   18      8.25      0.00
    9    7   18     17.59      0.00
   11    7   18     -0.13      0.00
   13    7   18      4.46      0.00
   15    7   18    -15.80      0.00
   17    7   18     -8.94      0.00
    0    8   18     -2.50      0.00
    2    8   18      4.90      0.00
    4    8   18      7.47      0.00
    6    8   18    -28.79      0.00
    8    8   18     20.96      0.00
   10    8   18      4.54      0.00
   12    8   18     14.13      0.00
   14    8   18      5.25      0.00
   16    8   18    -10.10      0.00
    1    9   18    -28.47      0.00
    3    9   18     16.75      0.00
    5    9   18      4.77      0.00
    7    9   18    -13.95      0.00
    9    9   18      8.44      0.00
   11    9   18      9.55      0.00
   13    9   18     -3.42      0.00
   15    9   18    -30.60      0.00
   17    9   18    -11.42      0.00
    0   10   18      6.10      0.00
    2   10   18     -0.89      0.00
    4   10   18     37.18      0.00
    6   10   18     -1.03      0.00
    8   10   18     -1.75      0.00
   10   10   18    -11.79      0.00
   12   10   18     -4.97      0.00
   14   10   18    -15.93      0.00
   16   10   18     -1.80      0.00
    1   11   18     -2.94      0.00
    3   11   18     -5.96      0.00
    5   11   18     19.18      0.00
    7   11   18     -4.13      0.00
    9   11   18    -12.39      0.00
   11   11   18      5.73      0.00
   13   11   18     -3.53      0.00
   15   11   18     -8.94      0.00
   17   11   18     -0.89      0.00
    0   12   18     -8.47      0.00
    2   12   18    -12.34      0.00
    4   12   18     11.35      0.00
    6   12   18    -12.72      0.00
    8   12   18     13.11      0.00
   10   12   18     -7.16      0.00
   12   12   18     -7.69      0.00
   14   12   18     -8.80      0.00
   16   12   18    -11.29      0.00
    1   13   18    -13.29      0.00
    3   13   18      0.54      0.00
    5   13   18    -16.61      0.00
    7   13   18      5.10      0.00
    9   13   18     -4.29      0.00
   11   13   18    -18.41      0.00
   13   13   18      5.69      0.00
   15   13   18     12.49      0.00
   17   13   18      0.49      0.00
    0   14   18    -10.10      0.00
    2   14   18     12.14      0.00
    4   14   18     16.19      0.00
    6   14   18    -22.37      0.00
    8   14   18     11.41      0.00
   10   14   18    -10.05      0.00
   12   14   18     -9.43      0.00
   14   14   18     -6.76      0.00
   16   14   18      0.45      0.00
    1   15   18      4.31      0.00
    3   15   18     22.68      0.00
    5   15   18      8.13      0.00
    7   15   18      3.62      0.00
    9   15   18      1.08      0.00
   11   15   18     -5.24      0.00
   13   15   18     -2.80      0.00
   15   15   18     -1.49      0.00
   17   15   18      5.93      0.00
    0   16   18    -14.19      0.00
    2   16   18     -9.69      0.00
    4   16   18      3.12      0.00
    6   16   18     -9.68      0.00
    8   16   18     -1.55      0.00
   10   16   18      6.00      0.00
   12   16   18      0.40      0.00
   14   16   18     -1.78      0.00
   16   16   18     -0.68      0.00
    1   17   18     12.10      0.00
    3   17   18      3.40      0.00
    5   17   18     13.49      0.00
    7   17   18     -6.19      0.00
    9   17   18     -5.59      0.00
   11   17   18     -6.15      0.00
   13   17   18    -24.87      0.00
   15   17   18     -1.16      0.00
   17   17   18      1.24      0.00
    0   18   18      4.09      0.00
    2   18   18      4.86      0.00
    4   18   18     15.87      0.00
    6   18   18      5.04      0.00
    8   18   18      7.91      0.00
   10   18   18      4.36      0.00
   12   18   18     -8.54      0.00
   14   18   18      2.80      0.00
   16   18   18     -8.74      0.00
   18   18   18    -14.92      0.00
    1    0   19     -6.93      0.00
    3    0   19     -4.12      0.00
    5    0   19     -9.51      0.00
    7    0   19     26.24      0.00
    9    0   19      5.83      0.00
   11    0   19      6.68      0.00
   13    0   19     -2.87      0.00
   15    0   19     -4.94      0.00
   17    0   19     23.22      0.00
    0    1   19      0.65      0.00
    2    1   19    -24.08      0.00
    4    1   19    -17.57      0.00
    6    1   19      6.53      0.00
    8    1   19    -12.74      0.00
   10    1   19    -23.32      0.00
   12    1   19     -7.38      0.00
   14    1   19    -12.05      0.00
   16    1   19     -9.79      0.00
   18    1   19      3.07      0.00
    1    2   19    -13.20      0.00
    3    2   19     -2.80      0.00
    5    2   19     18.33      0.00
    7    2   19      7.96      0.00
    9    2   19     -3.95      0.00
   11    2   19      8.99      0.00
   13    2   19     -3.19      0.00
   15    2   19      7.81      0.00
   17    2   19      5.19      0.00
    0    3   19    -21.91      0.00
    2    3   19     -6.02      0.00
    4    3   19     20.57      0.00
    6    3   19      8.46      0.00
    8    3   19     -3.89      0.00
   10    3   19     -9.94      0.00
   12    3   19      5.08      0.00
   14    3   19     -5.12      0.00
   16    3   19     -5.03      0.00
   18    3   19      4.31      0.00
    1    4   19     -1.43      0.00
    3    4   19     21.27      0.00
    5    4   19    -12.77      0.00
    7    4   19    -14.89      0.00
    9    4   19    -18.21      0.00
   11    4   19     -8.18      0.00
   13    4   19      3.23      0.00
   15    4   19      0.96      0.00
   17    4   19     -7.75      0.00
    0    5   19    -69.23      0.00
    2    5   19    -31.54      0.00
    4    5   19     -6.50      0.00
    6    5   19     -0.13      0.00
    8    5   19     13.33      0.00
   10    5   19    -18.21      0.00
   12    5   19      0.15      0.00
   14    5   19    -15.54      0.00
   16    5   19    -11.87      0.00
   18    5   19    -12.41      0.00
    1    6   19     17.01      0.00
    3    6   19      9.12      0.00
    5    6   19    -35.05      0.00
    7    6   19     11.57      0.00
    9    6   19     11.23      0.00
   11    6   19      1.74      0.00
   13    6   19     16.04      0.00
   15    6   19      8.48      0.00
   17    6   19      5.49      0.00
    0    7   19    -19.13      0.00
    2    7   19      4.75      0.00
    4    7   19      3.82      0.00
    6    7   19     -4.66      0.00
    8    7   19      6.67      0.00
   10    7   19     12.36      0.00
   12    7   19     10.90      0.00
   14    7   19      3.28      0.00
   16    7   19     -5.30      0.00
   18    7   19    -14.14      0.00
    1    8   19      4.48      0.00
    3    8   19     -5.61      0.00
    5    8   19    -20.64      0.00
    7    8   19    -18.95      0.00
    9    8   19     18.30      0.00
   11    8   19     12.08      0.00
   13    8   19     -8.52      0.00
   15    8   19     -9.26      0.00
   17    8   19    -19.41      0.00
    0    9   19    -12.82      0.00
    2    9   19      7.83      0.00
    4    9   19     20.00      0.00
    6    9   19      8.43      0.00
    8    9   19     -2.61      0.00
   10    9   19     12.08      0.00
   12    9   19     15.98      0.00
   14    9   19      9.64      0.00
   16    9   19      5.32      0.00
   18    9   19      4.48      0.00
    1   10   19      5.89      0.00
    3   10   19     26.99      0.00
    5   10   19      6.34      0.00
    7   10   19     -5.49      0.00
    9   10   19      3.96      0.00
   11   10   19     -3.85      0.00
   13   10   19      9.52      0.00
   15   10   19      1.31      0.00
   17   10   19      0.15      0.00
    0   11   19    -41.17      0.00
    2   11   19     -8.26      0.00
    4   11   19    -11.04      0.00
    6   11   19    -11.26      0.00
    8   11   19     -9.31      0.00
   10   11   19    -20.84      0.00
   12   11   19     -7.94      0.00
   14   11   19      0.73      0.00
   16   11   19    -19.84      0.00
   18   11   19     -9.35      0.00
    1   12   19     -4.50      0.00
    3   12   19     -7.92      0.00
    5   12   19      1.22      0.00
    7   12   19     13.48      0.00
    9   12   19     -0.53      0.00
   11   12   19    -23.27      0.00
   13   12   19     -5.41      0.00
   15   12   19     -4.30      0.00
   17   12   19    -10.16      0.00
    0   13   19      1.08      0.00
    2   13   19     -5.25      0.00
    4   13   19    -11.31      0.00
    6   13   19      7.96      0.00
    8   13   19    -17.78      0.00
   10   13   19     -6.28      0.00
   12   13   19     -8.28      0.00
   14   13   19     12.40      0.00
   16   13   19    -14.37      0.00
   18   13   19     -4.20      0.00
    1   14   19    -10.79      0.00
    3   14   19    -18.11      0.00
    5   14   19     14.71      0.00
    7   14   19      8.12      0.00
    9   14   19     -0.20      0.00
   11   14   19     -5.63      0.00
   13   14   19     -2.93      0.00
   15   14   19     -6.86      0.00
   17   14   19    -13.82      0.00
    0   15   19     -2.19      0.00
    2   15   19     -3.12      0.00
    4   15   19    -12.58      0.00
    6   15   19      0.30      0.00
    8   15   19    -14.12      0.00
   10   15   19      8.37      0.00
   12   15   19     -7.24      0.00
   14   15   19    -12.46      0.00
   16   15   19      0.78      0.00
   18   15   19     14.41      0.00
    1   16   19     -0.79      0.00
    3   16   19     12.01      0.00
    5   16   19      9.78      0.00
    7   16   19      0.35      0.00
    9   16   19    -10.73      0.00
   11   16   19     -2.01      0.00
   13   16   19      0.02      0.00
   15   16   19    -14.92      0.00
   17   16   19     -9.88      0.00
    0   17   19    -23.99      0.00
    2   17   19      9.22      0.00
    4   17   19     -4.78      0.00
    6   17   19     -3.07      0.00
    8   17   19      9.55      0.00
   10   17   19     -8.51      0.00
   12   17   19    -14.27      0.00
   14   17   19      3.35      0.00
   16   17   19     -7.87      0.00
   18   17   19      6.17      0.00
    1   18   19     -3.65      0.00
    3   18   19      4.99      0.00
    5   18   19    -21.92      0.00
    7   18   19     -6.02      0.00
    9   18   19      1.31      0.00
   11   18   19    -13.70      0.00
   13   18   19     -2.86      0.00
   15   18   19      1.19      0.00
   17   18   19    -21.46      0.00
    0   19   19     15.36      0.00
    2   19   19     13.95      0.00
    4   19   19    -13.45      0.00
    6   19   19    -10.99      0.00
    8   19   19     -3.04      0.00
   10   19   19    -10.15      0.00
   12   19   19    -12.00      0.00
   14   19   19      3.70      0.00
   16   19   19     -8.12      0.00
   18   19   19     -1.54      0.00
    0    0   20     20.24      0.00
    2    0   20     13.47      0.00
    4    0   20      7.25      0.00
    6    0   20     36.63      0.00
    8    0   20     11.81      0.00
   10    0   20     31.10      0.00
   12    0   20    -10.75      0.00
   14    0   20     -6.55      0.00
   16    0   20     29.50      0.00
   18    0   20      2.53      0.00
    1    1   20    -29.80      0.00
    3    1   20     -0.73      0.00
    5    1   20     -2.82      0.00
    7    1   20    -11.29      0.00
    9    1   20     -6.24      0.00
   11    1   20      9.74      0.00
   13    1   20    -11.06      0.00
   15    1   20     -3.30      0.00
   17    1   20      8.18      0.00
   19    1   20      4.87      0.00
    0    2   20     10.81      0.00
    2    2   20     38.50      0.00
    4    2   20      2.59      0.00
    6    2   20     -1.80      0.00
    8    2   20    -16.57      0.00
   10    2   20     -9.13      0.00
   12    2   20    -21.46      0.00
   14    2   20    -26.77      0.00
   16    2   20     -5.96      0.00
   18    2   20     -8.39      0.00
    1    3   20    -21.33      0.00
    3    3   20      8.47      0.00
    5    3   20     -2.27      0.00
    7    3   20     -2.86      0.00
    9    3   20      8.81      0.00
   11    3   20     -0.56      0.00
   13    3   20    -12.00      0.00
   15    3   20     -4.38      0.00
   17    3   20     -0.01      0.00
   19    3   20     -5.29      0.00
    0    4   20      8.56      0.00
    2    4   20     -2.77      0.00
    4    4   20    -19.98      0.00
    6    4   20    -17.53      0.00
    8    4   20    -14.76      0.00
   10    4   20     14.64      0.00
   12    4   20      8.45      0.00
   14    4   20      8.34      0.00
   16    4   20     11.64      0.00
   18    4   20      4.52      0.00
    1    5   20      5.39      0.00
    3    5   20     -3.08      0.00
    5    5   20      4.59      0.00
    7    5   20     -8.88      0.00
    9    5   20     -1.07      0.00
   11    5   20    -14.16      0.00
   13    5   20     -4.42      0.00
   15    5   20      6.46      0.00
   17    5   20     -4.14      0.00
   19    5   20    -22.08      0.00
    0    6   20     35.42      0.00
    2    6   20    -16.94      0.00
    4    6   20    -18.80      0.00
    6    6   20     -9.95      0.00
    8    6   20      6.84      0.00
   10    6   20     14.45      0.00
   12    6   20     -9.76      0.00
   14    6   20      1.71      0.00
   16    6   20     12.44      0.00
   18    6   20    -10.88      0.00
    1    7   20     16.69      0.00
    3    7   20      4.65      0.00
    5    7   20      3.18      0.00
    7    7   20     -1.22      0.00
    9    7   20     -6.26      0.00
   11    7   20     -0.71      0.00
   13    7   20      1.81      0.00
   15    7   20     -7.14      0.00
   17    7   20     -3.28      0.00
   19    7   20     -0.70      0.00
    0    8   20     16.93      0.00
    2    8   20    -20.67      0.00
    4    8   20    -18.42      0.00
    6    8   20     -2.16      0.00
    8    8   20     15.46      0.00
   10    8   20      9.09      0.00
   12    8   20     17.74      0.00
   14    8   20     -2.42      0.00
   16    8   20      8.83      0.00
   18    8   20      7.17      0.00
    1    9   20     -2.94      0.00
    3    9   20      0.24      0.00
    5    9   20     -6.40      0.00
    7    9   20    -15.79      0.00
    9    9   20    -10.45      0.00
   11    9   20     11.31      0.00
   13    9   20    -10.81      0.00
   15    9   20    -22.33      0.00
   17    9   20    -11.83      0.00
   19    9   20      6.34      0.00
    0   10   20     14.12      0.00
    2   10   20    -19.32      0.00
    4   10   20      5.99      0.00
    6   10   20     10.95      0.00
    8   10   20     -4.78      0.00
   10   10   20      7.11      0.00
   12   10   20     24.16      0.00
   14   10   20    -11.09      0.00
   16   10   20      3.65      0.00
   18   10   20     21.43      0.00
    1   11   20      4.35      0.00
    3   11   20     -9.39      0.00
    5   11   20    -12.32      0.00
    7   11   20      0.80      0.00
    9   11   20     -1.71      0.00
   11   11   20     11.92      0.00
   13   11   20     -1.35      0.00
   15   11   20     -5.84      0.00
   17   11   20    -17.20      0.00
   19   11   20      1.68      0.00
    0   12   20     -2.45      0.00
    2   12   20     -4.06      0.00
    4   12   20      7.38      0.00
    6   12   20     -7.39      0.00
    8   12   20      9.56      0.00
   10   12   20     -0.26      0.00
   12   12   20     14.86      0.00
   14   12   20      4.04      0.00
   16   12   20     -2.45      0.00
   18   12   20     -4.33      0.00
    1   13   20    -10.61      0.00
    3   13   20      8.48      0.00
    5   13   20    -16.30      0.00
    7   13   20     15.46      0.00
    9   13   20      9.60      0.00
   11   13   20     -4.46      0.00
   13   13   20      6.11      0.00
   15   13   20     -1.46      0.00
   17   13   20    -10.62      0.00
   19   13   20     -6.44      0.00
    0   14   20     16.46      0.00
    2   14   20     -3.09      0.00
    4   14   20     14.77      0.00
    6   14   20      5.75      0.00
    8   14   20      4.17      0.00
   10   14   20    -22.41      0.00
   12   14   20     -3.38      0.00
   14   14   20     -1.71      0.00
   16   14   20     22.75      0.00
   18   14   20     -1.77      0.00
    1   15   20     -5.31      0.00
    3   15   20     -5.73      0.00
    5   15   20      0.47      0.00
    7   15   20     -3.52      0.00
    9   15   20     -4.89      0.00
   11   15   20     -1.73      0.00
   13   15   20      1.88      0.00
   15   15   20    -14.73      0.00
   17   15   20     -6.73      0.00
   19   15   20    -16.88      0.00
    0   16   20     20.82      0.00
    2   16   20     -6.41      0.00
    4   16   20     18.93      0.00
    6   16   20     20.94      0.00
    8   16   20      2.54      0.00
   10   16   20     -4.67      0.00
   12   16   20     13.16      0.00
   14   16   20      8.80      0.00
   16   16   20     26.09      0.00
   18   16   20      4.46      0.00
    1   17   20    -15.04      0.00
    3   17   20     -3.10      0.00
    5   17   20      7.60      0.00
    7   17   20      7.46      0.00
    9   17   20      7.53      0.00
   11   17   20      6.71      0.00
   13   17   20      1.79      0.00
   15   17   20     -4.76      0.00
   17   17   20     -0.07      0.00
   19   17   20    -15.30      0.00
    0   18   20     18.22      0.00
    2   18   20      9.32      0.00
    4   18   20     12.32      0.00
    6   18   20      0.29      0.00
    8   18   20     -5.22      0.00
   10   18   20     -4.95      0.00
   12   18   20      4.49      0.00
   14   18   20     -3.31      0.00
   16   18   20      3.15      0.00
   18   18   20     -3.75      0.00
    1   19   20      4.70      0.00
    3   19   20      7.14      0.00
    5   19   20     -6.61      0.00
    7   19   20      5.44      0.00
    9   19   20      3.66      0.00
   11   19   20     -3.12      0.00
   13   19   20      0.42      0.00
   15   19   20     -3.41      0.00
   17   19   20    -18.55      0.00
   19   19   20     -8.15      0.00
    0   20   20     13.52      0.00
    2   20   20    -19.52      0.00
    4   20   20    -13.99      0.00
    6   20   20    -12.95      0.00
    8   20   20     -0.35      0.00
   10   20   20     35.18      0.00
   12   20   20     17.91      0.00
   14   20   20     -9.24      0.00
   16   20   20     -2.85      0.00
   18   20   20    -23.73      0.00
   20   20   20     -3.11      0.00
    1    0   21     29.38      0.00
    3    0   21     20.84      0.00
    5    0   21    -24.74      0.00
    7    0   21    -22.13      0.00
    9    0   21      9.20      0.00
   11    0   21     11.84      0.00
   13    0   21      9.60      0.00
   15    0   21      5.59      0.00
   17    0   21     -5.73      0.00
   19    0   21      3.23      0.00
    0    1   21    -14.35      0.00
    2    1   21      7.18      0.00
    4    1   21     24.37      0.00
    6    1   21    -21.41      0.00
    8    1   21     -6.32      0.00
   10    1   21     -9.38      0.00
   12    1   21    -15.65      0.00
   14    1   21     12.81      0.00
   16    1   21     -0.88      0.00
   18    1   21      2.93      0.00
   20    1   21      0.60      0.00
    1    2   21      4.59      0.00
    3    2   21      5.88      0.00
    5    2   21      2.75      0.00
    7    2   21     -3.39      0.00
    9    2   21      5.74      0.00
   11    2   21      0.67      0.00
   13    2   21     11.63      0.00
   15    2   21      5.93      0.00
   17    2   21    -17.90      0.00
   19    2   21      5.41      0.00
    0    3   21     23.48      0.00
    2    3   21     12.22      0.00
    4    3   21      3.68      0.00
    6    3   21    -26.66      0.00
    8    3   21     -1.84      0.00
   10    3   21    -21.61      0.00
   12    3   21     -6.72      0.00
   14    3   21      0.02      0.00
   16    3   21    -15.68      0.00
   18    3   21      2.05      0.00
   20    3   21     -4.85      0.00
    1    4   21    -41.11      0.00
    3    4   21     -5.98      0.00
    5    4   21      5.51      0.00
    7    4   21     -1.78      0.00
    9    4   21     -2.88      0.00
   11    4   21     -9.98      0.00
   13    4   21      0.52      0.00
   15    4   21     -4.41      0.00
   17    4   21    -13.29      0.00
   19    4   21     -6.87      0.00
    0    5   21      3.52      0.00
    2    5   21      7.52      0.00
    4    5   21     14.41      0.00
    6    5   21    -13.26      0.00
    8    5   21     10.46      0.00
   10    5   21      9.07      0.00
   12    5   21      9.00      0.00
   14    5   21      3.11      0.00
   16    5   21     11.58      0.00
   18    5   21      2.89      0.00
   20    5   21     -1.54      0.00
    1    6   21    -19.61      0.00
    3    6   21      4.65      0.00
    5    6   21     20.63      0.00
    7    6   21     20.12      0.00
    9    6   21     12.97      0.00
   11    6   21      7.72      0.00
   13    6   21    -14.52      0.00
   15    6   21    -16.27      0.00
   17    6   21      2.39      0.00
   19    6   21     -6.05      0.00
    0    7   21     -8.11      0.00
    2    7   21      3.03      0.00
    4    7   21      6.46      0.00
    6    7   21    -17.76      0.00
    8    7   21     -5.90      0.00
   10    7   21     13.06      0.00
   12    7   21      4.13      0.00
   14    7   21      2.12      0.00
   16    7   21      7.19      0.00
   18    7   21     -9.50      0.00
   20    7   21     -2.27      0.00
    1    8   21    -30.06      0.00
    3    8   21    -13.76      0.00
    5    8   21      4.74      0.00
    7    8   21     -3.16      0.00
    9    8   21     11.06      0.00
   11    8   21     -1.11      0.00
   13    8   21    -21.83      0.00
   15    8   21    -13.74      0.00
   17    8   21     -6.41      0.00
   19    8   21     -8.91      0.00
    0    9   21     -6.57      0.00
    2    9   21    -12.19      0.00
    4    9   21    -13.78      0.00
    6    9   21    -19.70      0.00
    8    9   21    -13.99      0.00
   10    9   21      0.58      0.00
   12    9   21     -0.39      0.00
   14    9   21      1.92      0.00
   16    9   21      2.10      0.00
   18    9   21     -0.71      0.00
   20    9   21     -3.25      0.00
    1   10   21     -8.77      0.00
    3   10   21     -4.56      0.00
    5   10   21      4.08      0.00
    7   10   21     -8.37      0.00
    9   10   21      3.74      0.00
   11   10   21     -6.13      0.00
   13   10   21      0.46      0.00
   15   10   21      8.42      0.00
   17   10   21     11.37      0.00
   19   10   21    -11.54      0.00
    0   11   21     -8.49      0.00
    2   11   21      2.85      0.00
    4   11   21     -4.91      0.00
    6   11   21    -15.06      0.00
    8   11   21     -3.45      0.00
   10   11   21     13.77      0.00
   12   11   21      1.27      0.00
   14   11   21      2.21      0.00
   16   11   21    -10.45      0.00
   18   11   21      5.21      0.00
   20   11   21      0.84      0.00
    1   12   21      0.99      0.00
    3   12   21     -0.93      0.00
    5   12   21      4.74      0.00
    7   12   21    -11.81      0.00
    9   12   21     -0.66      0.00
   11   12   21      0.14      0.00
   13   12   21      1.84      0.00
   15   12   21      3.30      0.00
   17   12   21     13.58      0.00
   19   12   21      3.84      0.00
    0   13   21     -2.07      0.00
    2   13   21     -2.96      0.00
    4   13   21      6.45      0.00
    6   13   21      4.80      0.00
    8   13   21     -7.57      0.00
   10   13   21      5.67      0.00
   12   13   21    -24.15      0.00
   14   13   21      5.46      0.00
   16   13   21     -5.31      0.00
   18   13   21     -7.28      0.00
   20   13   21    -14.29      0.00
    1   14   21      6.01      0.00
    3   14   21     -4.60      0.00
    5   14   21     -1.42      0.00
    7   14   21    -28.28      0.00
    9   14   21     -1.00      0.00
   11   14   21     -2.78      0.00
   13   14   21     -5.35      0.00
   15   14   21    -15.45      0.00
   17   14   21    -13.28      0.00
   19   14   21     -1.23      0.00
    0   15   21     -6.08      0.00
    2   15   21    -15.76      0.00
    4   15   21    -14.21      0.00
    6   15   21    -16.12      0.00
    8   15   21     -5.24      0.00
   10   15   21      8.50      0.00
   12   15   21    -11.60      0.00
   14   15   21      5.49      0.00
   16   15   21     -5.55      0.00
   18   15   21     -7.78      0.00
   20   15   21     -7.19      0.00
    1   16   21     -6.07      0.00
    3   16   21     -7.77      0.00
    5   16   21    -16.52      0.00
    7   16   21    -16.33      0.00
    9   16   21      3.87      0.00
   11   16   21     -4.13      0.00
   13   16   21      4.93      0.00
   15   16   21     -3.24      0.00
   17   16   21      6.79      0.00
   19   16   21      5.81      0.00
    0   17   21     -9.91      0.00
    2   17   21     10.60      0.00
    4   17   21     -4.59      0.00
    6   17   21    -26.81      0.00
    8   17   21     -4.99      0.00
   10   17   21    -13.27      0.00
   12   17   21      2.09      0.00
   14   17   21     26.20      0.00
   16   17   21     -0.64      0.00
   18   17   21      9.05      0.00
   20   17   21    -12.36      0.00
    1   18   21     -1.87      0.00
    3   18   21      9.67      0.00
    5   18   21    -10.90      0.00
    7   18   21     -2.20      0.00
    9   18   21     -8.75      0.00
   11   18   21    -25.39      0.00
   13   18   21    -10.96      0.00
   15   18   21     -8.36      0.00
   17   18   21     -8.54      0.00
   19   18   21     -8.91      0.00
    0   19   21      5.44      0.00
    2   19   21      0.87      0.00
    4   19   21     -2.40      0.00
    6   19   21     -0.61      0.00
    8   19   21      6.76      0.00
   10   19   21      1.20      0.00
   12   19   21      2.04      0.00
   14   19   21      5.88      0.00
   16   19   21     -3.22      0.00
   18   19   21     -0.31      0.00
   20   19   21      6.80      0.00
    1   20   21      0.48      0.00
    3   20   21     -1.85      0.00
    5   20   21    -10.80      0.00
    7   20   21      0.53      0.00
    9   20   21     -0.39      0.00
   11   20   21    -11.52      0.00
   13   20   21     -4.24      0.00
   15   20   21      3.30      0.00
   17   20   21      2.76      0.00
   19   20   21      9.16      0.00
    0   21   21     -2.27      0.00
    2   21   21      2.64      0.00
    4   21   21      2.47      0.00
    6   21   21     -3.84      0.00
    8   21   21      4.18      0.00
   10   21   21     -9.35      0.00
   12   21   21     -8.80      0.00
   14   21   21      3.71      0.00
   16   21   21    -10.63      0.00
   18   21   21    -35.83      0.00
   20   21   21      6.03      0.00
    0    0   22      7.76      0.00
    2    0   22    -18.60      0.00
    4    0   22    -26.73      0.00
    6    0   22    -10.95      0.00
    8    0   22    -16.20      0.00
   10    0   22     27.40      0.00
   12    0   22      8.39      0.00
   14    0   22      2.21      0.00
   16    0   22      6.93      0.00
   18    0   22    -17.07      0.00
   20    0   22      9.98      0.00
    1    1   22     -0.17      0.00
    3    1   22     -0.01      0.00
    5    1   22      8.67      0.00
    7    1   22     -4.43      0.00
    9    1   22     -0.83      0.00
   11    1   22      9.60      0.00
   13    1   22    -15.83      0.00
   15    1   22    -13.36      0.00
   17    1   22     13.16      0.00
   19    1   22      3.77      0.00
   21    1   22      2.46      0.00
    0    2   22    -25.97      0.00
    2    2   22      7.43      0.00
    4    2   22    -13.69      0.00
    6    2   22    -15.91      0.00
    8    2   22     -3.82      0.00
   10    2   22     -9.84      0.00
   12    2   22     -4.49      0.00
   14    2   22     -8.04      0.00
   16    2   22    -28.01      0.00
   18    2   22    -11.18      0.00
   20    2   22     -0.33      0.00
    1    3   22     10.48      0.00
    3    3   22     11.84      0.00
    5    3   22    -16.96      0.00
    7    3   22     -0.34      0.00
    9    3   22      3.38      0.00
   11    3   22    -18.83      0.00
   13    3   22      0.54      0.00
   15    3   22     -1.58      0.00
   17    3   22    -13.70      0.00
   19    3   22     -5.22      0.00
   21    3   22      5.71      0.00
    0    4   22    -33.02      0.00
    2    4   22    -24.11      0.00
    4    4   22     -8.91      0.00
    6    4   22      7.81      0.00
    8    4   22     -5.51      0.00
   10    4   22     -8.26      0.00
   12    4   22     -0.54      0.00
   14    4   22     15.96      0.00
   16    4   22      0.50      0.00
   18    4   22     15.25      0.00
   20    4   22      9.54      0.00
    1    5   22     17.44      0.00
    3    5   22    -29.82      0.00
    5    5   22      9.60      0.00
    7    5   22      4.28      0.00
    9    5   22     -4.76      0.00
   11    5   22     -4.03      0.00
   13    5   22     -3.15      0.00
   15    5   22     21.16      0.00
   17    5   22      0.92      0.00
   19    5   22    -10.53      0.00
   21    5   22      7.19      0.00
    0    6   22      7.56      0.00
    2    6   22    -12.87      0.00
    4    6   22     14.95      0.00
    6    6   22     15.80      0.00
    8    6   22    -18.08      0.00
   10    6   22     -8.58      0.00
   12    6   22    -16.26      0.00
   14    6   22      8.75      0.00
   16    6   22     25.16      0.00
   18    6   22     -5.26      0.00
   20    6   22    -16.01      0.00
    1    7   22     -7.78      0.00
    3    7   22    -17.09      0.00
    5    7   22      4.72      0.00
    7    7   22     14.88      0.00
    9    7   22     -9.38      0.00
   11    7   22     -6.45      0.00
   13    7   22    -10.67      0.00
   15    7   22     11.63      0.00
   17    7   22      3.63      0.00
   19    7   22     -7.79      0.00
   21    7   22      0.31      0.00
    0    8   22     -7.95      0.00
    2    8   22     -1.18      0.00
    4    8   22     -1.36      0.00
    6    8   22    -11.44      0.00
    8    8   22     -1.44      0.00
   10    8   22     -7.64      0.00
   12    8   22     11.62      0.00
   14    8   22     20.05      0.00
   16    8   22     25.29      0.00
   18    8   22      7.64      0.00
   20    8   22     -1.88      0.00
    1    9   22    -11.76      0.00
    3    9   22     -5.51      0.00
    5    9   22      1.00      0.00
    7    9   22      8.12      0.00
    9    9   22     -3.12      0.00
   11    9   22      5.97      0.00
   13    9   22      4.62      0.00
   15    9   22     20.83      0.00
   17    9   22     -3.45      0.00
   19    9   22      0.44      0.00
   21    9   22      3.29      0.00
    0   10   22     16.53      0.00
    2   10   22     -9.56      0.00
    4   10   22     -3.42      0.00
    6   10   22     -3.61      0.00
    8   10   22    -10.44      0.00
   10   10   22      5.01      0.00
   12   10   22     12.37      0.00
   14   10   22     -7.01      0.00
   16   10   22     -5.94      0.00
   18   10   22     -3.17      0.00
   20   10   22     12.06      0.00
    1   11   22     20.41      0.00
    3   11   22    -17.35      0.00
    5   11   22      5.59      0.00
    7   11   22     -3.24      0.00
    9   11   22    -12.03      0.00
   11   11   22     18.69      0.00
   13   11   22     -7.42      0.00
   15   11   22      6.76      0.00
   17   11   22    -13.85      0.00
   19   11   22      0.66      0.00
   21   11   22      6.21      0.00
    0   12   22      2.58      0.00
    2   12   22     -5.86      0.00
    4   12   22      3.60      0.00
    6   12   22     -4.89      0.00
    8   12   22      1.72      0.00
   10   12   22      4.29      0.00
   12   12   22     15.10      0.00
   14   12   22      1.88      0.00
   16   12   22      4.75      0.00
   18   12   22     -8.45      0.00
   20   12   22      3.68      0.00
    1   13   22     -0.76      0.00
    3   13   22     17.47      0.00
    5   13   22      4.98      0.00
    7   13   22      7.89      0.00
    9   13   22     -7.31      0.00
   11   13   22     -1.82      0.00
   13   13   22     -2.37      0.00
   15   13   22     -6.78      0.00
   17   13   22     -4.35      0.00
   19   13   22    -10.50      0.00
   21   13   22      1.05      0.00
    0   14   22      5.04      0.00
    2   14   22     -0.85      0.00
    4   14   22      4.49      0.00
    6   14   22    -16.63      0.00
    8   14   22     10.08      0.00
   10   14   22    -11.35      0.00
   12   14   22      0.38      0.00
   14   14   22     -7.84      0.00
   16   14   22      3.65      0.00
   18   14   22     -3.26      0.00
   20   14   22     -1.13      0.00
    1   15   22     10.27      0.00
    3   15   22      2.62      0.00
    5   15   22     -0.85      0.00
    7   15   22     -6.00      0.00
    9   15   22     -5.29      0.00
   11   15   22    -17.82      0.00
   13   15   22      3.03      0.00
   15   15   22     -4.44      0.00
   17   15   22     -6.26      0.00
   19   15   22    -16.42      0.00
   21   15   22      5.33      0.00
    0   16   22      9.00      0.00
    2   16   22     -2.26      0.00
    4   16   22      1.19      0.00
    6   16   22    -14.09      0.00
    8   16   22     15.69      0.00
   10   16   22      8.65      0.00
   12   16   22     10.92      0.00
   14   16   22      3.02      0.00
   16   16   22     -5.23      0.00
   18   16   22      3.67      0.00
   20   16   22     -1.26      0.00
    1   17   22      8.16      0.00
    3   17   22      2.97      0.00
    5   17   22      4.00      0.00
    7   17   22     -2.30      0.00
    9   17   22     -6.52      0.00
   11   17   22    -10.24      0.00
   13   17   22      1.70      0.00
   15   17   22      8.56      0.00
   17   17   22     12.13      0.00
   19   17   22     -2.54      0.00
   21   17   22     10.83      0.00
    0   18   22    -13.12      0.00
    2   18   22     -3.72      0.00
    4   18   22      9.16      0.00
    6   18   22      2.50      0.00
    8   18   22     10.77      0.00
   10   18   22     -1.74      0.00
   12   18   22      0.99      0.00
   14   18   22     -5.10      0.00
   16   18   22      1.52      0.00
   18   18   22      1.01      0.00
   20   18   22    -32.78      0.00
    1   19   22     15.35      0.00
    3   19   22     10.91      0.00
    5   19   22     -2.19      0.00
    7   19   22      8.66      0.00
    9   19   22      7.47      0.00
   11   19   22      5.60      0.00
   13   19   22      1.00      0.00
   15   19   22     -8.60      0.00
   17   19   22    -11.74      0.00
   19   19   22     -8.81      0.00
   21   19   22      6.15      0.00
    0   20   22     10.10      0.00
    2   20   22     -6.10      0.00
    4   20   22      7.73      0.00
    6   20   22     13.08      0.00
    8   20   22     11.62      0.00
   10   20   22     -1.40      0.00
   12   20   22     -3.30      0.00
   14   20   22      0.39      0.00
   16   20   22     -8.59      0.00
   18   20   22    -19.99      0.00
   20   20   22    -16.96      0.00
    1   21   22     -8.56      0.00
    3   21   22    -13.21      0.00
    5   21   22      6.71      0.00
    7   21   22     12.99      0.00
    9   21   22      5.74      0.00
   11   21   22     13.25      0.00
   13   21   22      5.16      0.00
   15   21   22      3.01      0.00
   17   21   22     -7.27      0.00
   19   21   22      3.21      0.00
   21   21   22    -13.47      0.00
    0   22   22     40.96      0.00
    2   22   22     26.31      0.00
    4   22   22     15.17      0.00
    6   22   22      3.77      0.00
    8   22   22      7.75      0.00
   10   22   22    -18.19      0.00
   12   22   22     -4.22      0.00
   14   22   22     18.13      0.00
   16   22   22     -3.93      0.00
   18   22   22    -23.40      0.00
   20   22   22    -14.97      0.00
   22   22   22      2.25      0.00
    1    0   23    -33.35      0.00
    3    0   23    -18.11      0.00
    5    0   23     -9.15      0.00
    7    0   23      6.96      0.00
    9    0   23     -3.06      0.00
   11    0   23     -4.11      0.00
   13    0   23      0.93      0.00
   15    0   23     -5.09      0.00
   17    0   23      6.54      0.00
   19    0   23     -1.29      0.00
   21    0   23    -12.40      0.00
    0    1   23      6.52      0.00
    2    1   23    -10.71      0.00
    4    1   23      3.07      0.00
    6    1   23      8.21      0.00
    8    1   23      5.69      0.00
   10    1   23     -6.65      0.00
   12    1   23      3.89      0.00
   14    1   23     -3.02      0.00
   16    1   23     -6.51      0.00
   18    1   23      6.69      0.00
   20    1   23      1.21      0.00
   22    1   23     -6.28      0.00
    1    2   23      0.07      0.00
    3    2   23     10.38      0.00
    5    2   23      9.02      0.00
    7    2   23      6.20      0.00
    9    2   23      3.55      0.00
   11    2   23     -3.19      0.00
   13    2   23      4.09      0.00
   15    2   23     -3.53      0.00
   17    2   23     -6.03      0.00
   19    2   23     12.44      0.00
   21    2   23     -9.63      0.00
    0    3   23     10.10      0.00
    2    3   23     -3.51      0.00
    4    3   23     18.19      0.00
    6    3   23     13.03      0.00
    8    3   23     13.81      0.00
   10    3   23      1.24      0.00
   12    3   23     19.46      0.00
   14    3   23     -2.61      0.00
   16    3   23     -6.64      0.00
   18    3   23     13.97      0.00
   20    3   23      7.88      0.00
   22    3   23     -1.15      0.00
    1    4   23      7.57      0.00
    3    4   23     11.32      0.00
    5    4   23      0.97      0.00
    7    4   23    -13.05      0.00
    9    4   23    -12.16      0.00
   11    4   23      8.54      0.00
   13    4   23     19.76      0.00
   15    4   23      1.79      0.00
   17    4   23      8.96      0.00
   19    4   23     16.41      0.00
   21    4   23      5.03      0.00
    0    5   23     -2.42      0.00
    2    5   23    -23.06      0.00
    4    5   23     -2.69      0.00
    6    5   23      3.96      0.00
    8    5   23     10.83      0.00
   10    5   23     -6.72      0.00
   12    5   23     10.43      0.00
   14    5   23    -16.59      0.00
   16    5   23      5.03      0.00
   18    5   23      5.27      0.00
   20    5   23      0.56      0.00
   22    5   23      1.50      0.00
    1    6   23     13.49      0.00
    3    6   23      8.49      0.00
    5    6   23     -3.29      0.00
    7    6   23     -2.32      0.00
    9    6   23     -3.70      0.00
   11    6   23     10.94      0.00
   13    6   23     10.22      0.00
   15    6   23    -11.31      0.00
   17    6   23      4.66      0.00
   19    6   23     -0.82      0.00
   21    6   23      0.33      0.00
    0    7   23    -10.62      0.00
    2    7   23    -16.71      0.00
    4    7   23      0.61      0.00
    6    7   23     -2.76      0.00
    8    7   23      3.89      0.00
   10    7   23     -1.33      0.00
   12    7   23     13.81      0.00
   14    7   23     -1.74      0.00
   16    7   23     -2.43      0.00
   18    7   23     -6.59      0.00
   20    7   23      3.03      0.00
   22    7   23      3.38      0.00
    1    8   23     -4.53      0.00
    3    8   23      1.20      0.00
    5    8   23    -16.93      0.00
    7    8   23    -14.06      0.00
    9    8   23      3.35      0.00
   11    8   23     -3.07      0.00
   13    8   23      6.71      0.00
   15    8   23      4.29      0.00
   17    8   23      6.78      0.00
   19    8   23     14.96      0.00
   21    8   23     -1.50      0.00
    0    9   23      8.77      0.00
    2    9   23     -0.76      0.00
    4    9   23      6.98      0.00
    6    9   23      3.73      0.00
    8    9   23     -3.21      0.00
   10    9   23     -2.24      0.00
   12    9   23     17.09      0.00
   14    9   23      1.90      0.00
   16    9   23    -13.22      0.00
   18    9   23     -0.02      0.00
   20    9   23     13.04      0.00
   22    9   23     -8.16      0.00
    1   10   23      9.41      0.00
    3   10   23      4.68      0.00
    5   10   23      8.41      0.00
    7   10   23      8.80      0.00
    9   10   23      9.25      0.00
   11   10   23     -3.89      0.00
   13   10   23     -0.55      0.00
   15   10   23      0.56      0.00
   17   10   23     -2.94      0.00
   19   10   23     -1.96      0.00
   21   10   23      0.99      0.00
    0   11   23     21.23      0.00
    2   11   23      8.52      0.00
    4   11   23     -2.90      0.00
    6   11   23     -4.60      0.00
    8   11   23     -8.06      0.00
   10   11   23      7.03      0.00
   12   11   23     10.21      0.00
   14   11   23     -4.86      0.00
   16   11   23    -11.55      0.00
   18   11   23      0.06      0.00
   20   11   23      4.88      0.00
   22   11   23      3.78      0.00
    1   12   23    -14.43      0.00
    3   12   23     -5.75      0.00
    5   12   23     14.61      0.00
    7   12   23      5.14      0.00
    9   12   23     -3.94      0.00
   11   12   23     -3.66      0.00
   13   12   23      3.26      0.00
   15   12   23      8.60      0.00
   17   12   23      7.54      0.00
   19   12   23      4.84      0.00
   21   12   23     -4.41      0.00
    0   13   23      6.57      0.00
    2   13   23    -10.26      0.00
    4   13   23     -1.97      0.00
    6   13   23      9.13      0.00
    8   13   23     -8.05      0.00
   10   13   23      1.20      0.00
   12   13   23    -16.57      0.00
   14   13   23      0.90      0.00
   16   13   23      3.38      0.00
   18   13   23     -1.90      0.00
   20   13   23    -11.33      0.00
   22   13   23      0.56      0.00
    1   14   23     -3.69      0.00
    3   14   23      8.06      0.00
    5   14   23     11.99      0.00
    7   14   23      1.90      0.00
    9   14   23      4.81      0.00
   11   14   23    -10.41      0.00
   13   14   23      6.77      0.00
   15   14   23      3.00      0.00
   17   14   23     -1.80      0.00
   19   14   23      4.26      0.00
   21   14   23    -12.04      0.00
    0   15   23     10.17      0.00
    2   15   23      3.11      0.00
    4   15   23      2.17      0.00
    6   15   23     -0.80      0.00
    8   15   23     -4.61      0.00
   10   15   23     -5.26      0.00
   12   15   23     -7.17      0.00
   14   15   23      6.89      0.00
   16   15   23      3.61      0.00
   18   15   23     -0.92      0.00
   20   15   23    -11.11      0.00
   22   15   23      2.29      0.00
    1   16   23    -12.59      0.00
    3   16   23     -9.14      0.00
    5   16   23     -4.32      0.00
    7   16   23      2.75      0.00
    9   16   23      3.02      0.00
   11   16   23    -12.66      0.00
   13   16   23      2.07      0.00
   15   16   23      7.55      0.00
   17   16   23      6.16      0.00
   19   16   23     -9.55      0.00
   21   16   23     -5.60      0.00
    0   17   23     16.93      0.00
    2   17   23     10.72      0.00
    4   17   23     -0.01      0.00
    6   17   23    -11.43      0.00
    8   17   23    -17.18      0.00
   10   17   23    -22.64      0.00
   12   17   23     -2.27      0.00
   14   17   23      5.31      0.00
   16   17   23      2.18      0.00
   18   17   23      5.81      0.00
   20   17   23     -1.80      0.00
   22   17   23     -0.39      0.00
    1   18   23    -10.34      0.00
    3   18   23      8.51      0.00
    5   18   23     11.46      0.00
    7   18   23      8.65      0.00
    9   18   23     -6.31      0.00
   11   18   23    -12.87      0.00
   13   18   23      1.47      0.00
   15   18   23      2.80      0.00
   17   18   23     -1.12      0.00
   19   18   23     -5.28      0.00
   21   18   23     -8.80      0.00
    0   19   23     10.26      0.00
    2   19   23     -9.81      0.00
    4   19   23      1.53      0.00
    6   19   23      2.91      0.00
    8   19   23      1.49      0.00
   10   19   23     15.67      0.00
   12   19   23      8.55      0.00
   14   19   23    -17.78      0.00
   16   19   23     -8.63      0.00
   18   19   23      2.35      0.00
   20   19   23     16.34      0.00
   22   19   23      4.49      0.00
    1   20   23     -1.86      0.00
    3   20   23      2.89      0.00
    5   20   23      1.64      0.00
    7   20   23     -1.20      0.00
    9   20   23      0.27      0.00
   11   20   23     -6.39      0.00
   13   20   23      2.74      0.00
   15   20   23      5.57      0.00
   17   20   23     13.69      0.00
   19   20   23     13.58      0.00
   21   20   23      7.98      0.00
    0   21   23      3.60      0.00
    2   21   23     -2.50      0.00
    4   21   23      5.35      0.00
    6   21   23      3.64      0.00
    8   21   23      5.45      0.00
   10   21   23      0.12      0.00
   12   21   23     -7.43      0.00
   14   21   23     -4.75      0.00
   16   21   23      9.83      0.00
   18   21   23     -9.60      0.00
   20   21   23     -2.66      0.00
   22   21   23     -2.47      0.00
    1   22   23     -0.88      0.00
    3   22   23      1.22      0.00
    5   22   23      9.50      0.00
    7   22   23      4.36      0.00
    9   22   23     -3.25      0.00
   11   22   23     -9.23      0.00
   13   22   23     -5.27      0.00
   15   22   23      8.25      0.00
   17   22   23     12.52      0.00
   19   22   23      3.45      0.00
   21   22   23      1.93      0.00
    0   23   23     -4.41      0.00
    2   23   23     -7.77      0.00
    4   23   23     -3.07      0.00
    6   23   23     -0.61      0.00
    8   23   23      5.71      0.00
   10   23   23      3.04      0.00
   12   23   23    -12.74      0.00
   14   23   23     -8.19      0.00
   16   23   23     12.48      0.00
   18   23   23    -13.68      0.00
   20   23   23    -12.70      0.00
   22   23   23      1.06      0.00
    0    0   24     20.77      0.00
    2    0   24     -9.01      0.00
    4    0   24    -12.89      0.00
    6    0   24      5.30      0.00
    8    0   24     -2.37      0.00
   10    0   24     -2.40      0.00
   12    0   24     -6.18      0.00
   14    0   24      8.78      0.00
   16    0   24      7.09      0.00
   18    0   24      1.96      0.00
   20    0   24      6.22      0.00
   22    0   24     14.65      0.00
    1    1   24     -9.69      0.00
    3    1   24     -8.98      0.00
    5    1   24      3.12      0.00
    7    1   24      2.02      0.00
    9    1   24      5.81      0.00
   11    1   24     -3.30      0.00
   13    1   24      5.20      0.00
   15    1   24     -1.12      0.00
   17    1   24      2.71      0.00
   19    1   24    -18.25      0.00
   21    1   24      2.94      0.00
   23    1   24      5.15      0.00
    0    2   24    -16.45      0.00
    2    2   24     17.24      0.00
    4    2   24     11.31      0.00
    6    2   24    -11.13      0.00
    8    2   24    -12.70      0.00
   10    2   24    -12.28      0.00
   12    2   24    -11.66      0.00
   14    2   24      3.52      0.00
   16    2   24     -3.97      0.00
   18    2   24     -1.60      0.00
   20    2   24    -17.90      0.00
   22    2   24      2.15      0.00
    1    3   24    -12.70      0.00
    3    3   24     20.65      0.00
    5    3   24      4.18      0.00
    7    3   24    -11.28      0.00
    9    3   24     -6.13      0.00
   11    3   24    -18.57      0.00
   13    3   24     -0.43      0.00
   15    3   24     -3.02      0.00
   17    3   24     -2.49      0.00
   19    3   24     -7.18      0.00
   21    3   24    -10.48      0.00
   23    3   24     -2.07      0.00
    0    4   24     -9.49      0.00
    2    4   24     10.41      0.00
    4    4   24      9.71      0.00
    6    4   24    -12.55      0.00
    8    4   24    -11.93      0.00
   10    4   24      8.09      0.00
   12    4   24      9.60      0.00
   14    4   24     24.48      0.00
   16    4   24     10.80      0.00
   18    4   24     10.29      0.00
   20    4   24     -0.28      0.00
   22    4   24     11.87      0.00
    1    5   24     -6.82      0.00
    3    5   24      0.75      0.00
    5    5   24     22.61      0.00
    7    5   24      0.83      0.00
    9    5   24     -3.77      0.00
   11    5   24     -8.08      0.00
   13    5   24      2.85      0.00
   15    5   24      6.81      0.00
   17    5   24      6.53      0.00
   19    5   24     -4.64      0.00
   21    5   24      3.74      0.00
   23    5   24     -6.69      0.00
    0    6   24     17.30      0.00
    2    6   24     -5.66      0.00
    4    6   24    -15.98      0.00
    6    6   24    -28.83      0.00
    8    6   24    -14.98      0.00
   10    6   24      5.90      0.00
   12    6   24      5.58      0.00
   14    6   24      4.49      0.00
   16    6   24    -13.03      0.00
   18    6   24    -18.24      0.00
   20    6   24     -5.35      0.00
   22    6   24      6.03      0.00
    1    7   24     -3.94      0.00
    3    7   24     -0.89      0.00
    5    7   24     -4.10      0.00
    7    7   24      5.55      0.00
    9    7   24      5.66      0.00
   11    7   24     -2.71      0.00
   13    7   24      4.37      0.00
   15    7   24     -2.38      0.00
   17    7   24      6.61      0.00
   19    7   24      1.67      0.00
   21    7   24    -11.45      0.00
   23    7   24     -0.03      0.00
    0    8   24     12.16      0.00
    2    8   24      5.24      0.00
    4    8   24     -0.52      0.00
    6    8   24     -1.88      0.00
    8    8   24     16.26      0.00
   10    8   24     13.35      0.00
   12    8   24     21.47      0.00
   14    8   24     11.12      0.00
   16    8   24      7.42      0.00
   18    8   24     18.77      0.00
   20    8   24      8.25      0.00
   22    8   24      9.64      0.00
    1    9   24      2.10      0.00
    3    9   24      4.43      0.00
    5    9   24     -2.91      0.00
    7    9   24     -3.53      0.00
    9    9   24     -2.33      0.00
   11    9   24      5.89      0.00
   13    9   24      7.78      0.00
   15    9   24     -0.90      0.00
   17    9   24     18.19      0.00
   19    9   24     24.79      0.00
   21    9   24     -6.65      0.00
   23    9   24     13.60      0.00
    0   10   24      2.43      0.00
    2   10   24     -6.77      0.00
    4   10   24     10.56      0.00
    6   10   24     21.63      0.00
    8   10   24     11.86      0.00
   10   10   24    -13.59      0.00
   12   10   24     -8.35      0.00
   14   10   24      1.95      0.00
   16   10   24      7.03      0.00
   18   10   24     10.34      0.00
   20   10   24      5.14      0.00
   22   10   24     -5.56      0.00
    1   11   24      0.72      0.00
    3   11   24    -11.84      0.00
    5   11   24     -5.81      0.00
    7   11   24     -2.47      0.00
    9   11   24      0.76      0.00
   11   11   24     -5.93      0.00
   13   11   24     -9.45      0.00
   15   11   24     -6.60      0.00
   17   11   24     -8.39      0.00
   19   11   24      0.05      0.00
   21   11   24     -1.37      0.00
   23   11   24      3.15      0.00
    0   12   24    -13.33      0.00
    2   12   24     -7.76      0.00
    4   12   24     11.45      0.00
    6   12   24      8.97      0.00
    8   12   24     15.84      0.00
   10   12   24    -15.54      0.00
   12   12   24     -9.67      0.00
   14   12   24     16.20      0.00
   16   12   24     13.93      0.00
   18   12   24      4.58      0.00
   20   12   24      2.60      0.00
   22   12   24     -5.54      0.00
    1   13   24    -20.72      0.00
    3   13   24      7.14      0.00
    5   13   24    -17.86      0.00
    7   13   24     -5.01      0.00
    9   13   24      5.46      0.00
   11   13   24     -7.10      0.00
   13   13   24      8.57      0.00
   15   13   24      0.96      0.00
   17   13   24     12.22      0.00
   19   13   24      9.92      0.00
   21   13   24     -7.06      0.00
   23   13   24      7.59      0.00
    0   14   24     -3.53      0.00
    2   14   24      1.12      0.00
    4   14   24     10.08      0.00
    6   14   24     -6.83      0.00
    8   14   24     15.91      0.00
   10   14   24     10.01      0.00
   12   14   24      1.98      0.00
   14   14   24     -5.80      0.00
   16   14   24      1.54      0.00
   18   14   24     -3.53      0.00
   20   14   24    -15.62      0.00
   22   14   24    -20.41      0.00
    1   15   24     -1.19      0.00
    3   15   24     -1.84      0.00
    5   15   24     -2.84      0.00
    7   15   24     -7.66      0.00
    9   15   24     -1.46      0.00
   11   15   24     -2.73      0.00
   13   15   24      3.28      0.00
   15   15   24    -16.86      0.00
   17   15   24     -6.35      0.00
   19   15   24     -2.21      0.00
   21   15   24     10.39      0.00
   23   15   24     19.67      0.00
    0   16   24     17.94      0.00
    2   16   24      6.38      0.00
    4   16   24      0.11      0.00
    6   16   24     -5.57      0.00
    8   16   24      7.44      0.00
   10   16   24      9.99      0.00
   12   16   24     15.67      0.00
   14   16   24      2.93      0.00
   16   16   24    -10.11      0.00
   18   16   24     -9.70      0.00
   20   16   24    -11.25      0.00
   22   16   24    -22.19      0.00
    1   17   24     -6.21      0.00
    3   17   24     -4.61      0.00
    5   17   24     10.37      0.00
    7   17   24     11.26      0.00
    9   17   24     -0.42      0.00
   11   17   24     -6.00      0.00
   13   17   24      2.56      0.00
   15   17   24    -16.38      0.00
   17   17   24     -5.48      0.00
   19   17   24     -5.22      0.00
   21   17   24      1.71      0.00
   23   17   24      1.68      0.00
    0   18   24      2.09      0.00
    2   18   24     -0.47      0.00
    4   18   24      3.29      0.00
    6   18   24     -2.03      0.00
    8   18   24      7.75      0.00
   10   18   24      1.64      0.00
   12   18   24     10.50      0.00
   14   18   24     -2.57      0.00
   16   18   24    -20.41      0.00
   18   18   24      2.52      0.00
   20   18   24      2.30      0.00
   22   18   24    -10.28      0.00
    1   19   24    -14.83      0.00
    3   19   24     -2.98      0.00
    5   19   24    -13.95      0.00
    7   19   24     -0.38      0.00
    9   19   24     10.62      0.00
   11   19   24     -8.70      0.00
   13   19   24     -6.10      0.00
   15   19   24    -31.20      0.00
   17   19   24     -2.22      0.00
   19   19   24     14.70      0.00
   21   19   24     -4.74      0.00
   23   19   24      5.27      0.00
    0   20   24      9.09      0.00
    2   20   24     -3.48      0.00
    4   20   24     15.14      0.00
    6   20   24      0.89      0.00
    8   20   24     -9.23      0.00
   10   20   24      2.71      0.00
   12   20   24     10.94      0.00
   14   20   24    -12.33      0.00
   16   20   24    -24.03      0.00
   18   20   24      1.29      0.00
   20   20   24     12.41      0.00
   22   20   24      5.92      0.00
    1   21   24      2.45      0.00
    3   21   24     -2.40      0.00
    5   21   24     16.86      0.00
    7   21   24      6.20      0.00
    9   21   24     -3.39      0.00
   11   21   24      5.42      0.00
   13   21   24     -8.74      0.00
   15   21   24     -9.96      0.00
   17   21   24     18.55      0.00
   19   21   24     17.16      0.00
   21   21   24      4.95      0.00
   23   21   24     22.40      0.00
    0   22   24      5.78      0.00
    2   22   24      3.17      0.00
    4   22   24     11.98      0.00
    6   22   24      6.18      0.00
    8   22   24     -4.96      0.00
   10   22   24    -11.05      0.00
   12   22   24      7.09      0.00
   14   22   24     -0.55      0.00
   16   22   24     -3.93      0.00
   18   22   24     -9.09      0.00
   20   22   24     13.95      0.00
   22   22   24     21.17      0.00
    1   23   24    -11.36      0.00
    3   23   24      2.68      0.00
    5   23   24      7.23      0.00
    7   23   24     11.73      0.00
    9   23   24     -6.05      0.00
   11   23   24      5.83      0.00
   13   23   24      3.35      0.00
   15   23   24     -0.25      0.00
   17   23   24     -2.54      0.00
   19   23   24    -11.99      0.00
   21   23   24     -2.19      0.00
   23   23   24      5.53      0.00
    0   24   24     -0.99      0.00
    2   24   24      2.77      0.00
    4   24   24     12.31      0.00
    6   24   24     -6.18      0.00
    8   24   24      7.37      0.00
   10   24   24     18.95      0.00
   12   24   24     14.85      0.00
   14   24   24    -17.68      0.00
   16   24   24    -13.93      0.00
   18   24   24     -6.48      0.00
   20   24   24     14.83      0.00
   22   24   24     13.06      0.00
   24   24   24     17.38      0.00
    1    0   25    -15.29      0.00
    3    0   25     -0.60      0.00
    5    0   25    -14.29      0.00
    7    0   25     -5.91      0.00
    9    0   25    -12.90      0.00
   11    0   25      7.75      0.00
   13    0   25     19.85      0.00
   15    0   25      1.42      0.00
   17    0   25     18.31      0.00
   19    0   25      6.49      0.00
   21    0   25      1.88      0.00
   23    0   25     10.56      0.00
    0    1   25      0.52      0.00
    2    1   25      1.85      0.00
    4    1   25     -9.79      0.00
    6    1   25      3.27      0.00
    8    1   25      5.07      0.00
   10    1   25     -0.35      0.00
   12    1   25     10.31      0.00
   14    1   25     -0.67      0.00
   16    1   25    -17.05      0.00
   18    1   25     -9.80      0.00
   20    1   25    -11.39      0.00
   22    1   25      4.56      0.00
   24    1   25      2.34      0.00
    1    2   25     11.40      0.00
    3    2   25     -5.45      0.00
    5    2   25      3.06      0.00
    7    2   25      2.84      0.00
    9    2   25     -2.08      0.00
   11    2   25      8.41      0.00
   13    2   25     -7.53      0.00
   15    2   25    -14.19      0.00
   17    2   25     -6.93      0.00
   19    2   25    -10.00      0.00
   21    2   25    -24.36      0.00
   23    2   25    -18.01      0.00
    0    3   25     -9.98      0.00
    2    3   25     -5.81      0.00
    4    3   25      1.54      0.00
    6    3   25     -5.96      0.00
    8    3   25     -2.42      0.00
   10    3   25     14.82      0.00
   12    3   25      8.41      0.00
   14    3   25     -6.57      0.00
   16    3   25     12.33      0.00
   18    3   25      9.67      0.00
   20    3   25     -3.39      0.00
   22    3   25      9.25      0.00
   24    3   25      8.86      0.00
    1    4   25      1.19      0.00
    3    4   25     -4.00      0.00
    5    4   25     -1.65      0.00
    7    4   25     -5.98      0.00
    9    4   25     -5.45      0.00
   11    4   25      3.92      0.00
   13    4   25     -2.38      0.00
   15    4   25    -10.21      0.00
   17    4   25      1.30      0.00
   19    4   25      3.06      0.00
   21    4   25      7.60      0.00
   23    4   25     -2.66      0.00
    0    5   25     -7.20      0.00
    2    5   25      6.92      0.00
    4    5   25      7.74      0.00
    6    5   25    -12.19      0.00
    8    5   25     20.62      0.00
   10    5   25      0.63      0.00
   12    5   25     -2.60      0.00
   14    5   25    -10.70      0.00
   16    5   25     -3.62      0.00
   18    5   25      5.84      0.00
   20    5   25      3.56      0.00
   22    5   25     -9.46      0.00
   24    5   25    -10.11      0.00
    1    6   25     -9.47      0.00
    3    6   25     13.72      0.00
    5    6   25     22.09      0.00
    7    6   25     32.78      0.00
    9    6   25     18.71      0.00
   11    6   25     -5.36      0.00
   13    6   25      7.84      0.00
   15    6   25    -15.16      0.00
   17    6   25    -16.00      0.00
   19    6   25     -2.47      0.00
   21    6   25     14.73      0.00
   23    6   25      2.61      0.00
    0    7   25     19.62      0.00
    2    7   25      8.39      0.00
    4    7   25      7.78      0.00
    6    7   25     -7.94      0.00
    8    7   25      3.03      0.00
   10    7   25     -5.19      0.00
   12    7   25      4.00      0.00
   14    7   25      0.23      0.00
   16    7   25     -6.01      0.00
   18    7   25      4.10      0.00
   20    7   25     17.19      0.00
   22    7   25      4.62      0.00
   24    7   25      1.27      0.00
    1    8   25    -13.08      0.00
    3    8   25     -9.56      0.00
    5    8   25     19.53      0.00
    7    8   25      8.32      0.00
    9    8   25      2.15      0.00
   11    8   25     -2.67      0.00
   13    8   25     -2.49      0.00
   15    8   25      0.48      0.00
   17    8   25      5.59      0.00
   19    8   25      5.48      0.00
   21    8   25    -10.42      0.00
   23    8   25    -15.96      0.00
    0    9   25     10.28      0.00
    2    9   25     -4.01      0.00
    4    9   25      8.11      0.00
    6    9   25      7.26      0.00
    8    9   25     -0.17      0.00
   10    9   25     -0.13      0.00
   12    9   25     -0.84      0.00
   14    9   25     -8.76      0.00
   16    9   25     10.72      0.00
   18    9   25     13.80      0.00
   20    9   25     19.52      0.00
   22    9   25     17.87      0.00
   24    9   25     17.49      0.00
    1   10   25     13.49      0.00
    3   10   25      5.22      0.00
    5   10   25     17.98      0.00
    7   10   25      5.35      0.00
    9   10   25     -1.61      0.00
   11   10   25      2.22      0.00
   13   10   25      0.70      0.00
   15   10   25      1.78      0.00
   17   10   25      4.67      0.00
   19   10   25      0.90      0.00
   21   10   25      9.34      0.00
   23   10   25      7.53      0.00
    0   11   25     -4.28      0.00
    2   11   25      6.78      0.00
    4   11   25      0.69      0.00
    6   11   25      1.31      0.00
    8   11   25     11.70      0.00
   10   11   25     -2.37      0.00
   12   11   25     10.55      0.00
   14   11   25     11.16      0.00
   16   11   25      0.65      0.00
   18   11   25      6.60      0.00
   20   11   25     -4.48      0.00
   22   11   25    -11.47      0.00
   24   11   25      7.13      0.00
    1   12   25      6.65      0.00
    3   12   25     -4.31      0.00
    5   12   25     -9.62      0.00
    7   12   25     -3.51      0.00
    9   12   25    -11.70      0.00
   11   12   25     -6.49      0.00
   13   12   25     15.13      0.00
   15   12   25      7.36      0.00
   17   12   25     -4.45      0.00
   19   12   25     -0.21      0.00
   21   12   25     -4.59      0.00
   23   12   25     -2.46      0.00
    0   13   25      0.84      0.00
    2   13   25      2.23      0.00
    4   13   25     -6.01      0.00
    6   13   25     -3.84      0.00
    8   13   25     -8.16      0.00
   10   13   25     -0.87      0.00
   12   13   25      1.03      0.00
   14   13   25     15.52      0.00
   16   13   25      8.90      0.00
   18   13   25     10.15      0.00
   20   13   25     -0.74      0.00
   22   13   25      0.70      0.00
   24   13   25      6.71      0.00
    1   14   25     11.31      0.00
    3   14   25      1.15      0.00
    5   14   25      0.54      0.00
    7   14   25     -4.25      0.00
    9   14   25     -8.80      0.00
   11   14   25     -7.94      0.00
   13   14   25     -3.31      0.00
   15   14   25     -1.58      0.00
   17   14   25     -2.83      0.00
   19   14   25     -6.83      0.00
   21   14   25    -15.75      0.00
   23   14   25    -18.43      0.00
    0   15   25    -10.54      0.00
    2   15   25      0.94      0.00
    4   15   25     -9.21      0.00
    6   15   25    -14.00      0.00
    8   15   25    -12.07      0.00
   10   15   25     -2.57      0.00
   12   15   25     -1.00      0.00
   14   15   25      0.46      0.00
   16   15   25     -0.47      0.00
   18   15   25     -7.33      0.00
   20   15   25     -6.85      0.00
   22   15   25     14.77      0.00
   24   15   25      3.96      0.00
    1   16   25      2.52      0.00
    3   16   25     -0.91      0.00
    5   16   25      2.69      0.00
    7   16   25     -0.99      0.00
    9   16   25     -5.84      0.00
   11   16   25     -7.66      0.00
   13   16   25     -3.21      0.00
   15   16   25      4.83      0.00
   17   16   25      9.43      0.00
   19   16   25     -4.88      0.00
   21   16   25      4.62      0.00
   23   16   25     -4.14      0.00
    0   17   25     -7.65      0.00
    2   17   25      6.83      0.00
    4   17   25      5.35      0.00
    6   17   25     14.78      0.00
    8   17   25     22.73      0.00
   10   17   25     -8.16      0.00
   12   17   25      1.11      0.00
   14   17   25      9.65      0.00
   16   17   25    -17.37      0.00
   18   17   25     -3.67      0.00
   20   17   25     -4.32      0.00
   22   17   25      2.79      0.00
   24   17   25      0.08      0.00
    1   18   25     -0.19      0.00
    3   18   25     14.66      0.00
    5   18   25      3.46      0.00
    7   18   25     -5.34      0.00
    9   18   25     -1.68      0.00
   11   18   25     -5.39      0.00
   13   18   25      1.23      0.00
   15   18   25    -12.64      0.00
   17   18   25     -4.98      0.00
   19   18   25      9.52      0.00
   21   18   25     -2.98      0.00
   23   18   25     -5.85      0.00
    0   19   25     -5.69      0.00
    2   19   25     -2.15      0.00
    4   19   25      4.68      0.00
    6   19   25    -10.83      0.00
    8   19   25      0.97      0.00
   10   19   25      8.75      0.00
   12   19   25     -2.71      0.00
   14   19   25     -7.35      0.00
   16   19   25    -11.76      0.00
   18   19   25      1.32      0.00
   20   19   25     -1.29      0.00
   22   19   25      5.34      0.00
   24   19   25     -4.09      0.00
    1   20   25      5.56      0.00
    3   20   25     18.23      0.00
    5   20   25      4.59      0.00
    7   20   25    -12.11      0.00
    9   20   25     11.43      0.00
   11   20   25      8.08      0.00
   13   20   25      4.04      0.00
   15   20   25     -2.55      0.00
   17   20   25      4.99      0.00
   19   20   25      8.44      0.00
   21   20   25     19.86      0.00
   23   20   25      5.74      0.00
    0   21   25     -2.51      0.00
    2   21   25      8.65      0.00
    4   21   25     12.93      0.00
    6   21   25    -14.68      0.00
    8   21   25     -2.74      0.00
   10   21   25     -4.98      0.00
   12   21   25    -14.17      0.00
   14   21   25     -0.12      0.00
   16   21   25     10.75      0.00
   18   21   25      2.32      0.00
   20   21   25     -2.66      0.00
   22   21   25     10.49      0.00
   24   21   25     -0.80      0.00
    1   22   25      0.84      0.00
    3   22   25      1.19      0.00
    5   22   25      7.30      0.00
    7   22   25    -12.07      0.00
    9   22   25     -4.38      0.00
   11   22   25     -6.45      0.00
   13   22   25     -4.00      0.00
   15   22   25     -3.39      0.00
   17   22   25      1.81      0.00
   19   22   25      3.13      0.00
   21   22   25      5.82      0.00
   23   22   25      1.02      0.00
    0   23   25     -9.04      0.00
    2   23   25     -2.14      0.00
    4   23   25      4.98      0.00
    6   23   25     -1.58      0.00
    8   23   25     19.29      0.00
   10   23   25     -0.17      0.00
   12   23   25    -10.13      0.00
   14   23   25      6.89      0.00
   16   23   25     -8.76      0.00
   18   23   25     -1.57      0.00
   20   23   25     -5.84      0.00
   22   23   25    -12.81      0.00
   24   23   25     -5.63      0.00
    1   24   25     -3.54      0.00
    3   24   25     -1.54      0.00
    5   24   25    -13.58      0.00
    7   24   25     -3.07      0.00
    9   24   25     22.51      0.00
   11   24   25      8.05      0.00
   13   24   25     15.97      0.00
   15   24   25      9.96      0.00
   17   24   25      5.38      0.00
   19   24   25     23.13      0.00
   21   24   25      4.71      0.00
   23   24   25      5.34      0.00
    0   25   25     -5.22      0.00
    2   25   25     -9.71      0.00
    4   25   25     -3.60      0.00
    6   25   25     -5.11      0.00
    8   25   25     -0.77      0.00
   10   25   25      7.31      0.00
   12   25   25      7.02      0.00
   14   25   25     -5.57      0.00
   16   25   25    -20.49      0.00
   18   25   25      8.21      0.00
   20   25   25     13.64      0.00
   22   25   25      2.94      0.00
   24   25   25      3.66      0.00
    0    0   26     41.12      0.00
    2    0   26     -3.38      0.00
    4    0   26    -19.02      0.00
    6    0   26     -3.30      0.00
    8    0   26    -15.45      0.00
   10    0   26     14.72      0.00
   12    0   26     26.52      0.00
   14    0   26      4.46      0.00
   16    0   26      8.19      0.00
   18    0   26      3.40      0.00
   20    0   26     26.24      0.00
   22    0   26     15.66      0.00
   24    0   26     -1.18      0.00
    1    1   26     27.76      0.00
    3    1   26     15.83      0.00
    5    1   26      7.89      0.00
    7    1   26     -2.56      0.00
    9    1   26    -13.31      0.00
   11    1   26     -7.25      0.00
   13    1   26    -11.78      0.00
   15    1   26     -2.86      0.00
   17    1   26    -14.74      0.00
   19    1   26    -41.05      0.00
   21    1   26     -0.21      0.00
   23    1   26      8.06      0.00
   25    1   26      0.17      0.00
    0    2   26    -11.47      0.00
    2    2   26     -9.20      0.00
    4    2   26    -23.87      0.00
    6    2   26    -20.93      0.00
    8    2   26    -21.52      0.00
   10    2   26    -12.75      0.00
   12    2   26      3.59      0.00
   14    2   26     -3.61      0.00
   16    2   26      7.60      0.00
   18    2   26     -5.64      0.00
   20    2   26     -2.81      0.00
   22    2   26     12.93      0.00
   24    2   26     -6.17      0.00
    1    3   26      0.64      0.00
    3    3   26     11.39      0.00
    5    3   26     -2.65      0.00
    7    3   26      3.13      0.00
    9    3   26      3.89      0.00
   11    3   26     -3.65      0.00
   13    3   26     -2.61      0.00
   15    3   26     -0.05      0.00
   17    3   26      7.60      0.00
   19    3   26     -4.65      0.00
   21    3   26     -2.00      0.00
   23    3   26     -8.78      0.00
   25    3   26      6.84      0.00
    0    4   26    -27.29      0.00
    2    4   26     -9.19      0.00
    4    4   26      9.34      0.00
    6    4   26     10.12      0.00
    8    4   26     12.56      0.00
   10    4   26      1.25      0.00
   12    4   26     -9.79      0.00
   14    4   26     -2.98      0.00
   16    4   26      7.08      0.00
   18    4   26      5.32      0.00
   20    4   26     12.40      0.00
   22    4   26     17.33      0.00
   24    4   26      7.63      0.00
    1    5   26     -3.70      0.00
    3    5   26     11.08      0.00
    5    5   26     15.60      0.00
    7    5   26     -4.41      0.00
    9    5   26      5.65      0.00
   11    5   26     -0.29      0.00
   13    5   26      0.55      0.00
   15    5   26      3.49      0.00
   17    5   26      9.29      0.00
   19    5   26      1.90      0.00
   21    5   26      8.69      0.00
   23    5   26      2.76      0.00
   25    5   26     -4.20      0.00
    0    6   26    -16.29      0.00
    2    6   26    -17.83      0.00
    4    6   26     19.03      0.00
    6    6   26     21.10      0.00
    8    6   26     11.12      0.00
   10    6   26      3.19      0.00
   12    6   26     -5.20      0.00
   14    6   26    -14.12      0.00
   16    6   26     -8.10      0.00
   18    6   26      2.99      0.00
   20    6   26     14.80      0.00
   22    6   26      2.86      0.00
   24    6   26      0.82      0.00
    1    7   26    -10.53      0.00
    3    7   26      4.67      0.00
    5    7   26      7.00      0.00
    7    7   26     14.60      0.00
    9    7   26     24.94      0.00
   11    7   26     10.48      0.00
   13    7   26      4.37      0.00
   15    7   26      2.77      0.00
   17    7   26     13.27      0.00
   19    7   26     -7.07      0.00
   21    7   26     -1.92      0.00
   23    7   26      8.27      0.00
   25    7   26      4.35      0.00
    0    8   26     -6.27      0.00
    2    8   26     -8.66      0.00
    4    8   26      4.63      0.00
    6    8   26     -0.18      0.00
    8    8   26      2.18      0.00
   10    8   26     -4.18      0.00
   12    8   26     -1.51      0.00
   14    8   26    -13.97      0.00
   16    8   26      7.83      0.00
   18    8   26      2.59      0.00
   20    8   26     -9.95      0.00
   22    8   26     15.30      0.00
   24    8   26      9.15      0.00
    1    9   26    -12.84      0.00
    3    9   26     -4.43      0.00
    5    9   26      1.47      0.00
    7    9   26      1.65      0.00
    9    9   26     14.55      0.00
   11    9   26      4.67      0.00
   13    9   26     -7.13      0.00
   15    9   26     -1.87      0.00
   17    9   26     24.54      0.00
   19    9   26      3.66      0.00
   21    9   26     -3.89      0.00
   23    9   26      9.83      0.00
   25    9   26     12.59      0.00
    0   10   26      5.19      0.00
    2   10   26    -11.80      0.00
    4   10   26    -10.42      0.00
    6   10   26      0.03      0.00
    8   10   26      5.93      0.00
   10   10   26      4.68      0.00
   12   10   26      2.17      0.00
   14   10   26      2.45      0.00
   16   10   26      3.92      0.00
   18   10   26      2.53      0.00
   20   10   26     -6.57      0.00
   22   10   26      2.96      0.00
   24   10   26     24.73      0.00
    1   11   26     -4.82      0.00
    3   11   26    -13.20      0.00
    5   11   26      5.49      0.00
    7   11   26     11.50      0.00
    9   11   26      4.72      0.00
   11   11   26    -16.16      0.00
   13   11   26    -15.65      0.00
   15   11   26      0.99      0.00
   17   11   26     -0.40      0.00
   19   11   26      2.54      0.00
   21   11   26     -6.82      0.00
   23   11   26      8.91      0.00
   25   11   26      6.36      0.00
    0   12   26     21.60      0.00
    2   12   26     10.22      0.00
    4   12   26    -18.73      0.00
    6   12   26     -9.45      0.00
    8   12   26      2.92      0.00
   10   12   26     12.08      0.00
   12   12   26     16.20      0.00
   14   12   26     12.21      0.00
   16   12   26    -10.62      0.00
   18   12   26     -5.83      0.00
   20   12   26      5.14      0.00
   22   12   26      1.32      0.00
   24   12   26      6.75      0.00
    1   13   26     18.18      0.00
    3   13   26     24.19      0.00
    5   13   26     -1.52      0.00
    7   13   26     14.45      0.00
    9   13   26      1.75      0.00
   11   13   26     -8.41      0.00
   13   13   26     -5.71      0.00
   15   13   26      7.73      0.00
   17   13   26      9.34      0.00
   19   13   26      8.30      0.00
   21   13   26     -3.07      0.00
   23   13   26      6.41      0.00
   25   13   26     -0.65      0.00
    0   14   26     -8.37      0.00
    2   14   26     -1.82      0.00
    4   14   26    -24.47      0.00
    6   14   26    -26.34      0.00
    8   14   26    -14.55      0.00
   10   14   26     16.33      0.00
   12   14   26      2.97      0.00
   14   14   26    -18.00      0.00
   16   14   26      0.04      0.00
   18   14   26     -5.10      0.00
   20   14   26      2.79      0.00
   22   14   26     11.44      0.00
   24   14   26     -5.06      0.00
    1   15   26      9.34      0.00
    3   15   26      2.70      0.00
    5   15   26     -4.19      0.00
    7   15   26    -12.26      0.00
    9   15   26    -13.24      0.00
   11   15   26      3.68      0.00
   13   15   26     -0.96      0.00
   15   15   26      1.64      0.00
   17   15   26     -9.17      0.00
   19   15   26    -12.64      0.00
   21   15   26      1.82      0.00
   23   15   26      2.46      0.00
   25   15   26      0.32      0.00
    0   16   26      1.19      0.00
    2   16   26     -0.04      0.00
    4   16   26     -3.94      0.00
    6   16   26     13.15      0.00
    8   16   26     -2.35      0.00
   10   16   26      3.30      0.00
   12   16   26      3.56      0.00
   14   16   26     -5.60      0.00
   16   16   26     -5.97      0.00
   18   16   26     -6.28      0.00
   20   16   26     -8.82      0.00
   22   16   26    -20.98      0.00
   24   16   26      3.64      0.00
    1   17   26      4.38      0.00
    3   17   26     -0.05      0.00
    5   17   26      7.77      0.00
    7   17   26     -4.99      0.00
    9   17   26     -9.15      0.00
   11   17   26      9.87      0.00
   13   17   26     15.42      0.00
   15   17   26      9.16      0.00
   17   17   26      6.61      0.00
   19   17   26      0.93      0.00
   21   17   26      1.61      0.00
   23   17   26     -2.41      0.00
   25   17   26      6.10      0.00
    0   18   26      3.30      0.00
    2   18   26     -0.29      0.00
    4   18   26     10.64      0.00
    6   18   26     23.04      0.00
    8   18   26      1.83      0.00
   10   18   26     -7.97      0.00
   12   18   26     -3.50      0.00
   14   18   26     -7.27      0.00
   16   18   26     -9.65      0.00
   18   18   26    -11.79      0.00
   20   18   26    -19.11      0.00
   22   18   26     -7.91      0.00
   24   18   26     -2.79      0.00
    1   19   26      2.63      0.00
    3   19   26      7.75      0.00
    5   19   26     -1.02      0.00
    7   19   26     -1.99      0.00
    9   19   26     10.43      0.00
   11   19   26     -1.75      0.00
   13   19   26      5.12      0.00
   15   19   26     -7.31      0.00
   17   19   26     -0.91      0.00
   19   19   26     -6.53      0.00
   21   19   26      2.83      0.00
   23   19   26     -1.30      0.00
   25   19   26      5.78      0.00
    0   20   26     14.63      0.00
    2   20   26     10.78      0.00
    4   20   26     30.62      0.00
    6   20   26      6.60      0.00
    8   20   26     -9.10      0.00
   10   20   26      6.40      0.00
   12   20   26      7.57      0.00
   14   20   26     -6.91      0.00
   16   20   26     -6.01      0.00
   18   20   26      0.07      0.00
   20   20   26     22.71      0.00
   22   20   26     23.06      0.00
   24   20   26     -2.02      0.00
    1   21   26     12.83      0.00
    3   21   26      9.25      0.00
    5   21   26      2.88      0.00
    7   21   26     -6.66      0.00
    9   21   26     13.48      0.00
   11   21   26      2.43      0.00
   13   21   26      4.04      0.00
   15   21   26     -0.16      0.00
   17   21   26     -2.31      0.00
   19   21   26      2.13      0.00
   21   21   26     19.34      0.00
   23   21   26      6.18      0.00
   25   21   26      2.12      0.00
    0   22   26     -1.91      0.00
    2   22   26      9.99      0.00
    4   22   26     20.89      0.00
    6   22   26      5.19      0.00
    8   22   26      4.60      0.00
   10   22   26     -0.68      0.00
   12   22   26     -2.42      0.00
   14   22   26    -12.40      0.00
   16   22   26    -14.65      0.00
   18   22   26     -6.74      0.00
   20   22   26     13.76      0.00
   22   22   26      0.34      0.00
   24   22   26    -16.12      0.00
    1   23   26    -13.06      0.00
    3   23   26     -1.83      0.00
    5   23   26      2.31      0.00
    7   23   26     -0.52      0.00
    9   23   26      3.16      0.00
   11   23   26     12.14      0.00
   13   23   26      3.37      0.00
   15   23   26     -0.44      0.00
   17   23   26      1.04      0.00
   19   23   26     -2.79      0.00
   21   23   26      8.82      0.00
   23   23   26     12.11      0.00
   25   23   26     -0.07      0.00
    0   24   26     14.37      0.00
    2   24   26      5.92      0.00
    4   24   26     -3.06      0.00
    6   24   26     -8.84      0.00
    8   24   26     -2.10      0.00
   10   24   26     16.62      0.00
   12   24   26      3.71      0.00
   14   24   26    -12.17      0.00
   16   24   26      6.60      0.00
   18   24   26      0.58      0.00
   20   24   26     -5.33      0.00
   22   24   26     16.98      0.00
   24   24   26     18.39      0.00
    1   25   26     -8.20      0.00
    3   25   26      7.88      0.00
    5   25   26     -2.96      0.00
    7   25   26      0.04      0.00
    9   25   26      5.91      0.00
   11   25   26     -6.61      0.00
   13   25   26      2.16      0.00
   15   25   26     10.69      0.00
   17   25   26      0.83      0.00
   19   25   26     -6.98      0.00
   21   25   26      0.55      0.00
   23   25   26     -1.17      0.00
   25   25   26    -21.88      0.00
    0   26   26      1.03      0.00
    2   26   26     -3.84      0.00
    4   26   26     -8.32      0.00
    6   26   26     -3.67      0.00
    8   26   26     10.52      0.00
   10   26   26     12.64      0.00
   12   26   26    -19.81      0.00
   14   26   26    -12.62      0.00
   16   26   26      8.50      0.00
   18   26   26     -0.38      0.00
   20   26   26    -23.39      0.00
   22   26   26     -8.44      0.00
   24   26   26      8.25      0.00
   26   26   26    -29.83      0.00
    1    0   27     -4.90      0.00
    3    0   27     16.25      0.00
    5    0   27     -0.77      0.00
    7    0   27     -6.17      0.00
    9    0   27    -11.52      0.00
   11    0   27    -16.57      0.00
   13    0   27     -6.22      0.00
   15    0   27     -6.68      0.00
   17    0   27     -1.06      0.00
   19    0   27    -12.41      0.00
   21    0   27      3.57      0.00
   23    0   27     17.38      0.00
   25    0   27     -9.04      0.00
    0    1   27     -4.63      0.00
    2    1   27      9.81      0.00
    4    1   27     10.29      0.00
    6    1   27      4.34      0.00
    8    1   27     -7.42      0.00
   10    1   27     -0.63      0.00
   12    1   27    -11.88      0.00
   14    1   27    -10.03      0.00
   16    1   27     -8.41      0.00
   18    1   27      0.70      0.00
   20    1   27      3.42      0.00
   22    1   27     -7.73      0.00
   24    1   27      6.98      0.00
   26    1   27     -3.63      0.00
    1    2   27     -3.03      0.00
    3    2   27      0.40      0.00
    5    2   27      7.21      0.00
    7    2   27     13.03      0.00
    9    2   27     11.77      0.00
   11    2   27     -5.26      0.00
   13    2   27     -2.30      0.00
   15    2   27     -2.25      0.00
   17    2   27     -2.48      0.00
   19    2   27      1.35      0.00
   21    2   27      3.13      0.00
   23    2   27      0.58      0.00
   25    2   27      3.62      0.00
    0    3   27     -0.57      0.00
    2    3   27     -2.54      0.00
    4    3   27     -5.96      0.00
    6    3   27     -8.00      0.00
    8    3   27      1.13      0.00
   10    3   27     11.68      0.00
   12    3   27     -0.27      0.00
   14    3   27      5.57      0.00
   16    3   27      7.37      0.00
   18    3   27      2.44      0.00
   20    3   27     -2.71      0.00
   22    3   27     -6.31      0.00
   24    3   27     -7.59      0.00
   26    3   27     -0.78      0.00
    1    4   27      0.93      0.00
    3    4   27     -4.97      0.00
    5    4   27     -9.04      0.00
    7    4   27    -12.48      0.00
    9    4   27      3.90      0.00
   11    4   27     -7.12      0.00
   13    4   27     -5.82      0.00
   15    4   27     -2.42      0.00
   17    4   27      1.81      0.00
   19    4   27      5.90      0.00
   21    4   27     -0.07      0.00
   23    4   27    -11.11      0.00
   25    4   27     -1.60      0.00
    0    5   27     -9.36      0.00
    2    5   27    -15.24      0.00
    4    5   27     -4.36      0.00
    6    5   27     -6.40      0.00
    8    5   27      5.90      0.00
   10    5   27     17.60      0.00
   12    5   27      2.16      0.00
   14    5   27      2.94      0.00
   16    5   27     -4.95      0.00
   18    5   27     -1.23      0.00
   20    5   27      6.83      0.00
   22    5   27    -18.13      0.00
   24    5   27     -0.66      0.00
   26    5   27      3.44      0.00
    1    6   27     11.24      0.00
    3    6   27     10.36      0.00
    5    6   27      9.11      0.00
    7    6   27     -1.55      0.00
    9    6   27      7.06      0.00
   11    6   27     -1.20      0.00
   13    6   27      3.70      0.00
   15    6   27      4.79      0.00
   17    6   27      3.07      0.00
   19    6   27     -5.67      0.00
   21    6   27    -21.55      0.00
   23    6   27    -11.69      0.00
   25    6   27      2.90      0.00
    0    7   27     -0.18      0.00
    2    7   27    -17.66      0.00
    4    7   27     -0.53      0.00
    6    7   27     -1.07      0.00
    8    7   27     -7.11      0.00
   10    7   27      5.90      0.00
   12    7   27      0.91      0.00
   14    7   27     -0.25      0.00
   16    7   27     -5.20      0.00
   18    7   27    -14.55      0.00
   20    7   27     -6.70      0.00
   22    7   27    -13.92      0.00
   24    7   27      2.05      0.00
   26    7   27      5.25      0.00
    1    8   27      4.12      0.00
    3    8   27     -3.58      0.00
    5    8   27     -3.36      0.00
    7    8   27    -15.66      0.00
    9    8   27     -0.76      0.00
   11    8   27      4.38      0.00
   13    8   27     16.55      0.00
   15    8   27     12.82      0.00
   17    8   27     13.40      0.00
   19    8   27      9.36      0.00
   21    8   27     -6.79      0.00
   23    8   27    -10.82      0.00
   25    8   27     16.09      0.00
    0    9   27     -2.90      0.00
    2    9   27    -13.17      0.00
    4    9   27      6.31      0.00
    6    9   27      9.83      0.00
    8    9   27     16.86      0.00
   10    9   27      9.65      0.00
   12    9   27      0.56      0.00
   14    9   27      2.14      0.00
   16    9   27      9.25      0.00
   18    9   27    -10.38      0.00
   20    9   27     -9.13      0.00
   22    9   27     -0.82      0.00
   24    9   27     12.70      0.00
   26    9   27      9.54      0.00
    1   10   27     -2.15      0.00
    3   10   27     -6.69      0.00
    5   10   27     -4.84      0.00
    7   10   27     -7.03      0.00
    9   10   27     -0.77      0.00
   11   10   27     -6.34      0.00
   13   10   27     -4.35      0.00
   15   10   27    -17.05      0.00
   17   10   27     -3.96      0.00
   19   10   27     -4.19      0.00
   21   10   27     -2.67      0.00
   23   10   27     -0.55      0.00
   25   10   27      2.93      0.00
    0   11   27      2.85      0.00
    2   11   27      1.86      0.00
    4   11   27      8.87      0.00
    6   11   27     10.86      0.00
    8   11   27      7.51      0.00
   10   11   27      4.14      0.00
   12   11   27     12.47      0.00
   14   11   27      2.42      0.00
   16   11   27      1.61      0.00
   18   11   27     -0.41      0.00
   20   11   27     -5.65      0.00
   22   11   27     -9.61      0.00
   24   11   27     11.78      0.00
   26   11   27     -2.18      0.00
    1   12   27     -6.79      0.00
    3   12   27     -8.68      0.00
    5   12   27     -1.14      0.00
    7   12   27      8.29      0.00
    9   12   27      8.36      0.00
   11   12   27      6.12      0.00
   13   12   27      2.07      0.00
   15   12   27     -2.48      0.00
   17   12   27      9.36      0.00
   19   12   27     -3.17      0.00
   21   12   27      4.56      0.00
   23   12   27     14.33      0.00
   25   12   27      0.50      0.00
    0   13   27     15.32      0.00
    2   13   27      5.52      0.00
    4   13   27      1.56      0.00
    6   13   27     -1.34      0.00
    8   13   27     -8.71      0.00
   10   13   27      5.77      0.00
   12   13   27     -4.82      0.00
   14   13   27    -12.51      0.00
   16   13   27     -2.58      0.00
   18   13   27     -7.46      0.00
   20   13   27      0.49      0.00
   22   13   27     11.89      0.00
   24   13   27    -12.31      0.00
   26   13   27     -4.47      0.00
    1   14   27      3.38      0.00
    3   14   27      7.22      0.00
    5   14   27      3.17      0.00
    7   14   27     -3.91      0.00
    9   14   27     -4.75      0.00
   11   14   27     -7.99      0.00
   13   14   27      6.01      0.00
   15   14   27      0.66      0.00
   17   14   27      8.38      0.00
   19   14   27     -3.09      0.00
   21   14   27      7.15      0.00
   23   14   27     11.61      0.00
   25   14   27     -5.16      0.00
    0   15   27      2.33      0.00
    2   15   27      4.42      0.00
    4   15   27     -4.48      0.00
    6   15   27     -3.00      0.00
    8   15   27     10.59      0.00
   10   15   27      7.50      0.00
   12   15   27     -6.22      0.00
   14   15   27     -8.25      0.00
   16   15   27     -2.96      0.00
   18   15   27      4.21      0.00
   20   15   27     -1.16      0.00
   22   15   27     -1.59      0.00
   24   15   27    -15.70      0.00
   26   15   27     -8.58      0.00
    1   16   27      1.34      0.00
    3   16   27      6.06      0.00
    5   16   27     -4.15      0.00
    7   16   27     -7.74      0.00
    9   16   27     -2.88      0.00
   11   16   27     -8.14      0.00
   13   16   27      7.64      0.00
   15   16   27      9.73      0.00
   17   16   27     14.38      0.00
   19   16   27      1.83      0.00
   21   16   27     -8.33      0.00
   23   16   27      2.22      0.00
   25   16   27    -14.38      0.00
    0   17   27    -15.43      0.00
    2   17   27     -6.92      0.00
    4   17   27    -14.30      0.00
    6   17   27     -0.76      0.00
    8   17   27      7.02      0.00
   10   17   27     -6.96      0.00
   12   17   27    -11.58      0.00
   14   17   27     -0.58      0.00
   16   17   27     -5.80      0.00
   18   17   27      1.98      0.00
   20   17   27     -1.28      0.00
   22   17   27     -1.30      0.00
   24   17   27     -4.22      0.00
   26   17   27     -2.28      0.00
    1   18   27     13.04      0.00
    3   18   27      8.42      0.00
    5   18   27      4.91      0.00
    7   18   27      9.59      0.00
    9   18   27      7.19      0.00
   11   18   27      3.84      0.00
   13   18   27      0.36      0.00
   15   18   27      7.83      0.00
   17   18   27      9.04      0.00
   19   18   27     -3.37      0.00
   21   18   27     -9.33      0.00
   23   18   27      2.92      0.00
   25   18   27     -2.01      0.00
    0   19   27     11.77      0.00
    2   19   27      6.50      0.00
    4   19   27      6.92      0.00
    6   19   27     -0.03      0.00
    8   19   27     -6.70      0.00
   10   19   27     10.25      0.00
   12   19   27      4.99      0.00
   14   19   27      6.63      0.00
   16   19   27     14.13      0.00
   18   19   27     -2.14      0.00
   20   19   27    -15.85      0.00
   22   19   27      1.35      0.00
   24   19   27     -7.36      0.00
   26   19   27      5.03      0.00
    1   20   27      1.91      0.00
    3   20   27      1.60      0.00
    5   20   27     -3.69      0.00
    7   20   27      0.91      0.00
    9   20   27     -1.41      0.00
   11   20   27    -22.44      0.00
   13   20   27      0.21      0.00
   15   20   27     -4.08      0.00
   17   20   27    -13.30      0.00
   19   20   27    -13.73      0.00
   21   20   27      0.21      0.00
   23   20   27     17.52      0.00
   25   20   27      4.25      0.00
    0   21   27     -7.93      0.00
    2   21   27     -3.99      0.00
    4   21   27      4.42      0.00
    6   21   27    -17.58      0.00
    8   21   27     -4.78      0.00
   10   21   27      0.52      0.00
   12   21   27      8.51      0.00
   14   21   27     12.10      0.00
   16   21   27     -5.56      0.00
   18   21   27      0.55      0.00
   20   21   27    -14.31      0.00
   22   21   27    -14.76      0.00
   24   21   27      7.76      0.00
   26   21   27      1.34      0.00
    1   22   27     16.78      0.00
    3   22   27      9.03      0.00
    5   22   27     16.16      0.00
    7   22   27     -4.88      0.00
    9   22   27      2.02      0.00
   11   22   27     -1.00      0.00
   13   22   27      0.41      0.00
   15   22   27    -18.30      0.00
   17   22   27     -0.74      0.00
   19   22   27     13.31      0.00
   21   22   27     -2.77      0.00
   23   22   27     19.61      0.00
   25   22   27      1.19      0.00
    0   23   27      1.27      0.00
    2   23   27    -10.81      0.00
    4   23   27      1.64      0.00
    6   23   27    -11.65      0.00
    8   23   27    -16.62      0.00
   10   23   27    -11.64      0.00
   12   23   27      4.78      0.00
   14   23   27      9.11      0.00
   16   23   27     -3.24      0.00
   18   23   27     -3.05      0.00
   20   23   27     -7.60      0.00
   22   23   27     -6.59      0.00
   24   23   27      0.76      0.00
   26   23   27      0.72      0.00
    1   24   27      2.92      0.00
    3   24   27    -16.05      0.00
    5   24   27      5.74      0.00
    7   24   27      5.93      0.00
    9   24   27      9.87      0.00
   11   24   27      8.91      0.00
   13   24   27     -4.77      0.00
   15   24   27    -11.23      0.00
   17   24   27      2.18      0.00
   19   24   27      3.01      0.00
   21   24   27      0.40      0.00
   23   24   27     -0.09      0.00
   25   24   27    -16.34      0.00
    0   25   27      8.94      0.00
    2   25   27     -7.43      0.00
    4   25   27      1.78      0.00
    6   25   27     -8.15      0.00
    8   25   27    -18.66      0.00
   10   25   27     -8.10      0.00
   12   25   27      4.37      0.00
   14   25   27      3.79      0.00
   16   25   27      3.43      0.00
   18   25   27     -3.65      0.00
   20   25   27     12.00      0.00
   22   25   27      9.94      0.00
   24   25   27     -5.78      0.00
   26   25   27    -10.08      0.00
    1   26   27     -5.34      0.00
    3   26   27     -0.93      0.00
    5   26   27    -13.96      0.00
    7   26   27     11.63      0.00
    9   26   27     23.63      0.00
   11   26   27     -3.88      0.00
   13   26   27      7.18      0.00
   15   26   27     -0.36      0.00
   17   26   27      3.54      0.00
   19   26   27      2.83      0.00
   21   26   27    -10.36      0.00
   23   26   27    -12.96      0.00
   25   26   27    -21.62      0.00
    0   27   27    -44.02      0.00
    2   27   27     -7.96      0.00
    4   27   27      7.11      0.00
    6   27   27     -6.04      0.00
    8   27   27     15.33      0.00
   10   27   27    -12.69      0.00
   12   27   27    -11.94      0.00
   14   27   27      3.16      0.00
   16   27   27      3.34      0.00
   18   27   27     16.28      0.00
   20   27   27     -9.01      0.00
   22   27   27    -21.23      0.00
   24   27   27    -14.89      0.00
   26   27   27    -16.96      0.00
    0    0   28     25.37      0.00
    2    0   28     -2.30      0.00
    4    0   28     -4.22      0.00
    6    0   28     -4.78      0.00
    8    0   28    -19.84      0.00
   10    0   28     -4.17      0.00
   12    0   28    -13.48      0.00
   14    0   28    -24.37      0.00
   16    0   28     -2.50      0.00
   18    0   28    -41.46      0.00
   20    0   28     -7.76      0.00
   22    0   28      2.46      0.00
   24    0   28    -11.68      0.00
   26    0   28     -3.17      0.00
    1    1   28     23.96      0.00
    3    1   28      7.11      0.00
    5    1   28      2.00      0.00
    7    1   28      1.53      0.00
    9    1   28    -19.94      0.00
   11    1   28      3.28      0.00
   13    1   28      2.54      0.00
   15    1   28     14.08      0.00
   17    1   28     -0.63      0.00
   19    1   28    -21.24      0.00
   21    1   28     -2.40      0.00
   23    1   28    -12.98      0.00
   25    1   28    -16.06      0.00
   27    1   28      0.14      0.00
    0    2   28     -6.05      0.00
    2    2   28      6.51      0.00
    4    2   28     -2.39      0.00
    6    2   28     -8.42      0.00
    8    2   28      4.80      0.00
   10    2   28     -3.74      0.00
   12    2   28      8.79      0.00
   14    2   28      6.35      0.00
   16    2   28      9.17      0.00
   18    2   28      1.96      0.00
   20    2   28      4.13      0.00
   22    2   28      9.64      0.00
   24    2   28      2.00      0.00
   26    2   28      5.11      0.00
    1    3   28      0.80      0.00
    3    3   28     10.85      0.00
    5    3   28     -2.32      0.00
    7    3   28      2.99      0.00
    9    3   28     -4.87      0.00
   11    3   28     -1.41      0.00
   13    3   28     14.50      0.00
   15    3   28     -8.60      0.00
   17    3   28     -5.58      0.00
   19    3   28     16.32      0.00
   21    3   28     -5.78      0.00
   23    3   28    -25.08      0.00
   25    3   28      6.35      0.00
   27    3   28      5.01      0.00
    0    4   28      3.36      0.00
    2    4   28     -3.89      0.00
    4    4   28      0.14      0.00
    6    4   28      4.01      0.00
    8    4   28      8.28      0.00
   10    4   28      0.07      0.00
   12    4   28      1.15      0.00
   14    4   28      6.84      0.00
   16    4   28     -1.95      0.00
   18    4   28      3.44      0.00
   20    4   28      4.07      0.00
   22    4   28    -12.32      0.00
   24    4   28     -8.05      0.00
   26    4   28     -2.19      0.00
    1    5   28      7.26      0.00
    3    5   28    -10.49      0.00
    5    5   28     14.53      0.00
    7    5   28      1.01      0.00
    9    5   28      9.51      0.00
   11    5   28     15.01      0.00
   13    5   28     -1.01      0.00
   15    5   28    -14.02      0.00
   17    5   28     -9.85      0.00
   19    5   28     -1.26      0.00
   21    5   28     12.19      0.00
   23    5   28      2.96      0.00
   25    5   28      9.13      0.00
   27    5   28      8.67      0.00
    0    6   28     -7.93      0.00
    2    6   28    -23.66      0.00
    4    6   28      5.40      0.00
    6    6   28      5.89      0.00
    8    6   28    -10.11      0.00
   10    6   28     -8.61      0.00
   12    6   28    -24.22      0.00
   14    6   28     -3.24      0.00
   16    6   28     19.19      0.00
   18    6   28     -0.78      0.00
   20    6   28     -2.37      0.00
   22    6   28     -3.55      0.00
   24    6   28     -8.31      0.00
   26    6   28      4.05      0.00
    1    7   28    -24.99      0.00
    3    7   28     -8.99      0.00
    5    7   28     -2.64      0.00
    7    7   28      3.37      0.00
    9    7   28     28.62      0.00
   11    7   28     11.82      0.00
   13    7   28      7.30      0.00
   15    7   28      0.04      0.00
   17    7   28     -4.68      0.00
   19    7   28    -14.39      0.00
   21    7   28     12.43      0.00
   23    7   28     15.25      0.00
   25    7   28      1.86      0.00
   27    7   28      1.03      0.00
    0    8   28    -10.81      0.00
    2    8   28      5.58      0.00
    4    8   28      7.34      0.00
    6    8   28    -22.43      0.00
    8    8   28     -2.73      0.00
   10    8   28     -9.54      0.00
   12    8   28    -15.20      0.00
   14    8   28     -0.13      0.00
   16    8   28      0.16      0.00
   18    8   28     -2.10      0.00
   20    8   28     -9.02      0.00
   22    8   28     27.32      0.00
   24    8   28     12.52      0.00
   26    8   28     11.28      0.00
    1    9   28      3.69      0.00
    3    9   28     13.24      0.00
    5    9   28     12.38      0.00
    7    9   28      0.26      0.00
    9    9   28      5.71      0.00
   11    9   28     -9.83      0.00
   13    9   28     12.35      0.00
   15    9   28     -4.43      0.00
   17    9   28     -5.98      0.00
   19    9   28     -2.85      0.00
   21    9   28     -2.63      0.00
   23    9   28     -1.93      0.00
   25    9   28     -3.97      0.00
   27    9   28      4.32      0.00
    0   10   28      1.47      0.00
    2   10   28     -6.34      0.00
    4   10   28     -9.75      0.00
    6   10   28     -5.85      0.00
    8   10   28     -6.24      0.00
   10   10   28     12.15      0.00
   12   10   28      7.16      0.00
   14   10   28      0.47      0.00
   16   10   28    -17.31      0.00
   18   10   28      4.37      0.00
   20   10   28      6.35      0.00
   22   10   28      8.57      0.00
   24   10   28     -0.29      0.00
   26   10   28     -6.36      0.00
    1   11   28     -8.46      0.00
    3   11   28    -16.04      0.00
    5   11   28     13.77      0.00
    7   11   28     -2.24      0.00
    9   11   28    -21.05      0.00
   11   11   28    -14.05      0.00
   13   11   28    -11.92      0.00
   15   11   28     -2.96      0.00
   17   11   28    -11.83      0.00
   19   11   28     -1.56      0.00
   21   11   28      6.81      0.00
   23   11   28     12.48      0.00
   25   11   28     -2.69      0.00
   27   11   28      7.01      0.00
    0   12   28      0.78      0.00
    2   12   28     14.73      0.00
    4   12   28     -7.88      0.00
    6   12   28     -1.01      0.00
    8   12   28    -10.53      0.00
   10   12   28     17.32      0.00
   12   12   28     10.63      0.00
   14   12   28      2.05      0.00
   16   12   28     -7.18      0.00
   18   12   28    -10.26      0.00
   20   12   28      2.10      0.00
   22   12   28     11.50      0.00
   24   12   28     -4.27      0.00
   26   12   28     -9.59      0.00
    1   13   28     -3.25      0.00
    3   13   28     13.75      0.00
    5   13   28      2.75      0.00
    7   13   28     21.62      0.00
    9   13   28      3.41      0.00
   11   13   28      9.34      0.00
   13   13   28     -4.58      0.00
   15   13   28     -4.54      0.00
   17   13   28     -8.29      0.00
   19   13   28      5.45      0.00
   21   13   28     11.37      0.00
   23   13   28     14.09      0.00
   25   13   28     -1.85      0.00
   27   13   28      5.24      0.00
    0   14   28    -31.37      0.00
    2   14   28      9.65      0.00
    4   14   28     -2.94      0.00
    6   14   28      5.33      0.00
    8   14   28     -5.68      0.00
   10   14   28     -2.86      0.00
   12   14   28     -1.11      0.00
   14   14   28      2.88      0.00
   16   14   28      5.44      0.00
   18   14   28      0.28      0.00
   20   14   28     -3.31      0.00
   22   14   28     10.83      0.00
   24   14   28      7.24      0.00
   26   14   28     -5.30      0.00
    1   15   28     -4.46      0.00
    3   15   28     -5.27      0.00
    5   15   28     -9.27      0.00
    7   15   28      7.95      0.00
    9   15   28     -0.24      0.00
   11   15   28      4.44      0.00
   13   15   28     -1.23      0.00
   15   15   28     -2.96      0.00
   17   15   28     -2.38      0.00
   19   15   28      2.32      0.00
   21   15   28    -15.86      0.00
   23   15   28     -1.48      0.00
   25   15   28      7.08      0.00
   27   15   28      0.61      0.00
    0   16   28    -15.80      0.00
    2   16   28      8.00      0.00
    4   16   28      6.16      0.00
    6   16   28     26.95      0.00
    8   16   28      1.50      0.00
   10   16   28    -12.07      0.00
   12   16   28     -8.93      0.00
   14   16   28      3.26      0.00
   16   16   28      2.15      0.00
   18   16   28      3.15      0.00
   20   16   28    -16.29      0.00
   22   16   28    -14.84      0.00
   24   16   28     13.33      0.00
   26   16   28      5.58      0.00
    1   17   28     -0.99      0.00
    3   17   28     -7.79      0.00
    5   17   28    -10.18      0.00
    7   17   28    -11.27      0.00
    9   17   28      1.39      0.00
   11   17   28     11.38      0.00
   13   17   28    -10.66      0.00
   15   17   28     -0.75      0.00
   17   17   28     17.70      0.00
   19   17   28      3.02      0.00
   21   17   28      1.52      0.00
   23   17   28     -6.92      0.00
   25   17   28     -7.03      0.00
   27   17   28     12.87      0.00
    0   18   28    -12.57      0.00
    2   18   28     -0.81      0.00
    4   18   28     -9.58      0.00
    6   18   28     -5.57      0.00
    8   18   28     -0.76      0.00
   10   18   28     -6.05      0.00
   12   18   28    -14.64      0.00
   14   18   28      0.27      0.00
   16   18   28     17.36      0.00
   18   18   28     -9.23      0.00
   20   18   28    -25.38      0.00
   22   18   28      3.32      0.00
   24   18   28    -12.65      0.00
   26   18   28      6.59      0.00
    1   19   28     -5.70      0.00
    3   19   28      0.82      0.00
    5   19   28      9.08      0.00
    7   19   28      9.10      0.00
    9   19   28     10.05      0.00
   11   19   28     -1.87      0.00
   13   19   28     12.27      0.00
   15   19   28      3.30      0.00
   17   19   28      7.20      0.00
   19   19   28     -5.19      0.00
   21   19   28     23.29      0.00
   23   19   28     -3.15      0.00
   25   19   28     -3.93      0.00
   27   19   28      0.81      0.00
    0   20   28     16.89      0.00
    2   20   28      5.43      0.00
    4   20   28     -2.98      0.00
    6   20   28    -14.12      0.00
    8   20   28     -0.15      0.00
   10   20   28      9.33      0.00
   12   20   28      6.96      0.00
   14   20   28      0.68      0.00
   16   20   28     -3.43      0.00
   18   20   28     -3.81      0.00
   20   20   28     -4.58      0.00
   22   20   28     -4.51      0.00
   24   20   28    -10.68      0.00
   26   20   28    -21.90      0.00
    1   21   28     -2.84      0.00
    3   21   28      2.53      0.00
    5   21   28      1.96      0.00
    7   21   28     -5.14      0.00
    9   21   28      5.18      0.00
   11   21   28     -8.20      0.00
   13   21   28      9.45      0.00
   15   21   28    -10.98      0.00
   17   21   28    -10.02      0.00
   19   21   28     -3.25      0.00
   21   21   28     12.38      0.00
   23   21   28      7.61      0.00
   25   21   28      2.46      0.00
   27   21   28    -28.21      0.00
    0   22   28    -11.45      0.00
    2   22   28     10.58      0.00
    4   22   28     -7.62      0.00
    6   22   28    -16.17      0.00
    8   22   28     17.97      0.00
   10   22   28     13.03      0.00
   12   22   28     14.76      0.00
   14   22   28      8.13      0.00
   16   22   28     -4.65      0.00
   18   22   28      6.90      0.00
   20   22   28     11.85      0.00
   22   22   28     -1.96      0.00
   24   22   28    -20.39      0.00
   26   22   28    -22.79      0.00
    1   23   28      4.01      0.00
    3   23   28      9.64      0.00
    5   23   28     -0.85      0.00
    7   23   28     -4.79      0.00
    9   23   28      3.35      0.00
   11   23   28     19.16      0.00
   13   23   28      4.72      0.00
   15   23   28     -6.12      0.00
   17   23   28      3.94      0.00
   19   23   28     -8.38      0.00
   21   23   28     12.52      0.00
   23   23   28     10.81      0.00
   25   23   28     -1.14      0.00
   27   23   28      0.24      0.00
    0   24   28     -0.71      0.00
    2   24   28      4.11      0.00
    4   24   28    -14.40      0.00
    6   24   28     -6.91      0.00
    8   24   28      0.81      0.00
   10   24   28     -5.60      0.00
   12   24   28     -7.34      0.00
   14   24   28     -2.85      0.00
   16   24   28     -0.11      0.00
   18   24   28     -3.30      0.00
   20   24   28     -3.30      0.00
   22   24   28      6.92      0.00
   24   24   28    -24.01      0.00
   26   24   28    -16.38      0.00
    1   25   28      4.03      0.00
    3   25   28      0.99      0.00
    5   25   28     -9.26      0.00
    7   25   28      4.49      0.00
    9   25   28      7.82      0.00
   11   25   28    -11.74      0.00
   13   25   28      4.30      0.00
   15   25   28      9.59      0.00
   17   25   28     -0.21      0.00
   19   25   28     -3.61      0.00
   21   25   28     -5.10      0.00
   23   25   28     -2.78      0.00
   25   25   28     -5.29      0.00
   27   25   28     -2.05      0.00
    0   26   28     -9.86      0.00
    2   26   28     -4.13      0.00
    4   26   28     -4.08      0.00
    6   26   28      7.92      0.00
    8   26   28      7.94      0.00
   10   26   28    -10.98      0.00
   12   26   28    -20.35      0.00
   14   26   28      9.03      0.00
   16   26   28     -2.16      0.00
   18   26   28     19.39      0.00
   20   26   28     -0.86      0.00
   22   26   28      3.32      0.00
   24   26   28     10.65      0.00
   26   26   28    -25.52      0.00
    1   27   28    -12.28      0.00
    3   27   28      3.25      0.00
    5   27   28    -11.94      0.00
    7   27   28      4.91      0.00
    9   27   28     10.38      0.00
   11   27   28    -13.87      0.00
   13   27   28      3.02      0.00
   15   27   28     -3.64      0.00
   17   27   28      5.29      0.00
   19   27   28      5.56      0.00
   21   27   28    -34.56      0.00
   23   27   28     -2.05      0.00
   25   27   28     -3.05      0.00
   27   27   28     -4.08      0.00
    0   28   28    -27.12      0.00
    2   28   28     20.17      0.00
    4   28   28      8.42      0.00
    6   28   28      4.31      0.00
    8   28   28     18.76      0.00
   10   28   28    -15.47      0.00
   12   28   28      8.12      0.00
   14   28   28     12.69      0.00
   16   28   28      1.47      0.00
   18   28   28     31.55      0.00
   20   28   28    -14.13      0.00
   22   28   28      2.15      0.00
   24   28   28      7.52      0.00
   26   28   28    -10.98      0.00
   28   28   28      6.78      0.00
    1    0   29     25.26      0.00
    3    0   29     20.89      0.00
    5    0   29     -9.26      0.00
    7    0   29      1.32      0.00
    9    0   29      5.83      0.00
   11    0   29     -0.49      0.00
   13    0   29      5.79      0.00
   15    0   29     -9.23      0.00
   17    0   29      4.80      0.00
   19    0   29    -26.49      0.00
   21    0   29      5.83      0.00
   23    0   29     11.85      0.00
   25    0   29     -1.49      0.00
   27    0   29    -10.58      0.00
    0    1   29    -23.49      0.00
    2    1   29     -6.69      0.00
    4    1   29      2.72      0.00
    6    1   29     -6.91      0.00
    8    1   29      6.43      0.00
   10    1   29      5.14      0.00
   12    1   29     15.89      0.00
   14    1   29      7.59      0.00
   16    1   29      1.57      0.00
   18    1   29     -2.16      0.00
   20    1   29     -0.87      0.00
   22    1   29     -1.05      0.00
   24    1   29    -11.04      0.00
   26    1   29      9.59      0.00
   28    1   29      7.44      0.00
    1    2   29    -10.58      0.00
    3    2   29     12.65      0.00
    5    2   29     -6.91      0.00
    7    2   29    -10.30      0.00
    9    2   29     -5.41      0.00
   11    2   29    -11.16      0.00
   13    2   29      0.37      0.00
   15    2   29     -2.58      0.00
   17    2   29      3.32      0.00
   19    2   29      0.50      0.00
   21    2   29     -3.76      0.00
   23    2   29     -6.88      0.00
   25    2   29      1.95      0.00
   27    2   29     -5.18      0.00
    0    3   29      7.25      0.00
    2    3   29     15.93      0.00
    4    3   29      2.76      0.00
    6    3   29     -1.57      0.00
    8    3   29      2.94      0.00
   10    3   29     -4.64      0.00
   12    3   29     19.54      0.00
   14    3   29     10.08      0.00
   16    3   29     -9.96      0.00
   18    3   29      4.12      0.00
   20    3   29     -4.74      0.00
   22    3   29    -10.22      0.00
   24    3   29     -3.35      0.00
   26    3   29      2.29      0.00
   28    3   29      8.93      0.00
    1    4   29     -8.57      0.00
    3    4   29      5.71      0.00
    5    4   29     -1.79      0.00
    7    4   29      5.07      0.00
    9    4   29     -5.59      0.00
   11    4   29     -0.48      0.00
   13    4   29      1.27      0.00
   15    4   29      0.35      0.00
   17    4   29      9.74      0.00
   19    4   29      4.42      0.00
   21    4   29     -9.78      0.00
   23    4   29     -9.10      0.00
   25    4   29     -3.37      0.00
   27    4   29      3.75      0.00
    0    5   29      8.72      0.00
    2    5   29      4.40      0.00
    4    5   29    -16.99      0.00
    6    5   29     -9.58      0.00
    8    5   29     -9.94      0.00
   10    5   29    -10.94      0.00
   12    5   29     10.25      0.00
   14    5   29      0.17      0.00
   16    5   29    -10.80      0.00
   18    5   29     -2.11      0.00
   20    5   29      3.43      0.00
   22    5   29    -12.34      0.00
   24    5   29     -9.03      0.00
   26    5   29      9.49      0.00
   28    5   29     -3.22      0.00
    1    6   29     -7.79      0.00
    3    6   29      5.72      0.00
    5    6   29     -6.65      0.00
    7    6   29     10.72      0.00
    9    6   29      2.22      0.00
   11    6   29     -2.91      0.00
   13    6   29    -11.29      0.00
   15    6   29      1.11      0.00
   17    6   29      8.87      0.00
   19    6   29     -5.45      0.00
   21    6   29     -9.83      0.00
   23    6   29     -2.94      0.00
   25    6   29     -7.51      0.00
   27    6   29      3.84      0.00
    0    7   29     -2.71      0.00
    2    7   29     12.25      0.00
    4    7   29      2.74      0.00
    6    7   29     -3.37      0.00
    8    7   29      7.30      0.00
   10    7   29      6.95      0.00
   12    7   29      0.78      0.00
   14    7   29      6.09      0.00
   16    7   29      9.62      0.00
   18    7   29      3.83      0.00
   20    7   29     -2.78      0.00
   22    7   29     -9.47      0.00
   24    7   29      6.77      0.00
   26    7   29      8.55      0.00
   28    7   29     16.14      0.00
    1    8   29    -16.78      0.00
    3    8   29      7.12      0.00
    5    8   29    -10.70      0.00
    7    8   29     -5.93      0.00
    9    8   29      2.00      0.00
   11    8   29      1.89      0.00
   13    8   29     -9.55      0.00
   15    8   29     -5.59      0.00
   17    8   29     -5.53      0.00
   19    8   29     11.40      0.00
   21    8   29     -0.97      0.00
   23    8   29     -9.93      0.00
   25    8   29      4.64      0.00
   27    8   29     -7.74      0.00
    0    9   29     -5.82      0.00
    2    9   29      5.86      0.00
    4    9   29      1.57      0.00
    6    9   29      2.87      0.00
    8    9   29      9.07      0.00
   10    9   29     -1.72      0.00
   12    9   29      3.72      0.00
   14    9   29     -2.49      0.00
   16    9   29     -3.33      0.00
   18    9   29      3.44      0.00
   20    9   29      5.36      0.00
   22    9   29     -7.09      0.00
   24    9   29     15.90      0.00
   26    9   29      4.07      0.00
   28    9   29     -7.23      0.00
    1   10   29      4.28      0.00
    3   10   29      8.05      0.00
    5   10   29      4.17      0.00
    7   10   29      8.13      0.00
    9   10   29     -8.28      0.00
   11   10   29     -2.27      0.00
   13   10   29     -5.69      0.00
   15   10   29    -13.05      0.00
   17   10   29     -1.17      0.00
   19   10   29     -1.15      0.00
   21   10   29      5.89      0.00
   23   10   29     -3.55      0.00
   25   10   29      2.48      0.00
   27   10   29      0.41      0.00
    0   11   29    -11.99      0.00
    2   11   29     -6.82      0.00
    4   11   29      2.23      0.00
    6   11   29      7.27      0.00
    8   11   29     -1.04      0.00
   10   11   29    -14.88      0.00
   12   11   29      8.80      0.00
   14   11   29     -9.17      0.00
   16   11   29     -9.28      0.00
   18   11   29     -2.00      0.00
   20   11   29     -0.52      0.00
   22   11   29     -2.24      0.00
   24   11   29      1.60      0.00
   26   11   29      5.63      0.00
   28   11   29     -6.45      0.00
    1   12   29    -15.16      0.00
    3   12   29    -12.73      0.00
    5   12   29     -5.90      0.00
    7   12   29     -1.81      0.00
    9   12   29     -3.59      0.00
   11   12   29     -5.22      0.00
   13   12   29    -10.87      0.00
   15   12   29    -17.37      0.00
   17   12   29     -0.81      0.00
   19   12   29    -10.82      0.00
   21   12   29     12.76      0.00
   23   12   29      4.63      0.00
   25   12   29     -3.60      0.00
   27   12   29      1.60      0.00
    0   13   29     -6.09      0.00
    2   13   29    -13.48      0.00
    4   13   29      3.27      0.00
    6   13   29      2.31      0.00
    8   13   29      4.68      0.00
   10   13   29      4.26      0.00
   12   13   29      9.69      0.00
   14   13   29     -0.38      0.00
   16   13   29     -8.92      0.00
   18   13   29     -5.34      0.00
   20   13   29      4.11      0.00
   22   13   29     20.54      0.00
   24   13   29      2.40      0.00
   26   13   29      4.87      0.00
   28   13   29     12.52      0.00
    1   14   29      1.67      0.00
    3   14   29      4.83      0.00
    5   14   29      6.03      0.00
    7   14   29     -2.70      0.00
    9   14   29      3.08      0.00
   11   14   29      1.99      0.00
   13   14   29     12.46      0.00
   15   14   29     -4.60      0.00
   17   14   29     -5.88      0.00
   19   14   29     -3.40      0.00
   21   14   29      7.25      0.00
   23   14   29      5.28      0.00
   25   14   29      4.36      0.00
   27   14   29     -1.68      0.00
    0   15   29     -2.47      0.00
    2   15   29     -6.49      0.00
    4   15   29      5.76      0.00
    6   15   29     23.79      0.00
    8   15   29     16.49      0.00
   10   15   29     -8.60      0.00
   12   15   29     -7.04      0.00
   14   15   29    -14.28      0.00
   16   15   29     -8.45      0.00
   18   15   29      7.17      0.00
   20   15   29     -2.47      0.00
   22   15   29     -8.21      0.00
   24   15   29     -5.21      0.00
   26   15   29     -8.47      0.00
   28   15   29     -3.45      0.00
    1   16   29     10.08      0.00
    3   16   29      6.70      0.00
    5   16   29     -7.52      0.00
    7   16   29     -3.44      0.00
    9   16   29      2.08      0.00
   11   16   29     12.93      0.00
   13   16   29      4.43      0.00
   15   16   29      0.94      0.00
   17   16   29      2.30      0.00
   19   16   29     -7.36      0.00
   21   16   29     -1.53      0.00
   23   16   29     16.33      0.00
   25   16   29     -2.95      0.00
   27   16   29      0.70      0.00
    0   17   29      0.23      0.00
    2   17   29     11.13      0.00
    4   17   29      3.63      0.00
    6   17   29     23.67      0.00
    8   17   29     18.73      0.00
   10   17   29      0.31      0.00
   12   17   29      8.06      0.00
   14   17   29     -0.98      0.00
   16   17   29      4.17      0.00
   18   17   29      6.75      0.00
   20   17   29     -1.58      0.00
   22   17   29      1.31      0.00
   24   17   29      7.42      0.00
   26   17   29     -2.00      0.00
   28   17   29     15.79      0.00
    1   18   29      9.85      0.00
    3   18   29     -8.24      0.00
    5   18   29    -14.37      0.00
    7   18   29      0.56      0.00
    9   18   29     -6.07      0.00
   11   18   29     10.04      0.00
   13   18   29    -12.55      0.00
   15   18   29     -3.29      0.00
   17   18   29     -0.11      0.00
   19   18   29      9.69      0.00
   21   18   29      1.66      0.00
   23   18   29     -3.11      0.00
   25   18   29     -0.11      0.00
   27   18   29      7.28      0.00
    0   19   29      8.24      0.00
    2   19   29     -1.36      0.00
    4   19   29      0.75      0.00
    6   19   29     13.06      0.00
    8   19   29     -8.92      0.00
   10   19   29     -0.96      0.00
   12   19   29      5.73      0.00
   14   19   29      5.35      0.00
   16   19   29     11.27      0.00
   18   19   29      1.72      0.00
   20   19   29     -5.80      0.00
   22   19   29     -2.65      0.00
   24   19   29     -2.59      0.00
   26   19   29     -2.94      0.00
   28   19   29      6.68      0.00
    1   20   29     -7.70      0.00
    3   20   29     -4.34      0.00
    5   20   29      3.46      0.00
    7   20   29      8.60      0.00
    9   20   29     -3.01      0.00
   11   20   29     -8.44      0.00
   13   20   29     -2.58      0.00
   15   20   29     10.63      0.00
   17   20   29     -8.79      0.00
   19   20   29      3.98      0.00
   21   20   29      1.65      0.00
   23   20   29      3.55      0.00
   25   20   29     -1.48      0.00
   27   20   29      2.54      0.00
    0   21   29     13.02      0.00
    2   21   29     -5.10      0.00
    4   21   29     -6.02      0.00
    6   21   29      1.67      0.00
    8   21   29     -7.48      0.00
   10   21   29     -3.35      0.00
   12   21   29      6.10      0.00
   14   21   29      3.48      0.00
   16   21   29     -4.46      0.00
   18   21   29     -1.11      0.00
   20   21   29     -5.22      0.00
   22   21   29      1.35      0.00
   24   21   29      2.83      0.00
   26   21   29     -3.98      0.00
   28   21   29      2.03      0.00
    1   22   29     -7.70      0.00
    3   22   29      7.61      0.00
    5   22   29     12.58      0.00
    7   22   29     -3.78      0.00
    9   22   29      0.25      0.00
   11   22   29      8.59      0.00
   13   22   29     -0.92      0.00
   15   22   29      7.95      0.00
   17   22   29     10.36      0.00
   19   22   29      2.58      0.00
   21   22   29     -7.27      0.00
   23   22   29     11.16      0.00
   25   22   29     -7.33      0.00
   27   22   29     -4.86      0.00
    0   23   29     12.63      0.00
    2   23   29      7.74      0.00
    4   23   29      0.18      0.00
    6   23   29     -6.26      0.00
    8   23   29      5.10      0.00
   10   23   29     -2.18      0.00
   12   23   29     11.97      0.00
   14   23   29     12.00      0.00
   16   23   29     10.95      0.00
   18   23   29      0.08      0.00
   20   23   29    -10.64      0.00
   22   23   29      5.50      0.00
   24   23   29     -1.84      0.00
   26   23   29     -2.50      0.00
   28   23   29      4.73      0.00
    1   24   29      0.23      0.00
    3   24   29      3.13      0.00
    5   24   29      9.58      0.00
    7   24   29      3.00      0.00
    9   24   29     -5.46      0.00
   11   24   29     -7.34      0.00
   13   24   29      0.36      0.00
   15   24   29      5.17      0.00
   17   24   29      3.46      0.00
   19   24   29    -10.56      0.00
   21   24   29     -3.78      0.00
   23   24   29    -15.07      0.00
   25   24   29     -1.30      0.00
   27   24   29     -1.39      0.00
    0   25   29     13.44      0.00
    2   25   29     -8.08      0.00
    4   25   29      0.40      0.00
    6   25   29     -0.47      0.00
    8   25   29     -1.46      0.00
   10   25   29      1.44      0.00
   12   25   29      4.45      0.00
   14   25   29     -7.48      0.00
   16   25   29      4.89      0.00
   18   25   29     -0.37      0.00
   20   25   29    -10.18      0.00
   22   25   29     -1.12      0.00
   24   25   29      1.79      0.00
   26   25   29     -7.97      0.00
   28   25   29    -21.14      0.00
    1   26   29      0.41      0.00
    3   26   29     10.48      0.00
    5   26   29     -3.33      0.00
    7   26   29      1.76      0.00
    9   26   29      9.57      0.00
   11   26   29    -15.26      0.00
   13   26   29     10.55      0.00
   15   26   29     10.32      0.00
   17   26   29     12.96      0.00
   19   26   29     10.36      0.00
   21   26   29      9.86      0.00
   23   26   29      0.82      0.00
   25   26   29     14.44      0.00
   27   26   29     13.40      0.00
    0   27   29    -11.27      0.00
    2   27   29      2.32      0.00
    4   27   29      5.94      0.00
    6   27   29      4.33      0.00
    8   27   29     20.95      0.00
   10   27   29     -2.15      0.00
   12   27   29     -4.75      0.00
   14   27   29      2.66      0.00
   16   27   29      9.87      0.00
   18   27   29     12.10      0.00
   20   27   29    -18.08      0.00
   22   27   29     -3.42      0.00
   24   27   29     -2.41      0.00
   26   27   29    -13.27      0.00
   28   27   29     -2.27      0.00
    1   28   29    -11.56      0.00
    3   28   29      2.33      0.00
    5   28   29      0.59      0.00
    7   28   29     -8.96      0.00
    9   28   29     -0.65      0.00
   11   28   29     -7.42      0.00
   13   28   29     -2.77      0.00
   15   28   29      1.30      0.00
   17   28   29     11.18      0.00
   19   28   29      3.14      0.00
   21   28   29     -2.95      0.00
   23   28   29    -11.10      0.00
   25   28   29    -12.40      0.00
   27   28   29      5.61      0.00
    0   29   29    -12.49      0.00
    2   29   29     -3.49      0.00
    4   29   29     -8.19      0.00
    6   29   29      3.85      0.00
    8   29   29     17.63      0.00
   10   29   29     21.34      0.00
   12   29   29     14.95      0.00
   14   29   29     10.54      0.00
   16   29   29      7.14      0.00
   18   29   29     -0.98      0.00
   20   29   29    -16.39      0.00
   22   29   29     -6.18      0.00
   24   29   29    -12.49      0.00
   26   29   29     12.67      0.00
   28   29   29     12.44      0.00
    0    0   30     56.15      0.00
    2    0   30      0.36      0.00
    4    0   30     -1.13      0.00
    6    0   30    -25.70      0.00
    8    0   30     -6.27      0.00
   10    0   30     20.48      0.00
   12    0   30     11.70      0.00
   14    0   30    -22.17      0.00
   16    0   30     -4.33      0.00
   18    0   30    -24.16      0.00
   20    0   30      5.89      0.00
   22    0   30     -0.17      0.00
   24    0   30     13.74      0.00
   26    0   30     15.01      0.00
   28    0   30     14.87      0.00
    1    1   30     20.02      0.00
    3    1   30      3.44      0.00
    5    1   30     -2.02      0.00
    7    1   30     12.72      0.00
    9    1   30     14.75      0.00
   11    1   30     24.30      0.00
   13    1   30      9.54      0.00
   15    1   30     13.11      0.00
   17    1   30      9.37      0.00
   19    1   30    -11.64      0.00
   21    1   30     -6.09      0.00
   23    1   30      4.97      0.00
   25    1   30    -15.74      0.00
   27    1   30    -11.86      0.00
   29    1   30     10.76      0.00
    0    2   30      0.47      0.00
    2    2   30     -5.13      0.00
    4    2   30     -1.60      0.00
    6    2   30    -20.10      0.00
    8    2   30      6.51      0.00
   10    2   30      6.76      0.00
   12    2   30      5.51      0.00
   14    2   30    -16.66      0.00
   16    2   30     -0.25      0.00
   18    2   30      4.94      0.00
   20    2   30      1.98      0.00
   22    2   30    -15.31      0.00
   24    2   30      3.84      0.00
   26    2   30    -20.33      0.00
   28    2   30     -4.02      0.00
    1    3   30    -12.81      0.00
    3    3   30     12.80      0.00
    5    3   30      0.30      0.00
    7    3   30      6.25      0.00
    9    3   30      4.30      0.00
   11    3   30      7.71      0.00
   13    3   30      3.44      0.00
   15    3   30     -7.17      0.00
   17    3   30     -7.88      0.00
   19    3   30      0.47      0.00
   21    3   30    -15.87      0.00
   23    3   30     -3.11      0.00
   25    3   30     20.96      0.00
   27    3   30     -9.70      0.00
   29    3   30      2.53      0.00
    0    4   30      7.72      0.00
    2    4   30      2.09      0.00
    4    4   30     10.24      0.00
    6    4   30      7.15      0.00
    8    4   30      0.27      0.00
   10    4   30    -12.53      0.00
   12    4   30     -6.84      0.00
   14    4   30    -12.48      0.00
   16    4   30    -11.31      0.00
   18    4   30      0.28      0.00
   20    4   30      6.39      0.00
   22    4   30    -11.60      0.00
   24    4   30      9.11      0.00
   26    4   30     -8.80      0.00
   28    4   30    -13.70      0.00
    1    5   30      9.73      0.00
    3    5   30      0.38      0.00
    5    5   30     13.35      0.00
    7    5   30     31.70      0.00
    9    5   30     18.30      0.00
   11    5   30     10.95      0.00
   13    5   30      2.48      0.00
   15    5   30    -15.86      0.00
   17    5   30    -11.14      0.00
   19    5   30    -11.15      0.00
   21    5   30     -7.26      0.00
   23    5   30     -2.42      0.00
   25    5   30      8.22      0.00
   27    5   30     10.94      0.00
   29    5   30      8.12      0.00
    0    6   30    -24.71      0.00
    2    6   30    -22.64      0.00
    4    6   30      6.81      0.00
    6    6   30     19.28      0.00
    8    6   30     -1.00      0.00
   10    6   30    -30.60      0.00
   12    6   30    -28.93      0.00
   14    6   30     10.06      0.00
   16    6   30     21.58      0.00
   18    6   30      2.22      0.00
   20    6   30     12.39      0.00
   22    6   30     13.45      0.00
   24    6   30      7.32      0.00
   26    6   30      9.23      0.00
   28    6   30     -7.00      0.00
    1    7   30    -13.70      0.00
    3    7   30      3.53      0.00
    5    7   30     -1.16      0.00
    7    7   30     21.95      0.00
    9    7   30     15.83      0.00
   11    7   30     -9.88      0.00
   13    7   30     -1.69      0.00
   15    7   30     -7.89      0.00
   17    7   30     -3.80      0.00
   19    7   30      9.75      0.00
   21    7   30     16.85      0.00
   23    7   30      8.44      0.00
   25    7   30      0.22      0.00
   27    7   30      5.51      0.00
   29    7   30      9.01      0.00
    0    8   30     -0.30      0.00
    2    8   30     12.82      0.00
    4    8   30     10.01      0.00
    6    8   30      1.34      0.00
    8    8   30     -5.62      0.00
   10    8   30    -18.92      0.00
   12    8   30    -16.80      0.00
   14    8   30     -2.25      0.00
   16    8   30    -14.54      0.00
   18    8   30    -15.85      0.00
   20    8   30    -14.53      0.00
   22    8   30      0.31      0.00
   24    8   30      4.91      0.00
   26    8   30     -5.55      0.00
   28    8   30     -5.22      0.00
    1    9   30    -15.31      0.00
    3    9   30      3.63      0.00
    5    9   30     18.89      0.00
    7    9   30      4.89      0.00
    9    9   30    -19.70      0.00
   11    9   30    -25.91      0.00
   13    9   30     -5.80      0.00
   15    9   30    -15.12      0.00
   17    9   30     -9.43      0.00
   19    9   30     11.96      0.00
   21    9   30      2.02      0.00
   23    9   30     -0.32      0.00
   25    9   30     -6.63      0.00
   27    9   30    -26.50      0.00
   29    9   30     -7.16      0.00
    0   10   30     16.77      0.00
    2   10   30      5.02      0.00
    4   10   30     -6.52      0.00
    6   10   30    -10.97      0.00
    8   10   30    -24.61      0.00
   10   10   30      6.29      0.00
   12   10   30     11.08      0.00
   14   10   30      2.94      0.00
   16   10   30    -23.73      0.00
   18   10   30      4.26      0.00
   20   10   30     29.72      0.00
   22   10   30      0.67      0.00
   24   10   30      8.45      0.00
   26   10   30     12.63      0.00
   28   10   30    -10.95      0.00
    1   11   30     -7.89      0.00
    3   11   30     15.65      0.00
    5   11   30     33.03      0.00
    7   11   30      5.39      0.00
    9   11   30    -24.08      0.00
   11   11   30    -26.18      0.00
   13   11   30      0.55      0.00
   15   11   30     -0.29      0.00
   17   11   30    -13.16      0.00
   19   11   30      4.32      0.00
   21   11   30     -2.96      0.00
   23   11   30     -3.90      0.00
   25   11   30     -9.35      0.00
   27   11   30    -15.28      0.00
   29   11   30     -6.83      0.00
    0   12   30      6.73      0.00
    2   12   30     19.97      0.00
    4   12   30     -9.52      0.00
    6   12   30    -25.52      0.00
    8   12   30    -13.29      0.00
   10   12   30      9.33      0.00
   12   12   30     -0.93      0.00
   14   12   30     -7.80      0.00
   16   12   30    -30.02      0.00
   18   12   30    -15.61      0.00
   20   12   30      4.82      0.00
   22   12   30    -13.33      0.00
   24   12   30      2.92      0.00
   26   12   30      1.96      0.00
   28   12   30     -1.25      0.00
    1   13   30    -22.97      0.00
    3   13   30     21.84      0.00
    5   13   30     10.84      0.00
    7   13   30     11.02      0.00
    9   13   30     -6.06      0.00
   11   13   30     -7.71      0.00
   13   13   30     -7.10      0.00
   15   13   30    -12.45      0.00
   17   13   30     -8.12      0.00
   19   13   30     12.99      0.00
   21   13   30     -7.27      0.00
   23   13   30      0.50      0.00
   25   13   30     12.76      0.00
   27   13   30     -1.57      0.00
   29   13   30      4.85      0.00
    0   14   30    -21.92      0.00
    2   14   30     -2.98      0.00
    4   14   30    -10.24      0.00
    6   14   30      4.02      0.00
    8   14   30      0.02      0.00
   10   14   30     12.16      0.00
   12   14   30     -9.58      0.00
   14   14   30    -19.86      0.00
   16   14   30    -10.75      0.00
   18   14   30     -8.98      0.00
   20   14   30      4.45      0.00
   22   14   30      0.52      0.00
   24   14   30      8.20      0.00
   26   14   30     -6.34      0.00
   28   14   30    -19.04      0.00
    1   15   30      1.28      0.00
    3   15   30      7.15      0.00
    5   15   30      9.19      0.00
    7   15   30     11.25      0.00
    9   15   30      6.59      0.00
   11   15   30      7.44      0.00
   13   15   30    -10.84      0.00
   15   15   30      6.00      0.00
   17   15   30     11.63      0.00
   19   15   30     14.23      0.00
   21   15   30     -4.31      0.00
   23   15   30     -8.82      0.00
   25   15   30      8.24      0.00
   27   15   30     14.51      0.00
   29   15   30      4.76      0.00
    0   16   30    -12.30      0.00
    2   16   30     -2.70      0.00
    4   16   30      1.06      0.00
    6   16   30     29.33      0.00
    8   16   30      3.96      0.00
   10   16   30      1.23      0.00
   12   16   30    -16.14      0.00
   14   16   30    -14.57      0.00
   16   16   30    -14.05      0.00
   18   16   30     -3.60      0.00
   20   16   30     17.81      0.00
   22   16   30     -1.42      0.00
   24   16   30      4.83      0.00
   26   16   30     20.78      0.00
   28   16   30    -23.51      0.00
    1   17   30     26.78      0.00
    3   17   30      6.41      0.00
    5   17   30      5.11      0.00
    7   17   30     24.28      0.00
    9   17   30     30.19      0.00
   11   17   30     14.68      0.00
   13   17   30     -5.60      0.00
   15   17   30      0.69      0.00
   17   17   30     14.20      0.00
   19   17   30      9.27      0.00
   21   17   30     -8.39      0.00
   23   17   30    -13.25      0.00
   25   17   30      7.45      0.00
   27   17   30     16.98      0.00
   29   17   30     -2.88      0.00
    0   18   30     -7.25      0.00
    2   18   30     13.08      0.00
    4   18   30      0.47      0.00
    6   18   30      0.63      0.00
    8   18   30      6.45      0.00
   10   18   30      9.12      0.00
   12   18   30     -8.53      0.00
   14   18   30     -5.75      0.00
   16   18   30     -6.02      0.00
   18   18   30      7.86      0.00
   20   18   30      6.83      0.00
   22   18   30     -3.30      0.00
   24   18   30     -3.43      0.00
   26   18   30     12.73      0.00
   28   18   30    -10.57      0.00
    1   19   30     -3.74      0.00
    3   19   30     -4.91      0.00
    5   19   30      3.76      0.00
    7   19   30      3.65      0.00
    9   19   30     -0.93      0.00
   11   19   30     -9.56      0.00
   13   19   30      8.65      0.00
   15   19   30     15.63      0.00
   17   19   30     18.49      0.00
   19   19   30      5.13      0.00
   21   19   30     -2.92      0.00
   23   19   30     -7.53      0.00
   25   19   30     20.58      0.00
   27   19   30     -2.43      0.00
   29   19   30     -4.49      0.00
    0   20   30      8.33      0.00
    2   20   30     -0.35      0.00
    4   20   30      7.33      0.00
    6   20   30     19.11      0.00
    8   20   30     -0.44      0.00
   10   20   30     26.54      0.00
   12   20   30     -5.91      0.00
   14   20   30    -12.53      0.00
   16   20   30      9.59      0.00
   18   20   30     -5.04      0.00
   20   20   30    -18.25      0.00
   22   20   30    -34.73      0.00
   24   20   30      0.55      0.00
   26   20   30     20.32      0.00
   28   20   30    -13.20      0.00
    1   21   30      8.53      0.00
    3   21   30      4.97      0.00
    5   21   30     13.09      0.00
    7   21   30    -10.65      0.00
    9   21   30      0.54      0.00
   11   21   30      8.54      0.00
   13   21   30      3.01      0.00
   15   21   30      9.73      0.00
   17   21   30      5.44      0.00
   19   21   30      1.47      0.00
   21   21   30     18.34      0.00
   23   21   30     -0.30      0.00
   25   21   30      7.90      0.00
   27   21   30    -20.30      0.00
   29   21   30      2.11      0.00
    0   22   30    -17.90      0.00
    2   22   30     -5.20      0.00
    4   22   30    -13.33      0.00
    6   22   30      2.62      0.00
    8   22   30      0.87      0.00
   10   22   30      0.58      0.00
   12   22   30     -1.88      0.00
   14   22   30     12.53      0.00
   16   22   30     11.61      0.00
   18   22   30    -12.74      0.00
   20   22   30     -4.04      0.00
   22   22   30    -33.89      0.00
   24   22   30    -17.93      0.00
   26   22   30     27.07      0.00
   28   22   30     -8.24      0.00
    1   23   30      5.17      0.00
    3   23   30     -4.27      0.00
    5   23   30      2.01      0.00
    7   23   30      3.44      0.00
    9   23   30      6.94      0.00
   11   23   30     19.00      0.00
   13   23   30     10.43      0.00
   15   23   30     -3.97      0.00
   17   23   30      4.12      0.00
   19   23   30      7.52      0.00
   21   23   30     -5.35      0.00
   23   23   30    -37.96      0.00
   25   23   30     -1.67      0.00
   27   23   30    -16.40      0.00
   29   23   30    -29.53      0.00
    0   24   30      0.21      0.00
    2   24   30      7.82      0.00
    4   24   30     10.64      0.00
    6   24   30      9.53      0.00
    8   24   30    -11.58      0.00
   10   24   30    -12.95      0.00
   12   24   30     -1.05      0.00
   14   24   30      9.73      0.00
   16   24   30      2.87      0.00
   18   24   30      9.18      0.00
   20   24   30      7.86      0.00
   22   24   30    -24.72      0.00
   24   24   30    -12.60      0.00
   26   24   30     29.12      0.00
   28   24   30     -8.09      0.00
    1   25   30      1.92      0.00
    3   25   30    -15.89      0.00
    5   25   30     10.18      0.00
    7   25   30      5.77      0.00
    9   25   30      7.06      0.00
   11   25   30      3.88      0.00
   13   25   30     -5.30      0.00
   15   25   30    -15.59      0.00
   17   25   30      0.58      0.00
   19   25   30     13.76      0.00
   21   25   30     -0.03      0.00
   23   25   30    -10.51      0.00
   25   25   30     11.78      0.00
   27   25   30     -3.11      0.00
   29   25   30    -25.73      0.00
    0   26   30     17.18      0.00
    2   26   30    -11.63      0.00
    4   26   30      3.30      0.00
    6   26   30     11.11      0.00
    8   26   30    -32.68      0.00
   10   26   30     -3.56      0.00
   12   26   30     -9.76      0.00
   14   26   30     -4.73      0.00
   16   26   30      8.03      0.00
   18   26   30     14.81      0.00
   20   26   30     14.17      0.00
   22   26   30      1.74      0.00
   24   26   30      4.67      0.00
   26   26   30     15.54      0.00
   28   26   30     -1.51      0.00
    1   27   30      9.56      0.00
    3   27   30      6.73      0.00
    5   27   30     24.49      0.00
    7   27   30     10.12      0.00
    9   27   30      9.65      0.00
   11   27   30      4.59      0.00
   13   27   30    -23.29      0.00
   15   27   30    -13.00      0.00
   17   27   30      0.48      0.00
   19   27   30     -2.10      0.00
   21   27   30     -7.15      0.00
   23   27   30     -8.05      0.00
   25   27   30      5.21      0.00
   27   27   30     -0.02      0.00
   29   27   30     -7.80      0.00
    0   28   30    -20.68      0.00
    2   28   30     17.02      0.00
    4   28   30      3.29      0.00
    6   28   30    -10.62      0.00
    8   28   30      2.28      0.00
   10   28   30    -14.49      0.00
   12   28   30     -9.72      0.00
   14   28   30      2.57      0.00
   16   28   30     -0.86      0.00
   18   28   30    -10.92      0.00
   20   28   30      6.10      0.00
   22   28   30     17.15      0.00
   24   28   30     -1.23      0.00
   26   28   30     24.14      0.00
   28   28   30      3.31      0.00
    1   29   30      2.79      0.00
    3   29   30     -2.68      0.00
    5   29   30    -18.22      0.00
    7   29   30     13.57      0.00
    9   29   30      2.76      0.00
   11   29   30     -5.34      0.00
   13   29   30     -0.95      0.00
   15   29   30     -2.87      0.00
   17   29   30      6.71      0.00
   19   29   30      0.75      0.00
   21   29   30     -3.45      0.00
   23   29   30    -25.97      0.00
   25   29   30     -8.37      0.00
   27   29   30      0.15      0.00
    0   30   30    -32.60      0.00
    2   30   30     -2.40      0.00
    4   30   30     17.19      0.00
    6   30   30     -7.17      0.00
    8   30   30     -2.16      0.00
   10   30   30      2.15      0.00
   12   30   30      4.31      0.00
   14   30   30    -11.71      0.00
   16   30   30    -21.72      0.00
   18   30   30    -12.09      0.00
   20   30   30      9.82      0.00
   22   30   30     -9.97      0.00
   24   30   30    -23.22      0.00
   26   30   30     11.26      0.00
    1    0   31      9.41      0.00
    3    0   31    -16.83      0.00
    5    0   31    -14.66      0.00
    7    0   31      5.94      0.00
    9    0   31     25.24      0.00
   11    0   31      6.42      0.00
   13    0   31     10.55      0.00
   15    0   31    -17.52      0.00
   17    0   31      5.78      0.00
   19    0   31      1.69      0.00
   21    0   31     11.70      0.00
   23    0   31      0.38      0.00
   25    0   31      2.75      0.00
   27    0   31     -0.62      0.00
   29    0   31     -1.30      0.00
    0    1   31      8.20      0.00
    2    1   31    -13.93      0.00
    4    1   31      3.59      0.00
    6    1   31     -8.02      0.00
    8    1   31     -2.65      0.00
   10    1   31      4.39      0.00
   12    1   31      3.67      0.00
   14    1   31     -4.22      0.00
   16    1   31     -2.51      0.00
   18    1   31    -11.05      0.00
   20    1   31     -2.66      0.00
   22    1   31     15.46      0.00
   24    1   31     -3.01      0.00
   26    1   31    -11.82      0.00
   28    1   31    -21.98      0.00
   30    1   31     31.85      0.00
    1    2   31     18.24      0.00
    3    2   31     -1.78      0.00
    5    2   31      5.22      0.00
    7    2   31     -6.53      0.00
    9    2   31     -7.81      0.00
   11    2   31     -4.82      0.00
   13    2   31     -6.90      0.00
   15    2   31     -4.17      0.00
   17    2   31      3.67      0.00
   19    2   31     -3.21      0.00
   21    2   31     -0.50      0.00
   23    2   31    -16.60      0.00
   25    2   31     -7.56      0.00
   27    2   31     -2.35      0.00
   29    2   31     -4.63      0.00
    0    3   31      1.60      0.00
    2    3   31    -17.61      0.00
    4    3   31    -16.23      0.00
    6    3   31      7.73      0.00
    8    3   31      3.93      0.00
   10    3   31      3.30      0.00
   12    3   31      1.36      0.00
   14    3   31     -8.17      0.00
   16    3   31      6.93      0.00
   18    3   31    -10.51      0.00
   20    3   31    -21.13      0.00
   22    3   31      6.34      0.00
   24    3   31     -6.69      0.00
   26    3   31    -22.69      0.00
   28    3   31    -15.51      0.00
   30    3   31     -1.15      0.00
    1    4   31     -4.21      0.00
    3    4   31     -8.41      0.00
    5    4   31     -3.86      0.00
    7    4   31      2.87      0.00
    9    4   31    -24.56      0.00
   11    4   31     -8.24      0.00
   13    4   31     -6.73      0.00
   15    4   31     -6.13      0.00
   17    4   31     -1.40      0.00
   19    4   31     -7.92      0.00
   21    4   31     -7.88      0.00
   23    4   31     -0.07      0.00
   25    4   31     -7.80      0.00
   27    4   31    -11.10      0.00
   29    4   31    -19.45      0.00
    0    5   31     13.96      0.00
    2    5   31     19.29      0.00
    4    5   31     -7.28      0.00
    6    5   31     -1.03      0.00
    8    5   31      1.92      0.00
   10    5   31     -7.06      0.00
   12    5   31      0.38      0.00
   14    5   31      8.00      0.00
   16    5   31      4.77      0.00
   18    5   31     -6.71      0.00
   20    5   31    -15.90      0.00
   22    5   31     -8.31      0.00
   24    5   31     -1.29      0.00
   26    5   31      1.91      0.00
   28    5   31     -2.52      0.00
   30    5   31      0.11      0.00
    1    6   31      3.51      0.00
    3    6   31     11.83      0.00
    5    6   31    -13.20      0.00
    7    6   31     15.73      0.00
    9    6   31     -9.27      0.00
   11    6   31     -2.80      0.00
   13    6   31     14.28      0.00
   15    6   31      7.54      0.00
   17    6   31      1.46      0.00
   19    6   31      9.74      0.00
   21    6   31      2.84      0.00
   23    6   31     13.86      0.00
   25    6   31      1.02      0.00
   27    6   31     -0.07      0.00
   29    6   31      0.52      0.00
    0    7   31    -10.29      0.00
    2    7   31      8.65      0.00
    4    7   31     -8.91      0.00
    6    7   31      3.09      0.00
    8    7   31     -0.93      0.00
   10    7   31     -5.69      0.00
   12    7   31    -16.58      0.00
   14    7   31     -9.29      0.00
   16    7   31      7.88      0.00
   18    7   31     -3.01      0.00
   20    7   31    -25.89      0.00
   22    7   31     -7.35      0.00
   24    7   31     -7.00      0.00
   26    7   31    -19.94      0.00
   28    7   31     -0.74      0.00
   30    7   31      0.15      0.00
    1    8   31     -5.33      0.00
    3    8   31     -6.99      0.00
    5    8   31    -22.82      0.00
    7    8   31     -3.26      0.00
    9    8   31     -6.83      0.00
   11    8   31      5.75      0.00
   13    8   31    -16.43      0.00
   15    8   31      0.64      0.00
   17    8   31    -12.80      0.00
   19    8   31    -19.61      0.00
   21    8   31     -8.74      0.00
   23    8   31     -0.59      0.00
   25    8   31     -2.37      0.00
   27    8   31    -12.64      0.00
   29    8   31     -8.28      0.00
    0    9   31    -13.97      0.00
    2    9   31      4.22      0.00
    4    9   31     -0.11      0.00
    6    9   31      2.33      0.00
    8    9   31     -3.19      0.00
   10    9   31     11.62      0.00
   12    9   31    -11.00      0.00
   14    9   31    -26.79      0.00
   16    9   31     -1.63      0.00
   18    9   31    -14.58      0.00
   20    9   31     -6.30      0.00
   22    9   31     21.60      0.00
   24    9   31      1.33      0.00
   26    9   31     -5.55      0.00
   28    9   31      5.19      0.00
   30    9   31      4.37      0.00
    1   10   31     12.96      0.00
    3   10   31      6.18      0.00
    5   10   31    -13.15      0.00
    7   10   31     -3.03      0.00
    9   10   31     -0.87      0.00
   11   10   31      2.36      0.00
   13   10   31     -6.95      0.00
   15   10   31      7.06      0.00
   17   10   31      5.84      0.00
   19   10   31     -7.97      0.00
   21   10   31      7.44      0.00
   23   10   31     -0.76      0.00
   25   10   31     -4.49      0.00
   27   10   31    -10.89      0.00
   29   10   31      8.61      0.00
    0   11   31    -11.67      0.00
    2   11   31      4.14      0.00
    4   11   31     16.89      0.00
    6   11   31      2.73      0.00
    8   11   31      6.47      0.00
   10   11   31     -2.46      0.00
   12   11   31     -2.54      0.00
   14   11   31    -13.02      0.00
   16   11   31    -15.43      0.00
   18   11   31     -3.07      0.00
   20   11   31      3.65      0.00
   22   11   31      0.78      0.00
   24   11   31     -8.20      0.00
   26   11   31      5.29      0.00
   28   11   31     -7.01      0.00
   30   11   31     18.42      0.00
    1   12   31      7.31      0.00
    3   12   31      1.73      0.00
    5   12   31      5.15      0.00
    7   12   31      2.25      0.00
    9   12   31     -5.67      0.00
   11   12   31     -9.32      0.00
   13   12   31      0.84      0.00
   15   12   31    -21.69      0.00
   17   12   31     -7.12      0.00
   19   12   31      8.66      0.00
   21   12   31      9.86      0.00
   23   12   31     -6.96      0.00
   25   12   31      2.44      0.00
   27   12   31    -12.10      0.00
   29   12   31     -0.61      0.00
    0   13   31      3.96      0.00
    2   13   31    -15.50      0.00
    4   13   31      5.84      0.00
    6   13   31     -5.32      0.00
    8   13   31     -1.84      0.00
   10   13   31      5.80      0.00
   12   13   31      9.37      0.00
   14   13   31    -18.27      0.00
   16   13   31    -16.52      0.00
   18   13   31     -2.47      0.00
   20   13   31     -9.43      0.00
   22   13   31     10.48      0.00
   24   13   31     -3.06      0.00
   26   13   31     -6.44      0.00
   28   13   31     10.54      0.00
   30   13   31     19.39      0.00
    1   14   31     -8.91      0.00
    3   14   31    -10.25      0.00
    5   14   31     12.67      0.00
    7   14   31     -5.38      0.00
    9   14   31     -9.17      0.00
   11   14   31     -6.62      0.00
   13   14   31     -2.63      0.00
   15   14   31    -11.52      0.00
   17   14   31      4.14      0.00
   19   14   31     -0.46      0.00
   21   14   31      2.97      0.00
   23   14   31     -4.27      0.00
   25   14   31     -0.14      0.00
   27   14   31    -17.78      0.00
   29   14   31    -13.33      0.00
    0   15   31     -4.63      0.00
    2   15   31    -18.59      0.00
    4   15   31      6.45      0.00
    6   15   31     -3.59      0.00
    8   15   31      0.09      0.00
   10   15   31      2.85      0.00
   12   15   31      2.90      0.00
   14   15   31    -11.71      0.00
   16   15   31      2.84      0.00
   18   15   31    -12.46      0.00
   20   15   31    -14.58      0.00
   22   15   31      0.46      0.00
   24   15   31     -2.15      0.00
   26   15   31      1.37      0.00
   28   15   31      7.91      0.00
   30   15   31      6.31      0.00
    1   16   31     -3.92      0.00
    3   16   31     -8.70      0.00
    5   16   31     -2.25      0.00
    7   16   31      2.10      0.00
    9   16   31      3.85      0.00
   11   16   31     -1.64      0.00
   13   16   31     -0.65      0.00
   15   16   31     -2.51      0.00
   17   16   31     -9.16      0.00
   19   16   31     -8.80      0.00
   21   16   31      4.64      0.00
   23   16   31     12.67      0.00
   25   16   31      3.65      0.00
   27   16   31    -11.63      0.00
   29   16   31     -4.18      0.00
    0   17   31      5.77      0.00
    2   17   31      5.10      0.00
    4   17   31     -2.70      0.00
    6   17   31     -4.91      0.00
    8   17   31     20.27      0.00
   10   17   31     -0.64      0.00
   12   17   31     11.46      0.00
   14   17   31     12.66      0.00
   16   17   31      0.30      0.00
   18   17   31     -7.01      0.00
   20   17   31     -7.88      0.00
   22   17   31     -4.44      0.00
   24   17   31     18.11      0.00
   26   17   31     -1.03      0.00
   28   17   31      4.46      0.00
   30   17   31      6.96      0.00
    1   18   31      9.04      0.00
    3   18   31      5.34      0.00
    5   18   31     10.26      0.00
    7   18   31     10.65      0.00
    9   18   31    -23.57      0.00
   11   18   31     -7.45      0.00
   13   18   31     -2.29      0.00
   15   18   31     -9.99      0.00
   17   18   31     -6.76      0.00
   19   18   31     14.49      0.00
   21   18   31    -18.68      0.00
   23   18   31     -3.14      0.00
   25   18   31     12.06      0.00
   27   18   31     -6.32      0.00
   29   18   31     -2.20      0.00
    0   19   31     -5.41      0.00
    2   19   31     -1.89      0.00
    4   19   31     -4.27      0.00
    6   19   31     -5.69      0.00
    8   19   31      8.06      0.00
   10   19   31      9.86      0.00
   12   19   31      5.55      0.00
   14   19   31     -5.09      0.00
   16   19   31      6.12      0.00
   18   19   31     -1.22      0.00
   20   19   31    -20.32      0.00
   22   19   31      3.08      0.00
   24   19   31     15.91      0.00
   26   19   31    -16.89      0.00
   28   19   31      1.37      0.00
   30   19   31      6.88      0.00
    1   20   31     -9.91      0.00
    3   20   31     26.20      0.00
    5   20   31     25.02      0.00
    7   20   31     16.21      0.00
    9   20   31    -10.82      0.00
   11   20   31    -10.88      0.00
   13   20   31    -18.52      0.00
   15   20   31      5.12      0.00
   17   20   31     10.69      0.00
   19   20   31     12.62      0.00
   21   20   31     -4.12      0.00
   23   20   31     -4.62      0.00
   25   20   31    -15.34      0.00
   27   20   31     17.43      0.00
   29   20   31      3.08      0.00
    0   21   31     -3.54      0.00
    2   21   31     -4.17      0.00
    4   21   31     -8.87      0.00
    6   21   31    -10.10      0.00
    8   21   31     -1.09      0.00
   10   21   31      3.46      0.00
   12   21   31     -0.42      0.00
   14   21   31      0.03      0.00
   16   21   31      5.39      0.00
   18   21   31     -9.25      0.00
   20   21   31     -7.25      0.00
   22   21   31      1.19      0.00
   24   21   31    -14.32      0.00
   26   21   31     -1.11      0.00
   28   21   31      6.40      0.00
   30   21   31     -8.54      0.00
    1   22   31      1.87      0.00
    3   22   31      1.19      0.00
    5   22   31     12.07      0.00
    7   22   31     12.77      0.00
    9   22   31     -0.11      0.00
   11   22   31     -5.54      0.00
   13   22   31    -20.68      0.00
   15   22   31     11.51      0.00
   17   22   31      7.85      0.00
   19   22   31     -2.35      0.00
   21   22   31    -10.82      0.00
   23   22   31     -6.25      0.00
   25   22   31    -10.85      0.00
   27   22   31      7.26      0.00
   29   22   31     -3.84      0.00
    0   23   31     -8.28      0.00
    2   23   31      0.77      0.00
    4   23   31     -5.69      0.00
    6   23   31    -11.33      0.00
    8   23   31      7.23      0.00
   10   23   31     -3.47      0.00
   12   23   31     -5.29      0.00
   14   23   31      1.78      0.00
   16   23   31      1.94      0.00
   18   23   31      3.77      0.00
   20   23   31      0.50      0.00
   22   23   31    -10.92      0.00
   24   23   31    -18.22      0.00
   26   23   31     -3.23      0.00
   28   23   31     -0.09      0.00
   30   23   31    -14.06      0.00
    1   24   31      4.28      0.00
    3   24   31     -7.52      0.00
    5   24   31      0.30      0.00
    7   24   31      5.02      0.00
    9   24   31    -13.42      0.00
   11   24   31    -12.19      0.00
   13   24   31      4.48      0.00
   15   24   31     17.33      0.00
   17   24   31      6.28      0.00
   19   24   31    -13.54      0.00
   21   24   31    -21.78      0.00
   23   24   31     -3.40      0.00
   25   24   31     22.54      0.00
   27   24   31     -2.23      0.00
   29   24   31    -11.96      0.00
    0   25   31    -21.65      0.00
    2   25   31     -8.49      0.00
    4   25   31     15.09      0.00
    6   25   31      5.31      0.00
    8   25   31      2.44      0.00
   10   25   31      9.42      0.00
   12   25   31      4.21      0.00
   14   25   31    -18.06      0.00
   16   25   31     -3.13      0.00
   18   25   31     20.63      0.00
   20   25   31     -2.28      0.00
   22   25   31    -13.29      0.00
   24   25   31      9.77      0.00
   26   25   31      1.59      0.00
   28   25   31    -15.79      0.00
    1   26   31     14.11      0.00
    3   26   31      9.72      0.00
    5   26   31    -11.44      0.00
    7   26   31    -12.88      0.00
    9   26   31      4.46      0.00
   11   26   31      2.98      0.00
   13   26   31      4.49      0.00
   15   26   31    -19.61      0.00
   17   26   31     -1.30      0.00
   19   26   31      3.29      0.00
   21   26   31      2.40      0.00
   23   26   31     15.82      0.00
   25   26   31     39.58      0.00
   27   26   31     18.97      0.00
   29   26   31     14.41      0.00
    0   27   31     -8.31      0.00
    2   27   31    -12.83      0.00
    4   27   31     -6.44      0.00
    6   27   31      2.31      0.00
    8   27   31      1.43      0.00
   10   27   31    -16.71      0.00
   12   27   31     -4.45      0.00
   14   27   31     -0.76      0.00
   16   27   31    -11.77      0.00
   18   27   31      0.76      0.00
   20   27   31     -7.92      0.00
   22   27   31     -0.54      0.00
   24   27   31      4.49      0.00
   26   27   31     -9.88      0.00
   28   27   31    -24.00      0.00
    1   28   31     10.11      0.00
    3   28   31    -14.39      0.00
    5   28   31      1.79      0.00
    7   28   31     -4.14      0.00
    9   28   31     20.43      0.00
   11   28   31     14.70      0.00
   13   28   31      1.86      0.00
   15   28   31    -14.45      0.00
   17   28   31     -5.41      0.00
   19   28   31      2.25      0.00
   21   28   31    -10.06      0.00
   23   28   31    -13.78      0.00
   25   28   31      6.46      0.00
   27   28   31     -0.57      0.00
    0   29   31     16.67      0.00
    2   29   31      3.47      0.00
    4   29   31     -4.98      0.00
    6   29   31      1.45      0.00
    8   29   31      5.82      0.00
   10   29   31     -1.42      0.00
   12   29   31     -2.65      0.00
   14   29   31     13.82      0.00
   16   29   31    -10.07      0.00
   18   29   31     -8.78      0.00
   20   29   31     -4.89      0.00
   22   29   31     -2.85      0.00
   24   29   31     -0.73      0.00
   26   29   31      7.58      0.00
    1   30   31     -1.82      0.00
    3   30   31    -21.76      0.00
    5   30   31    -12.84      0.00
    7   30   31     -1.93      0.00
    9   30   31      8.18      0.00
   11   30   31      4.39      0.00
   13   30   31     11.19      0.00
   15   30   31     -0.71      0.00
   17   30   31     -2.21      0.00
   19   30   31      9.95      0.00
   21   30   31     12.37      0.00
   23   30   31     -0.96      0.00
    0   31   31      9.41      0.00
    2   31   31      8.24      0.00
    4   31   31     -4.64      0.00
    6   31   31     -3.37      0.00
    8   31   31    -11.65      0.00
   10   31   31      6.16      0.00
   12   31   31      5.30      0.00
   14   31   31     -3.31      0.00
   16   31   31     -9.82      0.00
   18   31   31     -6.43      0.00
   20   31   31     -4.17      0.00
   22   31   31     -4.65      0.00
    0    0   32     47.31      0.00
    2    0   32     -2.53      0.00
    4    0   32     44.45      0.00
    6    0   32     22.87      0.00
    8    0   32     16.79      0.00
   10    0   32    -10.69      0.00
   12    0   32      3.26      0.00
   14    0   32    -15.51      0.00
   16    0   32      6.96      0.00
   18    0   32    -11.50      0.00
   20    0   32      0.26      0.00
   22    0   32     -6.37      0.00
   24    0   32     10.49      0.00
   26    0   32     13.81      0.00
   28    0   32     31.49      0.00
   30    0   32    -26.21      0.00
    1    1   32     13.83      0.00
    3    1   32     -3.29      0.00
    5    1   32     -5.94      0.00
    7    1   32     -1.95      0.00
    9    1   32     -1.11      0.00
   11    1   32     -0.10      0.00
   13    1   32    -16.19      0.00
   15    1   32      1.18      0.00
   17    1   32     22.98      0.00
   19    1   32      4.98      0.00
   21    1   32      5.78      0.00
   23    1   32     11.67      0.00
   25    1   32    -13.31      0.00
   27    1   32    -10.50      0.00
   29    1   32     -3.05      0.00
   31    1   32     -2.53      0.00
    0    2   32     -1.17      0.00
    2    2   32    -25.07      0.00
    4    2   32      1.72      0.00
    6    2   32      8.99      0.00
    8    2   32     23.40      0.00
   10    2   32    -22.52      0.00
   12    2   32      9.17      0.00
   14    2   32    -12.34      0.00
   16    2   32     15.26      0.00
   18    2   32     21.68      0.00
   20    2   32      6.05      0.00
   22    2   32     10.12      0.00
   24    2   32      5.94      0.00
   26    2   32    -23.50      0.00
   28    2   32     -4.20      0.00
   30    2   32    -37.91      0.00
    1    3   32     -4.65      0.00
    3    3   32      0.64      0.00
    5    3   32      1.50      0.00
    7    3   32     20.50      0.00
    9    3   32      1.68      0.00
   11    3   32     11.24      0.00
   13    3   32      3.77      0.00
   15    3   32     -6.84      0.00
   17    3   32      0.60      0.00
   19    3   32     -6.96      0.00
   21    3   32      2.29      0.00
   23    3   32     10.37      0.00
   25    3   32      1.72      0.00
   27    3   32      0.32      0.00
   29    3   32      8.28      0.00
   31    3   32      2.80      0.00
    0    4   32     31.40      0.00
    2    4   32     16.83      0.00
    4    4   32     -8.20      0.00
    6    4   32    -14.78      0.00
    8    4   32      7.02      0.00
   10    4   32     -6.64      0.00
   12    4   32     11.73      0.00
   14    4   32    -10.15      0.00
   16    4   32    -14.90      0.00
   18    4   32    -12.04      0.00
   20    4   32     -4.86      0.00
   22    4   32      1.91      0.00
   24    4   32      1.86      0.00
   26    4   32     -7.60      0.00
   28    4   32     -2.12      0.00
   30    4   32     -0.10      0.00
    1    5   32     -4.80      0.00
    3    5   32    -10.17      0.00
    5    5   32     -5.92      0.00
    7    5   32     22.22      0.00
    9    5   32      1.57      0.00
   11    5   32      6.39      0.00
   13    5   32     -5.84      0.00
   15    5   32     -0.40      0.00
   17    5   32     -3.86      0.00
   19    5   32     -2.26      0.00
   21    5   32     -1.41      0.00
   23    5   32      6.68      0.00
   25    5   32      2.08      0.00
   27    5   32      4.46      0.00
   29    5   32     -3.95      0.00
   31    5   32      4.23      0.00
    0    6   32     13.84      0.00
    2    6   32      7.73      0.00
    4    6   32    -26.23      0.00
    6    6   32    -18.07      0.00
    8    6   32     -7.04      0.00
   10    6   32      6.48      0.00
   12    6   32     23.70      0.00
   14    6   32     22.67      0.00
   16    6   32     13.69      0.00
   18    6   32      4.37      0.00
   20    6   32     16.39      0.00
   22    6   32      8.38      0.00
   24    6   32      9.04      0.00
   26    6   32     10.91      0.00
   28    6   32     -0.17      0.00
   30    6   32     -3.65      0.00
    1    7   32      2.38      0.00
    3    7   32      7.51      0.00
    5    7   32    -13.66      0.00
    7    7   32      6.04      0.00
    9    7   32     -8.65      0.00
   11    7   32      2.24      0.00
   13    7   32    -14.79      0.00
   15    7   32      1.39      0.00
   17    7   32      0.57      0.00
   19    7   32      6.48      0.00
   21    7   32      2.28      0.00
   23    7   32     -4.97      0.00
   25    7   32     -6.94      0.00
   27    7   32      8.68      0.00
   29    7   32     -6.98      0.00
   31    7   32      1.73      0.00
    0    8   32     21.61      0.00
    2    8   32     21.47      0.00
    4    8   32    -16.71      0.00
    6    8   32     -2.47      0.00
    8    8   32     -5.03      0.00
   10    8   32     -6.75      0.00
   12    8   32      5.01      0.00
   14    8   32     -6.91      0.00
   16    8   32      2.88      0.00
   18    8   32     -0.90      0.00
   20    8   32    -17.68      0.00
   22    8   32     -1.28      0.00
   24    8   32      5.05      0.00
   26    8   32      6.12      0.00
   28    8   32     12.28      0.00
   30    8   32    -19.25      0.00
    1    9   32      0.71      0.00
    3    9   32      1.10      0.00
    5    9   32      2.92      0.00
    7    9   32     -1.72      0.00
    9    9   32     -0.35      0.00
   11    9   32     11.65      0.00
   13    9   32    -12.03      0.00
   15    9   32      2.61      0.00
   17    9   32      4.85      0.00
   19    9   32    -18.92      0.00
   21    9   32    -11.32      0.00
   23    9   32      5.36      0.00
   25    9   32     -2.61      0.00
   27    9   32     -7.61      0.00
   29    9   32     -0.30      0.00
   31    9   32      0.46      0.00
    0   10   32     19.41      0.00
    2   10   32      7.46      0.00
    4   10   32      9.15      0.00
    6   10   32     15.67      0.00
    8   10   32     -3.64      0.00
   10   10   32     -4.20      0.00
   12   10   32     -9.06      0.00
   14   10   32     -2.61      0.00
   16   10   32      2.27      0.00
   18   10   32     12.17      0.00
   20   10   32     19.69      0.00
   22   10   32     -5.60      0.00
   24   10   32      2.69      0.00
   26   10   32      3.27      0.00
   28   10   32    -11.54      0.00
   30   10   32     -9.09      0.00
    1   11   32     17.63      0.00
    3   11   32     -9.25      0.00
    5   11   32      4.22      0.00
    7   11   32     -3.12      0.00
    9   11   32      2.88      0.00
   11   11   32     -4.04      0.00
   13   11   32     -2.01      0.00
   15   11   32     13.58      0.00
   17   11   32     -3.20      0.00
   19   11   32     -6.31      0.00
   21   11   32      5.63      0.00
   23   11   32     19.02      0.00
   25   11   32     11.72      0.00
   27   11   32     -1.83      0.00
   29   11   32     15.66      0.00
   31   11   32      9.56      0.00
    0   12   32     20.11      0.00
    2   12   32     15.39      0.00
    4   12   32     18.06      0.00
    6   12   32     23.55      0.00
    8   12   32      6.39      0.00
   10   12   32    -20.11      0.00
   12   12   32    -10.93      0.00
   14   12   32     -1.20      0.00
   16   12   32     -6.00      0.00
   18   12   32      7.26      0.00
   20   12   32     -1.62      0.00
   22   12   32    -25.11      0.00
   24   12   32     -6.48      0.00
   26   12   32    -20.58      0.00
   28   12   32     -3.29      0.00
   30   12   32     -3.26      0.00
    1   13   32      1.74      0.00
    3   13   32      0.18      0.00
    5   13   32      0.08      0.00
    7   13   32     14.59      0.00
    9   13   32      2.49      0.00
   11   13   32     -7.64      0.00
   13   13   32     -6.01      0.00
   15   13   32    -16.83      0.00
   17   13   32     -9.58      0.00
   19   13   32     -3.04      0.00
   21   13   32     -3.53      0.00
   23   13   32      1.49      0.00
   25   13   32     -8.00      0.00
   27   13   32     -3.85      0.00
   29   13   32      6.09      0.00
   31   13   32      3.85      0.00
    0   14   32     -7.06      0.00
    2   14   32     -3.78      0.00
    4   14   32     -1.85      0.00
    6   14   32     12.77      0.00
    8   14   32      5.11      0.00
   10   14   32    -13.26      0.00
   12   14   32     -6.87      0.00
   14   14   32    -12.29      0.00
   16   14   32      3.91      0.00
   18   14   32     12.19      0.00
   20   14   32     -8.01      0.00
   22   14   32      8.38      0.00
   24   14   32      2.70      0.00
   26   14   32    -18.08      0.00
   28   14   32      9.22      0.00
   30   14   32    -12.62      0.00
    1   15   32    -15.25      0.00
    3   15   32     -4.49      0.00
    5   15   32     -1.02      0.00
    7   15   32     -1.80      0.00
    9   15   32      3.23      0.00
   11   15   32      5.54      0.00
   13   15   32      2.44      0.00
   15   15   32      1.76      0.00
   17   15   32      6.12      0.00
   19   15   32      9.30      0.00
   21   15   32      4.69      0.00
   23   15   32     -8.53      0.00
   25   15   32    -33.57      0.00
   27   15   32     -8.82      0.00
   29   15   32      8.95      0.00
   31   15   32      5.50      0.00
    0   16   32      8.06      0.00
    2   16   32      8.97      0.00
    4   16   32     -2.92      0.00
    6   16   32     16.76      0.00
    8   16   32      0.02      0.00
   10   16   32     -7.09      0.00
   12   16   32     -4.55      0.00
   14   16   32      9.04      0.00
   16   16   32    -15.00      0.00
   18   16   32     -2.27      0.00
   20   16   32      7.80      0.00
   22   16   32     -4.91      0.00
   24   16   32     -9.65      0.00
   26   16   32     -0.56      0.00
   28   16   32     -9.02      0.00
   30   16   32    -15.97      0.00
    1   17   32     -3.17      0.00
    3   17   32    -10.42      0.00
    5   17   32     -8.79      0.00
    7   17   32      3.13      0.00
    9   17   32      5.00      0.00
   11   17   32      2.22      0.00
   13   17   32    -11.01      0.00
   15   17   32     -4.07      0.00
   17   17   32    -16.70      0.00
   19   17   32      4.64      0.00
   21   17   32     15.53      0.00
   23   17   32     17.78      0.00
   25   17   32      1.92      0.00
   27   17   32      3.49      0.00
   29   17   32     -8.73      0.00
   31   17   32      5.02      0.00
    0   18   32     -3.08      0.00
    2   18   32     20.88      0.00
    4   18   32    -13.81      0.00
    6   18   32      7.40      0.00
    8   18   32     -2.07      0.00
   10   18   32      9.20      0.00
   12   18   32     11.16      0.00
   14   18   32     18.88      0.00
   16   18   32     -4.07      0.00
   18   18   32      2.81      0.00
   20   18   32      2.62      0.00
   22   18   32     28.46      0.00
   24   18   32      5.69      0.00
   26   18   32    -23.53      0.00
   28   18   32     -8.74      0.00
   30   18   32    -10.81      0.00
    1   19   32      6.80      0.00
    3   19   32     13.93      0.00
    5   19   32      7.71      0.00
    7   19   32     19.52      0.00
    9   19   32      2.83      0.00
   11   19   32     -0.25      0.00
   13   19   32     -2.33      0.00
   15   19   32      8.61      0.00
   17   19   32      3.35      0.00
   19   19   32     -8.37      0.00
   21   19   32    -12.26      0.00
   23   19   32     14.26      0.00
   25   19   32      5.11      0.00
   27   19   32    -13.48      0.00
   29   19   32    -22.26      0.00
   31   19   32     -9.62      0.00
    0   20   32     -1.80      0.00
    2   20   32      7.28      0.00
    4   20   32    -10.94      0.00
    6   20   32     20.43      0.00
    8   20   32     -5.85      0.00
   10   20   32     15.33      0.00
   12   20   32     -2.41      0.00
   14   20   32     -3.95      0.00
   16   20   32     -1.48      0.00
   18   20   32      3.68      0.00
   20   20   32    -35.37      0.00
   22   20   32    -11.30      0.00
   24   20   32     26.80      0.00
   26   20   32     -3.61      0.00
   28   20   32     -6.63      0.00
   30   20   32      5.52      0.00
    1   21   32    -12.14      0.00
    3   21   32     -2.16      0.00
    5   21   32      3.02      0.00
    7   21   32      2.41      0.00
    9   21   32     13.64      0.00
   11   21   32      4.69      0.00
   13   21   32     -3.20      0.00
   15   21   32     -3.26      0.00
   17   21   32     -7.61      0.00
   19   21   32     -0.39      0.00
   21   21   32    -11.58      0.00
   23   21   32     -6.50      0.00
   25   21   32     -0.97      0.00
   27   21   32    -19.12      0.00
   29   21   32     -5.37      0.00
   31   21   32    -10.27      0.00
    0   22   32      8.93      0.00
    2   22   32      4.30      0.00
    4   22   32    -19.28      0.00
    6   22   32     16.48      0.00
    8   22   32      6.55      0.00
   10   22   32     -5.86      0.00
   12   22   32    -17.53      0.00
   14   22   32      3.72      0.00
   16   22   32     -3.69      0.00
   18   22   32      0.75      0.00
   20   22   32    -16.55      0.00
   22   22   32    -27.49      0.00
   24   22   32      1.21      0.00
   26   22   32     17.70      0.00
   28   22   32      6.53      0.00
   30   22   32    -13.01      0.00
    1   23   32      1.72      0.00
    3   23   32     -8.26      0.00
    5   23   32      6.91      0.00
    7   23   32     -2.83      0.00
    9   23   32     -8.42      0.00
   11   23   32     -6.03      0.00
   13   23   32      2.09      0.00
   15   23   32     10.05      0.00
   17   23   32      5.41      0.00
   19   23   32     -2.18      0.00
   21   23   32    -14.37      0.00
   23   23   32    -37.32      0.00
   25   23   32     -6.89      0.00
   27   23   32     -5.33      0.00
   29   23   32    -10.84      0.00
    0   24   32     -3.88      0.00
    2   24   32     -7.11      0.00
    4   24   32     -2.10      0.00
    6   24   32     10.05      0.00
    8   24   32     -3.13      0.00
   10   24   32      1.22      0.00
   12   24   32     -3.59      0.00
   14   24   32     -4.34      0.00
   16   24   32      7.90      0.00
   18   24   32     12.26      0.00
   20   24   32    -10.32      0.00
   22   24   32     -3.37      0.00
   24   24   32      5.95      0.00
   26   24   32     18.35      0.00
   28   24   32     14.59      0.00
    1   25   32     -7.05      0.00
    3   25   32     -6.76      0.00
    5   25   32     -3.53      0.00
    7   25   32    -18.33      0.00
    9   25   32     -8.97      0.00
   11   25   32     -7.38      0.00
   13   25   32      1.81      0.00
   15   25   32     -7.18      0.00
   17   25   32     -4.44      0.00
   19   25   32    -16.28      0.00
   21   25   32     -2.37      0.00
   23   25   32     -2.86      0.00
   25   25   32      4.86      0.00
   27   25   32      6.86      0.00
    0   26   32     30.85      0.00
    2   26   32     -2.81      0.00
    4   26   32      5.43      0.00
    6   26   32      6.07      0.00
    8   26   32    -12.08      0.00
   10   26   32      5.45      0.00
   12   26   32     10.17      0.00
   14   26   32     -0.02      0.00
   16   26   32      1.40      0.00
   18   26   32     17.18      0.00
   20   26   32     -4.03      0.00
   22   26   32      3.70      0.00
   24   26   32     11.65      0.00
   26   26   32      0.37      0.00
    1   27   32    -19.68      0.00
    3   27   32     -4.91      0.00
    5   27   32      2.33      0.00
    7   27   32    -17.02      0.00
    9   27   32     -0.90      0.00
   11   27   32      6.22      0.00
   13   27   32      9.64      0.00
   15   27   32     -3.35      0.00
   17   27   32     -2.10      0.00
   19   27   32     -1.45      0.00
   21   27   32     10.81      0.00
   23   27   32     11.83      0.00
   25   27   32     16.77      0.00
   27   27   32      5.51      0.00
    0   28   32     26.57      0.00
    2   28   32     10.78      0.00
    4   28   32    -14.35      0.00
    6   28   32     -8.82      0.00
    8   28   32     -0.16      0.00
   10   28   32    -21.12      0.00
   12   28   32      5.12      0.00
   14   28   32      3.37      0.00
   16   28   32    -11.28      0.00
   18   28   32    -14.66      0.00
   20   28   32    -13.74      0.00
   22   28   32     10.66      0.00
   24   28   32      1.52      0.00
    1   29   32     -6.35      0.00
    3   29   32     -0.53      0.00
    5   29   32     -6.25      0.00
    7   29   32      4.58      0.00
    9   29   32    -11.16      0.00
   11   29   32     -3.87      0.00
   13   29   32     -0.79      0.00
   15   29   32      2.90      0.00
   17   29   32     -2.14      0.00
   19   29   32     -0.06      0.00
   21   29   32     21.81      0.00
   23   29   32     -5.71      0.00
    0   30   32    -19.35      0.00
    2   30   32    -11.02      0.00
    4   30   32      7.22      0.00
    6   30   32      2.48      0.00
    8   30   32    -18.10      0.00
   10   30   32     -2.25      0.00
   12   30   32     14.46      0.00
   14   30   32      5.42      0.00
   16   30   32     20.22      0.00
   18   30   32      7.15      0.00
   20   30   32      9.21      0.00
   22   30   32      5.28      0.00
    1   31   32     23.48      0.00
    3   31   32     -3.72      0.00
    5   31   32     -6.61      0.00
    7   31   32    -10.68      0.00
    9   31   32    -21.39      0.00
   11   31   32     -4.07      0.00
   13   31   32    -17.99      0.00
   15   31   32     -3.35      0.00
   17   31   32    -12.73      0.00
   19   31   32      4.94      0.00
   21   31   32     21.18      0.00
    0   32   32      4.14      0.00
    2   32   32    -14.10      0.00
    4   32   32     11.86      0.00
    6   32   32     11.12      0.00
    8   32   32    -23.99      0.00
   10   32   32      2.96      0.00
   12   32   32      8.85      0.00
   14   32   32      5.66      0.00
   16   32   32     17.50      0.00
   18   32   32      1.18      0.00
   20   32   32    -12.31      0.00
    1    0   33     -3.00      0.00
    3    0   33    -24.08      0.00
    5    0   33      9.72      0.00
    7    0   33     -6.19      0.00
    9    0   33      5.66      0.00
   11    0   33    -19.12      0.00
   13    0   33     -4.27      0.00
   15    0   33     17.01      0.00
   17    0   33     -2.26      0.00
   19    0   33     -7.55      0.00
   21    0   33      3.00      0.00
   23    0   33     -4.21      0.00
   25    0   33      5.61      0.00
   27    0   33    -20.24      0.00
   29    0   33    -11.39      0.00
   31    0   33     12.32      0.00
    0    1   33     34.88      0.00
    2    1   33    -15.13      0.00
    4    1   33     10.82      0.00
    6    1   33      1.70      0.00
    8    1   33     -7.55      0.00
   10    1   33      4.98      0.00
   12    1   33     -7.20      0.00
   14    1   33      8.56      0.00
   16    1   33     -5.28      0.00
   18    1   33    -21.04      0.00
   20    1   33     12.29      0.00
   22    1   33    -11.60      0.00
   24    1   33      1.92      0.00
   26    1   33     10.43      0.00
   28    1   33    -26.55      0.00
   30    1   33     -9.66      0.00
   32    1   33    -11.13      0.00
    1    2   33     16.55      0.00
    3    2   33     -1.87      0.00
    5    2   33     22.76      0.00
    7    2   33     -2.22      0.00
    9    2   33      9.35      0.00
   11    2   33      1.95      0.00
   13    2   33      4.96      0.00
   15    2   33     20.46      0.00
   17    2   33      3.76      0.00
   19    2   33      5.45      0.00
   21    2   33      8.99      0.00
   23    2   33     -9.07      0.00
   25    2   33     -1.69      0.00
   27    2   33     -3.53      0.00
   29    2   33      7.02      0.00
   31    2   33      7.29      0.00
    0    3   33     17.17      0.00
    2    3   33     -1.93      0.00
    4    3   33     12.18      0.00
    6    3   33      8.70      0.00
    8    3   33      7.18      0.00
   10    3   33      8.73      0.00
   12    3   33     -9.90      0.00
   14    3   33     -1.40      0.00
   16    3   33      2.53      0.00
   18    3   33     -2.51      0.00
   20    3   33     14.49      0.00
   22    3   33     11.59      0.00
   24    3   33     -3.47      0.00
   26    3   33    -18.03      0.00
   28    3   33     -1.15      0.00
   30    3   33     -3.54      0.00
   32    3   33    -21.48      0.00
    1    4   33      1.82      0.00
    3    4   33     -9.47      0.00
    5    4   33      4.42      0.00
    7    4   33      7.30      0.00
    9    4   33      0.95      0.00
   11    4   33      5.94      0.00
   13    4   33     -3.06      0.00
   15    4   33      0.36      0.00
   17    4   33     -3.91      0.00
   19    4   33     -2.98      0.00
   21    4   33     -3.46      0.00
   23    4   33     -2.00      0.00
   25    4   33     -9.74      0.00
   27    4   33    -14.97      0.00
   29    4   33     -4.54      0.00
   31    4   33     -7.30      0.00
    0    5   33     14.74      0.00
    2    5   33     15.59      0.00
    4    5   33     -1.53      0.00
    6    5   33     -1.59      0.00
    8    5   33      2.42      0.00
   10    5   33     10.99      0.00
   12    5   33     -7.44      0.00
   14    5   33     -0.77      0.00
   16    5   33     -6.35      0.00
   18    5   33    -10.73      0.00
   20    5   33     14.59      0.00
   22    5   33     -1.13      0.00
   24    5   33     -2.90      0.00
   26    5   33     -5.65      0.00
   28    5   33    -10.24      0.00
   30    5   33      6.41      0.00
   32    5   33      7.90      0.00
    1    6   33      8.56      0.00
    3    6   33      5.48      0.00
    5    6   33     -3.98      0.00
    7    6   33     16.20      0.00
    9    6   33     -5.81      0.00
   11    6   33      7.98      0.00
   13    6   33     14.06      0.00
   15    6   33      9.42      0.00
   17    6   33     -4.20      0.00
   19    6   33      8.28      0.00
   21    6   33      0.16      0.00
   23    6   33      3.32      0.00
   25    6   33     -6.91      0.00
   27    6   33    -14.15      0.00
   29    6   33      2.17      0.00
   31    6   33     10.81      0.00
    0    7   33      4.52      0.00
    2    7   33      8.31      0.00
    4    7   33    -18.88      0.00
    6    7   33      0.50      0.00
    8    7   33     -7.72      0.00
   10    7   33     -2.84      0.00
   12    7   33      3.48      0.00
   14    7   33      6.89      0.00
   16    7   33     -8.20      0.00
   18    7   33     -0.82      0.00
   20    7   33      0.69      0.00
   22    7   33     -5.03      0.00
   24    7   33     -3.26      0.00
   26    7   33    -11.61      0.00
   28    7   33    -26.04      0.00
   30    7   33    -22.33      0.00
   32    7   33     10.42      0.00
    1    8   33    -12.76      0.00
    3    8   33      0.78      0.00
    5    8   33    -15.72      0.00
    7    8   33      7.35      0.00
    9    8   33     -0.56      0.00
   11    8   33      0.09      0.00
   13    8   33      0.60      0.00
   15    8   33      4.43      0.00
   17    8   33    -16.54      0.00
   19    8   33    -10.32      0.00
   21    8   33     -0.60      0.00
   23    8   33     -2.51      0.00
   25    8   33     -2.28      0.00
   27    8   33      7.67      0.00
   29    8   33     -8.58      0.00
   31    8   33     -7.66      0.00
    0    9   33      0.06      0.00
    2    9   33     17.48      0.00
    4    9   33     -1.42      0.00
    6    9   33     -4.83      0.00
    8    9   33      2.38      0.00
   10    9   33      6.71      0.00
   12    9   33      2.13      0.00
   14    9   33     13.52      0.00
   16    9   33     -1.73      0.00
   18    9   33    -17.08      0.00
   20    9   33     -8.99      0.00
   22    9   33     -2.65      0.00
   24    9   33    -18.09      0.00
   26    9   33      9.53      0.00
   28    9   33      6.37      0.00
   30    9   33     -6.01      0.00
   32    9   33      8.03      0.00
    1   10   33     13.71      0.00
    3   10   33     12.75      0.00
    5   10   33     -5.99      0.00
    7   10   33     -2.93      0.00
    9   10   33     -3.83      0.00
   11   10   33      0.85      0.00
   13   10   33     -7.23      0.00
   15   10   33      4.65      0.00
   17   10   33      6.81      0.00
   19   10   33    -12.55      0.00
   21   10   33    -17.46      0.00
   23   10   33    -12.99      0.00
   25   10   33    -16.08      0.00
   27   10   33     -4.80      0.00
   29   10   33      6.39      0.00
   31   10   33     -8.30      0.00
    0   11   33      8.74      0.00
    2   11   33     -0.02      0.00
    4   11   33     -2.52      0.00
    6   11   33     -0.31      0.00
    8   11   33      0.79      0.00
   10   11   33      8.16      0.00
   12   11   33      8.79      0.00
   14   11   33      7.11      0.00
   16   11   33      4.29      0.00
   18   11   33      4.18      0.00
   20   11   33     12.04      0.00
   22   11   33     -3.16      0.00
   24   11   33     -0.99      0.00
   26   11   33     16.00      0.00
   28   11   33     -0.68      0.00
   30   11   33     16.62      0.00
   32   11   33      2.16      0.00
    1   12   33     11.44      0.00
    3   12   33      2.77      0.00
    5   12   33      9.77      0.00
    7   12   33     -5.58      0.00
    9   12   33    -13.09      0.00
   11   12   33      3.27      0.00
   13   12   33     -4.35      0.00
   15   12   33     -3.12      0.00
   17   12   33      5.58      0.00
   19   12   33      2.95      0.00
   21   12   33     -1.13      0.00
   23   12   33     -5.24      0.00
   25   12   33      5.92      0.00
   27   12   33      5.48      0.00
   29   12   33     14.91      0.00
   31   12   33     -0.95      0.00
    0   13   33     23.32      0.00
    2   13   33     -7.47      0.00
    4   13   33      3.52      0.00
    6   13   33     -3.30      0.00
    8   13   33     -1.54      0.00
   10   13   33      3.87      0.00
   12   13   33      4.95      0.00
   14   13   33     -8.34      0.00
   16   13   33      1.25      0.00
   18   13   33     -5.19      0.00
   20   13   33     -4.23      0.00
   22   13   33      5.36      0.00
   24   13   33     -0.23      0.00
   26   13   33     -5.03      0.00
   28   13   33     -0.37      0.00
   30   13   33      3.76      0.00
   32   13   33    -11.07      0.00
    1   14   33      6.36      0.00
    3   14   33      5.24      0.00
    5   14   33      5.31      0.00
    7   14   33     -1.96      0.00
    9   14   33      1.88      0.00
   11   14   33     -4.70      0.00
   13   14   33      8.95      0.00
   15   14   33      2.44      0.00
   17   14   33     13.56      0.00
   19   14   33      0.44      0.00
   21   14   33     -3.86      0.00
   23   14   33      1.74      0.00
   25   14   33      5.12      0.00
   27   14   33     -5.19      0.00
   29   14   33     -4.89      0.00
   31   14   33    -16.07      0.00
    0   15   33     10.08      0.00
    2   15   33     -6.89      0.00
    4   15   33     13.12      0.00
    6   15   33    -14.39      0.00
    8   15   33      7.24      0.00
   10   15   33      0.79      0.00
   12   15   33     10.41      0.00
   14   15   33      2.35      0.00
   16   15   33     -1.92      0.00
   18   15   33     -9.85      0.00
   20   15   33    -12.15      0.00
   22   15   33     -9.84      0.00
   24   15   33      0.43      0.00
   26   15   33     -5.59      0.00
   28   15   33     -7.60      0.00
   30   15   33     -0.42      0.00
   32   15   33     18.88      0.00
    1   16   33      4.33      0.00
    3   16   33     -4.04      0.00
    5   16   33    -10.02      0.00
    7   16   33    -12.69      0.00
    9   16   33      5.26      0.00
   11   16   33     -7.03      0.00
   13   16   33     -3.31      0.00
   15   16   33    -11.32      0.00
   17   16   33     -3.08      0.00
   19   16   33     -8.97      0.00
   21   16   33     -7.16      0.00
   23   16   33     16.46      0.00
   25   16   33     -0.40      0.00
   27   16   33    -14.63      0.00
   29   16   33      1.09      0.00
   31   16   33    -12.81      0.00
    0   17   33     11.30      0.00
    2   17   33    -14.32      0.00
    4   17   33     -7.31      0.00
    6   17   33    -15.29      0.00
    8   17   33      3.35      0.00
   10   17   33    -13.06      0.00
   12   17   33     -0.78      0.00
   14   17   33      1.67      0.00
   16   17   33     -0.58      0.00
   18   17   33     -2.21      0.00
   20   17   33      8.29      0.00
   22   17   33     -2.01      0.00
   24   17   33      6.52      0.00
   26   17   33      3.73      0.00
   28   17   33      6.29      0.00
   30   17   33     -3.28      0.00
   32   17   33      9.39      0.00
    1   18   33     11.35      0.00
    3   18   33      4.97      0.00
    5   18   33     -0.42      0.00
    7   18   33     -8.47      0.00
    9   18   33     -7.98      0.00
   11   18   33      7.06      0.00
   13   18   33      6.45      0.00
   15   18   33      9.87      0.00
   17   18   33      5.13      0.00
   19   18   33     -1.92      0.00
   21   18   33     -2.37      0.00
   23   18   33      9.43      0.00
   25   18   33      5.99      0.00
   27   18   33      0.93      0.00
   29   18   33      1.38      0.00
   31   18   33     -5.98      0.00
    0   19   33     12.75      0.00
    2   19   33      4.07      0.00
    4   19   33      7.37      0.00
    6   19   33      5.14      0.00
    8   19   33     26.44      0.00
   10   19   33      6.15      0.00
   12   19   33     -2.30      0.00
   14   19   33     -5.57      0.00
   16   19   33      3.24      0.00
   18   19   33     -9.70      0.00
   20   19   33    -14.40      0.00
   22   19   33      2.70      0.00
   24   19   33      0.38      0.00
   26   19   33     -4.46      0.00
   28   19   33     -3.56      0.00
   30   19   33    -11.34      0.00
   32   19   33      4.61      0.00
    1   20   33     -5.22      0.00
    3   20   33     18.19      0.00
    5   20   33    -19.95      0.00
    7   20   33      1.44      0.00
    9   20   33      4.66      0.00
   11   20   33    -10.36      0.00
   13   20   33      1.87      0.00
   15   20   33      2.82      0.00
   17   20   33      5.40      0.00
   19   20   33     -0.18      0.00
   21   20   33    -12.86      0.00
   23   20   33     -2.13      0.00
   25   20   33    -13.15      0.00
   27   20   33     10.48      0.00
   29   20   33     13.35      0.00
   31   20   33      6.03      0.00
    0   21   33    -20.37      0.00
    2   21   33     -2.40      0.00
    4   21   33      4.58      0.00
    6   21   33      1.07      0.00
    8   21   33     20.36      0.00
   10   21   33     -4.79      0.00
   12   21   33     -4.47      0.00
   14   21   33      7.94      0.00
   16   21   33     -0.70      0.00
   18   21   33      3.91      0.00
   20   21   33    -14.17      0.00
   22   21   33    -17.91      0.00
   24   21   33     -5.30      0.00
   26   21   33     17.59      0.00
   28   21   33     14.79      0.00
   30   21   33      6.20      0.00
    1   22   33     15.99      0.00
    3   22   33      5.25      0.00
    5   22   33    -10.19      0.00
    7   22   33     -4.02      0.00
    9   22   33      1.81      0.00
   11   22   33      3.94      0.00
   13   22   33     -8.94      0.00
   15   22   33      3.76      0.00
   17   22   33      2.85      0.00
   19   22   33     -2.29      0.00
   21   22   33    -20.94      0.00
   23   22   33     -7.30      0.00
   25   22   33    -12.64      0.00
   27   22   33      3.10      0.00
   29   22   33     12.64      0.00
    0   23   33    -16.62      0.00
    2   23   33    -10.21      0.00
    4   23   33     -1.34      0.00
    6   23   33      8.47      0.00
    8   23   33     -7.18      0.00
   10   23   33     -2.55      0.00
   12   23   33    -10.07      0.00
   14   23   33     -9.86      0.00
   16   23   33     -1.04      0.00
   18   23   33     -2.16      0.00
   20   23   33      5.72      0.00
   22   23   33      0.04      0.00
   24   23   33    -22.48      0.00
   26   23   33      4.10      0.00
   28   23   33     22.35      0.00
    1   24   33     10.44      0.00
    3   24   33     -7.18      0.00
    5   24   33      5.92      0.00
    7   24   33      4.12      0.00
    9   24   33    -13.52      0.00
   11   24   33      6.00      0.00
   13   24   33     -1.09      0.00
   15   24   33     23.82      0.00
   17   24   33     11.86      0.00
   19   24   33     -7.85      0.00
   21   24   33     -8.54      0.00
   23   24   33     -6.36      0.00
   25   24   33      5.07      0.00
   27   24   33      0.37      0.00
    0   25   33    -14.47      0.00
    2   25   33     -5.59      0.00
    4   25   33     -0.96      0.00
    6   25   33     -1.12      0.00
    8   25   33     -9.84      0.00
   10   25   33      3.77      0.00
   12   25   33     -5.70      0.00
   14   25   33    -12.48      0.00
   16   25   33    -10.25      0.00
   18   25   33      6.34      0.00
   20   25   33     15.85      0.00
   22   25   33    -12.20      0.00
   24   25   33     -6.43      0.00
   26   25   33     10.23      0.00
    1   26   33     -4.23      0.00
    3   26   33     21.09      0.00
    5   26   33      1.32      0.00
    7   26   33      4.86      0.00
    9   26   33     10.72      0.00
   11   26   33      2.08      0.00
   13   26   33     14.54      0.00
   15   26   33    -11.43      0.00
   17   26   33     -1.16      0.00
   19   26   33     16.29      0.00
   21   26   33     -4.39      0.00
   23   26   33      3.48      0.00
   25   26   33     20.23      0.00
    0   27   33     -7.62      0.00
    2   27   33     -2.37      0.00
    4   27   33    -16.08      0.00
    6   27   33    -17.38      0.00
    8   27   33     13.30      0.00
   10   27   33      8.25      0.00
   12   27   33     15.21      0.00
   14   27   33     14.17      0.00
   16   27   33    -12.93      0.00
   18   27   33     12.67      0.00
   20   27   33      2.72      0.00
   22   27   33     -4.28      0.00
   24   27   33     20.19      0.00
    1   28   33      5.30      0.00
    3   28   33      7.78      0.00
    5   28   33     33.92      0.00
    7   28   33     10.99      0.00
    9   28   33     14.40      0.00
   11   28   33     12.68      0.00
   13   28   33      7.04      0.00
   15   28   33    -12.53      0.00
   17   28   33      7.80      0.00
   19   28   33      9.92      0.00
   21   28   33    -16.36      0.00
   23   28   33     -1.81      0.00
    0   29   33     14.18      0.00
    2   29   33     -7.70      0.00
    4   29   33     -6.55      0.00
    6   29   33     -7.20      0.00
    8   29   33    -12.69      0.00
   10   29   33      5.32      0.00
   12   29   33      2.67      0.00
   14   29   33     -1.42      0.00
   16   29   33     -2.15      0.00
   18   29   33     -2.39      0.00
   20   29   33     -0.04      0.00
   22   29   33     10.78      0.00
    1   30   33     21.46      0.00
    3   30   33    -14.54      0.00
    5   30   33      3.52      0.00
    7   30   33      6.45      0.00
    9   30   33     12.70      0.00
   11   30   33      9.63      0.00
   13   30   33      3.78      0.00
   15   30   33     -6.58      0.00
   17   30   33     -3.21      0.00
   19   30   33     -4.64      0.00
   21   30   33      4.85      0.00
    0   31   33    -11.00      0.00
    2   31   33     -7.10      0.00
    4   31   33      0.16      0.00
    6   31   33     -7.46      0.00
    8   31   33     -7.67      0.00
   10   31   33     -1.70      0.00
   12   31   33     -1.78      0.00
   14   31   33      7.32      0.00
   16   31   33      1.57      0.00
   18   31   33     -4.47      0.00
   20   31   33      4.52      0.00
    1   32   33     17.15      0.00
    3   32   33      4.31      0.00
    5   32   33     -6.08      0.00
    7   32   33      1.42      0.00
    9   32   33      0.74      0.00
   11   32   33      0.60      0.00
   13   32   33     24.00      0.00
   15   32   33     12.32      0.00
   17   32   33     11.19      0.00
   19   32   33      2.74      0.00
    0   33   33    -12.78      0.00
    2   33   33      1.72      0.00
    4   33   33      0.08      0.00
    6   33   33      2.73      0.00
    8   33   33     13.07      0.00
   10   33   33    -14.16      0.00
   12   33   33     -6.60      0.00
   14   33   33      5.54      0.00
   16   33   33      8.58      0.00
    0    0   34     31.54      0.00
    2    0   34    -29.43      0.00
    4    0   34     21.02      0.00
    6    0   34     14.59      0.00
    8    0   34      5.00      0.00
   10    0   34     -8.45      0.00
   12    0   34     -4.52      0.00
   14    0   34    -24.45      0.00
   16    0   34      8.52      0.00
   18    0   34    -20.86      0.00
   20    0   34     -6.06      0.00
   22    0   34     -5.28      0.00
   24    0   34    -15.56      0.00
   26    0   34    -18.02      0.00
   28    0   34     -3.65      0.00
   30    0   34     -5.83      0.00
   32    0   34     18.94      0.00
    1    1   34     -3.32      0.00
    3    1   34     -3.24      0.00
    5    1   34     17.15      0.00
    7    1   34     17.09      0.00
    9    1   34      6.87      0.00
   11    1   34     -1.16      0.00
   13    1   34     -3.47      0.00
   15    1   34     -8.26      0.00
   17    1   34      7.18      0.00
   19    1   34     11.15      0.00
   21    1   34     10.66      0.00
   23    1   34     -2.64      0.00
   25    1   34     -4.83      0.00
   27    1   34     17.37      0.00
   29    1   34      5.20      0.00
   31    1   34    -19.66      0.00
   33    1   34     -2.85      0.00
    0    2   34    -13.69      0.00
    2    2   34    -22.90      0.00
    4    2   34     10.54      0.00
    6    2   34     -3.63      0.00
    8    2   34     17.64      0.00
   10    2   34    -22.65      0.00
   12    2   34      5.52      0.00
   14    2   34      0.20      0.00
   16    2   34     10.82      0.00
   18    2   34     27.53      0.00
   20    2   34     19.88      0.00
   22    2   34     18.59      0.00
   24    2   34     20.26      0.00
   26    2   34    -16.64      0.00
   28    2   34     -9.05      0.00
   30    2   34     -6.33      0.00
   32    2   34      1.06      0.00
    1    3   34     -8.79      0.00
    3    3   34     16.37      0.00
    5    3   34     -7.59      0.00
    7    3   34     -4.48      0.00
    9    3   34    -12.06      0.00
   11    3   34    -15.17      0.00
   13    3   34      6.27      0.00
   15    3   34    -29.83      0.00
   17    3   34    -17.33      0.00
   19    3   34     24.01      0.00
   21    3   34      1.34      0.00
   23    3   34     -8.35      0.00
   25    3   34     -5.73      0.00
   27    3   34     -7.57      0.00
   29    3   34     -2.83      0.00
   31    3   34    -20.37      0.00
   33    3   34     -7.08      0.00
    0    4   34     16.93      0.00
    2    4   34     16.52      0.00
    4    4   34      8.54      0.00
    6    4   34     -7.78      0.00
    8    4   34     13.75      0.00
   10    4   34      0.13      0.00
   12    4   34      7.03      0.00
   14    4   34      1.49      0.00
   16    4   34     -8.78      0.00
   18    4   34     -3.74      0.00
   20    4   34     -2.01      0.00
   22    4   34     -2.92      0.00
   24    4   34      9.93      0.00
   26    4   34      1.03      0.00
   28    4   34     -1.46      0.00
   30    4   34     -1.55      0.00
   32    4   34     -1.44      0.00
    1    5   34      0.98      0.00
    3    5   34      0.27      0.00
    5    5   34      3.73      0.00
    7    5   34      6.01      0.00
    9    5   34    -18.29      0.00
   11    5   34     -2.12      0.00
   13    5   34     -4.41      0.00
   15    5   34     -1.51      0.00
   17    5   34     -2.21      0.00
   19    5   34     12.81      0.00
   21    5   34     -3.02      0.00
   23    5   34      4.52      0.00
   25    5   34    -12.61      0.00
   27    5   34     -6.95      0.00
   29    5   34     -3.30      0.00
   31    5   34      8.71      0.00
   33    5   34      4.19      0.00
    0    6   34      4.96      0.00
    2    6   34      7.45      0.00
    4    6   34    -21.41      0.00
    6    6   34    -27.65      0.00
    8    6   34    -11.30      0.00
   10    6   34     26.65      0.00
   12    6   34      5.31      0.00
   14    6   34    -11.86      0.00
   16    6   34      0.20      0.00
   18    6   34     -2.52      0.00
   20    6   34     20.06      0.00
   22    6   34     15.33      0.00
   24    6   34      5.60      0.00
   26    6   34     -1.80      0.00
   28    6   34    -14.16      0.00
   30    6   34    -16.09      0.00
   32    6   34     -1.87      0.00
    1    7   34    -24.89      0.00
    3    7   34     22.99      0.00
    5    7   34    -16.49      0.00
    7    7   34      0.75      0.00
    9    7   34     10.68      0.00
   11    7   34     -2.52      0.00
   13    7   34     -2.93      0.00
   15    7   34     29.03      0.00
   17    7   34     -0.10      0.00
   19    7   34     11.01      0.00
   21    7   34      0.49      0.00
   23    7   34     -3.17      0.00
   25    7   34     -1.72      0.00
   27    7   34      6.30      0.00
   29    7   34    -12.78      0.00
   31    7   34      8.84      0.00
   33    7   34      3.18      0.00
    0    8   34    -17.53      0.00
    2    8   34     34.33      0.00
    4    8   34     11.30      0.00
    6    8   34    -18.72      0.00
    8    8   34      8.93      0.00
   10    8   34     11.18      0.00
   12    8   34    -11.53      0.00
   14    8   34    -15.14      0.00
   16    8   34     -5.29      0.00
   18    8   34      1.02      0.00
   20    8   34     -5.10      0.00
   22    8   34     -5.29      0.00
   24    8   34      4.93      0.00
   26    8   34     -3.28      0.00
   28    8   34      5.52      0.00
   30    8   34     14.16      0.00
   32    8   34      2.87      0.00
    1    9   34     -6.87      0.00
    3    9   34     16.42      0.00
    5    9   34     -7.10      0.00
    7    9   34      9.86      0.00
    9    9   34     20.24      0.00
   11    9   34     -0.04      0.00
   13    9   34      0.34      0.00
   15    9   34      3.29      0.00
   17    9   34      5.16      0.00
   19    9   34      0.17      0.00
   21    9   34    -31.41      0.00
   23    9   34    -11.39      0.00
   25    9   34     19.40      0.00
   27    9   34      5.05      0.00
   29    9   34     -2.77      0.00
   31    9   34      2.70      0.00
   33    9   34     -9.73      0.00
    0   10   34    -14.96      0.00
    2   10   34     -6.15      0.00
    4   10   34     14.34      0.00
    6   10   34     16.51      0.00
    8   10   34     -1.46      0.00
   10   10   34     -9.86      0.00
   12   10   34    -12.50      0.00
   14   10   34     -7.89      0.00
   16   10   34     13.17      0.00
   18   10   34      7.01      0.00
   20   10   34     -4.08      0.00
   22   10   34    -10.59      0.00
   24   10   34     -0.40      0.00
   26   10   34     -9.70      0.00
   28   10   34     -8.93      0.00
   30   10   34      7.00      0.00
   32   10   34     -7.50      0.00
    1   11   34     -3.05      0.00
    3   11   34    -30.38      0.00
    5   11   34     -1.88      0.00
    7   11   34     -7.51      0.00
    9   11   34     -1.73      0.00
   11   11   34      3.46      0.00
   13   11   34     -7.94      0.00
   15   11   34    -13.15      0.00
   17   11   34      9.66      0.00
   19   11   34     -3.51      0.00
   21   11   34    -20.09      0.00
   23   11   34    -11.64      0.00
   25   11   34      6.02      0.00
   27   11   34      3.13      0.00
   29   11   34      4.64      0.00
   31   11   34     -1.18      0.00
   33   11   34     -3.96      0.00
    0   12   34     -0.83      0.00
    2   12   34     -9.12      0.00
    4   12   34     14.68      0.00
    6   12   34     14.14      0.00
    8   12   34     -2.80      0.00
   10   12   34    -21.58      0.00
   12   12   34    -19.83      0.00
   14   12   34    -12.81      0.00
   16   12   34     15.74      0.00
   18   12   34      3.81      0.00
   20   12   34     -8.77      0.00
   22   12   34    -11.75      0.00
   24   12   34    -12.72      0.00
   26   12   34     -8.96      0.00
   28   12   34     22.57      0.00
   30   12   34     17.98      0.00
   32   12   34     -1.64      0.00
    1   13   34     -4.17      0.00
    3   13   34      3.01      0.00
    5   13   34      9.55      0.00
    7   13   34     10.10      0.00
    9   13   34      7.05      0.00
   11   13   34    -15.07      0.00
   13   13   34     15.51      0.00
   15   13   34      4.37      0.00
   17   13   34     -1.10      0.00
   19   13   34      0.06      0.00
   21   13   34     -0.31      0.00
   23   13   34    -14.46      0.00
   25   13   34     10.58      0.00
   27   13   34     13.00      0.00
   29   13   34    -11.69      0.00
   31   13   34    -12.54      0.00
   33   13   34      7.04      0.00
    0   14   34     -7.86      0.00
    2   14   34     -4.68      0.00
    4   14   34      5.95      0.00
    6   14   34     -7.11      0.00
    8   14   34     11.01      0.00
   10   14   34     -0.33      0.00
   12   14   34     -6.76      0.00
   14   14   34     -9.52      0.00
   16   14   34     -9.34      0.00
   18   14   34     -3.65      0.00
   20   14   34      4.27      0.00
   22   14   34      1.54      0.00
   24   14   34    -21.66      0.00
   26   14   34    -19.09      0.00
   28   14   34      6.35      0.00
   30   14   34     10.86      0.00
   32   14   34      2.18      0.00
    1   15   34      7.64      0.00
    3   15   34     -5.18      0.00
    5   15   34     11.53      0.00
    7   15   34      4.81      0.00
    9   15   34    -10.75      0.00
   11   15   34    -13.72      0.00
   13   15   34     18.16      0.00
   15   15   34     -0.53      0.00
   17   15   34     -0.67      0.00
   19   15   34      2.68      0.00
   21   15   34     -9.74      0.00
   23   15   34     -8.51      0.00
   25   15   34     -4.16      0.00
   27   15   34    -11.90      0.00
   29   15   34     -4.57      0.00
   31   15   34      7.30      0.00
   33   15   34      8.23      0.00
    0   16   34     12.68      0.00
    2   16   34     12.11      0.00
    4   16   34      1.14      0.00
    6   16   34      6.97      0.00
    8   16   34     -1.55      0.00
   10   16   34     24.39      0.00
   12   16   34     24.70      0.00
   14   16   34      1.51      0.00
   16   16   34    -13.15      0.00
   18   16   34      2.60      0.00
   20   16   34      7.57      0.00
   22   16   34      6.10      0.00
   24   16   34    -10.09      0.00
   26   16   34     -8.26      0.00
   28   16   34     -1.16      0.00
   30   16   34     18.79      0.00
   32   16   34     12.94      0.00
    1   17   34      7.46      0.00
    3   17   34      4.19      0.00
    5   17   34     13.02      0.00
    7   17   34     -1.32      0.00
    9   17   34    -14.40      0.00
   11   17   34     10.72      0.00
   13   17   34     -4.33      0.00
   15   17   34     -6.28      0.00
   17   17   34    -13.72      0.00
   19   17   34    -17.09      0.00
   21   17   34      1.70      0.00
   23   17   34     10.30      0.00
   25   17   34     -9.92      0.00
   27   17   34    -14.51      0.00
   29   17   34    -22.67      0.00
   31   17   34      3.33      0.00
    0   18   34    -22.09      0.00
    2   18   34     15.23      0.00
    4   18   34    -17.02      0.00
    6   18   34      1.04      0.00
    8   18   34    -11.73      0.00
   10   18   34      8.98      0.00
   12   18   34     -2.37      0.00
   14   18   34      3.98      0.00
   16   18   34      2.37      0.00
   18   18   34     -7.12      0.00
   20   18   34      9.20      0.00
   22   18   34     48.20      0.00
   24   18   34      0.50      0.00
   26   18   34    -13.65      0.00
   28   18   34    -11.48      0.00
   30   18   34     -0.39      0.00
    1   19   34      5.72      0.00
    3   19   34      1.68      0.00
    5   19   34     -5.35      0.00
    7   19   34     17.98      0.00
    9   19   34     -3.37      0.00
   11   19   34      2.16      0.00
   13   19   34     15.36      0.00
   15   19   34     20.78      0.00
   17   19   34     -4.12      0.00
   19   19   34     -1.41      0.00
   21   19   34      4.64      0.00
   23   19   34      2.18      0.00
   25   19   34      0.07      0.00
   27   19   34      5.16      0.00
   29   19   34    -11.80      0.00
   31   19   34      3.98      0.00
    0   20   34    -15.78      0.00
    2   20   34     15.02      0.00
    4   20   34    -12.23      0.00
    6   20   34     15.78      0.00
    8   20   34     -5.10      0.00
   10   20   34      1.91      0.00
   12   20   34    -11.98      0.00
   14   20   34     15.70      0.00
   16   20   34     -5.92      0.00
   18   20   34      0.93      0.00
   20   20   34     -9.56      0.00
   22   20   34     -3.46      0.00
   24   20   34      9.82      0.00
   26   20   34     -4.70      0.00
   28   20   34    -26.85      0.00
   30   20   34      0.59      0.00
    1   21   34      3.56      0.00
    3   21   34     -6.79      0.00
    5   21   34     -2.59      0.00
    7   21   34     17.61      0.00
    9   21   34      4.48      0.00
   11   21   34     -6.71      0.00
   13   21   34     -0.28      0.00
   15   21   34    -19.32      0.00
   17   21   34    -13.02      0.00
   19   21   34      8.68      0.00
   21   21   34    -21.47      0.00
   23   21   34     -9.17      0.00
   25   21   34     -0.68      0.00
   27   21   34      1.85      0.00
   29   21   34     19.73      0.00
    0   22   34    -28.43      0.00
    2   22   34     12.82      0.00
    4   22   34     -3.55      0.00
    6   22   34      9.36      0.00
    8   22   34      3.48      0.00
   10   22   34     -3.13      0.00
   12   22   34     -5.96      0.00
   14   22   34      5.80      0.00
   16   22   34      0.00      0.00
   18   22   34     24.81      0.00
   20   22   34     -1.09      0.00
   22   22   34     -4.26      0.00
   24   22   34      1.89      0.00
   26   22   34      9.32      0.00
   28   22   34      5.38      0.00
    1   23   34     -4.33      0.00
    3   23   34      0.57      0.00
    5   23   34      6.11      0.00
    7   23   34      6.83      0.00
    9   23   34     -4.16      0.00
   11   23   34      1.82      0.00
   13   23   34      1.42      0.00
   15   23   34     -6.70      0.00
   17   23   34     14.42      0.00
   19   23   34     -3.14      0.00
   21   23   34     -0.39      0.00
   23   23   34    -13.59      0.00
   25   23   34    -15.61      0.00
   27   23   34     -3.84      0.00
    0   24   34     -4.04      0.00
    2   24   34     13.05      0.00
    4   24   34      4.49      0.00
    6   24   34     -8.18      0.00
    8   24   34     -1.41      0.00
   10   24   34      3.95      0.00
   12   24   34     -4.58      0.00
   14   24   34    -18.82      0.00
   16   24   34    -12.53      0.00
   18   24   34    -15.46      0.00
   20   24   34    -12.98      0.00
   22   24   34      7.78      0.00
   24   24   34    -20.61      0.00
   26   24   34      9.40      0.00
    1   25   34     -6.26      0.00
    3   25   34     -9.13      0.00
    5   25   34     -8.25      0.00
    7   25   34      3.78      0.00
    9   25   34      7.09      0.00
   11   25   34     -9.79      0.00
   13   25   34      9.26      0.00
   15   25   34      3.76      0.00
   17   25   34      5.04      0.00
   19   25   34     -7.02      0.00
   21   25   34     19.92      0.00
   23   25   34     -0.87      0.00
   25   25   34     -6.26      0.00
    0   26   34      1.19      0.00
    2   26   34      3.82      0.00
    4   26   34     14.62      0.00
    6   26   34     -7.37      0.00
    8   26   34      9.32      0.00
   10   26   34     -2.41      0.00
   12   26   34     -0.61      0.00
   14   26   34     18.73      0.00
   16   26   34    -11.55      0.00
   18   26   34     -0.08      0.00
   20   26   34     14.33      0.00
   22   26   34      2.65      0.00
   24   26   34      1.34      0.00
    1   27   34    -10.73      0.00
    3   27   34     10.52      0.00
    5   27   34    -16.63      0.00
    7   27   34    -13.88      0.00
    9   27   34      9.36      0.00
   11   27   34     -3.60      0.00
   13   27   34     22.88      0.00
   15   27   34     -5.76      0.00
   17   27   34    -20.72      0.00
   19   27   34     -0.28      0.00
   21   27   34     -6.56      0.00
   23   27   34     -1.39      0.00
    0   28   34    -36.74      0.00
    2   28   34      2.37      0.00
    4   28   34      5.26      0.00
    6   28   34    -14.08      0.00
    8   28   34     24.03      0.00
   10   28   34    -18.04      0.00
   12   28   34     12.58      0.00
   14   28   34     25.16      0.00
   16   28   34     -9.81      0.00
   18   28   34     -0.70      0.00
   20   28   34     -3.00      0.00
   22   28   34    -12.89      0.00
    1   29   34    -23.25      0.00
    3   29   34     15.09      0.00
    5   29   34    -11.50      0.00
    7   29   34      6.02      0.00
    9   29   34      1.63      0.00
   11   29   34      6.98      0.00
   13   29   34     15.78      0.00
   15   29   34     -5.06      0.00
   17   29   34     -9.93      0.00
   19   29   34      0.07      0.00
   21   29   34      6.55      0.00
    0   30   34     -2.84      0.00
    2   30   34      6.59      0.00
    4   30   34     14.42      0.00
    6   30   34      8.44      0.00
    8   30   34     11.79      0.00
   10   30   34    -14.87      0.00
   12   30   34     -3.34      0.00
   14   30   34      6.07      0.00
   16   30   34      8.25      0.00
   18   30   34     -7.05      0.00
   20   30   34      0.65      0.00
    1   31   34     -8.16      0.00
    3   31   34     -8.96      0.00
    5   31   34    -20.21      0.00
    7   31   34      1.49      0.00
    9   31   34      0.99      0.00
   11   31   34      4.87      0.00
   13   31   34     -6.18      0.00
   15   31   34      6.13      0.00
   17   31   34     -9.61      0.00
   19   31   34      0.84      0.00
    0   32   34     -6.84      0.00
    2   32   34      2.77      0.00
    4   32   34      2.90      0.00
    6   32   34    -10.82      0.00
    8   32   34      4.55      0.00
   10   32   34      1.29      0.00
   12   32   34     -5.09      0.00
   14   32   34     20.26      0.00
   16   32   34     19.20      0.00
    1   33   34      0.52      0.00
    3   33   34     17.37      0.00
    5   33   34    -11.88      0.00
    7   33   34      7.73      0.00
    9   33   34     10.81      0.00
   11   33   34     -4.70      0.00
   13   33   34     -5.35      0.00
   15   33   34     28.73      0.00
    0   34   34    -38.47      0.00
    2   34   34     14.81      0.00
    4   34   34     17.70      0.00
    6   34   34    -24.13      0.00
    8   34   34      0.10      0.00
   10   34   34    -22.03      0.00
   12   34   34    -33.13      0.00
    1    0   35     -1.72      0.00
    3    0   35    -11.58      0.00
    5    0   35     20.37      0.00
    7    0   35     11.14      0.00
    9    0   35      8.64      0.00
   11    0   35      7.10      0.00
   13    0   35     13.12      0.00
   15    0   35      0.60      0.00
   17    0   35     15.83      0.00
   19    0   35     -0.41      0.00
   21    0   35     -0.49      0.00
   23    0   35     -2.42      0.00
   25    0   35     -4.45      0.00
   27    0   35     15.83      0.00
   29    0   35     -3.56      0.00
   31    0   35     -0.85      0.00
   33    0   35     -9.19      0.00
    0    1   35      1.64      0.00
    2    1   35    -18.36      0.00
    4    1   35      4.43      0.00
    6    1   35      3.69      0.00
    8    1   35      5.41      0.00
   10    1   35     -2.90      0.00
   12    1   35     10.52      0.00
   14    1   35     -5.24      0.00
   16    1   35     -4.43      0.00
   18    1   35      7.57      0.00
   20    1   35      8.94      0.00
   22    1   35      5.77      0.00
   24    1   35     -1.91      0.00
   26    1   35     13.46      0.00
   28    1   35     -9.67      0.00
   30    1   35    -41.97      0.00
   32    1   35     -5.74      0.00
   34    1   35     15.09      0.00
    1    2   35     -5.97      0.00
    3    2   35      8.30      0.00
    5    2   35     -3.31      0.00
    7    2   35    -13.34      0.00
    9    2   35     14.09      0.00
   11    2   35      0.46      0.00
   13    2   35      3.55      0.00
   15    2   35      2.57      0.00
   17    2   35     -4.74      0.00
   19    2   35      3.69      0.00
   21    2   35      5.73      0.00
   23    2   35     -8.96      0.00
   25    2   35     -3.18      0.00
   27    2   35     12.87      0.00
   29    2   35     -7.23      0.00
   31    2   35     -7.38      0.00
   33    2   35      1.91      0.00
    0    3   35     -8.93      0.00
    2    3   35     13.10      0.00
    4    3   35     19.66      0.00
    6    3   35      1.50      0.00
    8    3   35     19.24      0.00
   10    3   35     -6.67      0.00
   12    3   35     -7.99      0.00
   14    3   35     -3.55      0.00
   16    3   35     -1.16      0.00
   18    3   35     13.60      0.00
   20    3   35      1.52      0.00
   22    3   35      4.08      0.00
   24    3   35      3.37      0.00
   26    3   35    -12.19      0.00
   28    3   35      0.63      0.00
   30    3   35    -10.55      0.00
   32    3   35      0.49      0.00
   34    3   35     31.69      0.00
    1    4   35      4.23      0.00
    3    4   35      6.86      0.00
    5    4   35     -4.29      0.00
    7    4   35      0.86      0.00
    9    4   35     -1.09      0.00
   11    4   35     -0.90      0.00
   13    4   35      2.73      0.00
   15    4   35     -9.78      0.00
   17    4   35     -4.01      0.00
   19    4   35      2.49      0.00
   21    4   35      1.03      0.00
   23    4   35      8.69      0.00
   25    4   35      7.24      0.00
   27    4   35      4.58      0.00
   29    4   35      0.14      0.00
   31    4   35     -0.77      0.00
   33    4   35     10.27      0.00
    0    5   35    -16.11      0.00
    2    5   35      0.22      0.00
    4    5   35      0.54      0.00
    6    5   35      8.97      0.00
    8    5   35      9.69      0.00
   10    5   35     -4.48      0.00
   12    5   35      0.92      0.00
   14    5   35    -10.29      0.00
   16    5   35    -13.11      0.00
   18    5   35     -1.77      0.00
   20    5   35     -7.00      0.00
   22    5   35     -5.66      0.00
   24    5   35    -15.24      0.00
   26    5   35     -5.51      0.00
   28    5   35      6.01      0.00
   30    5   35      5.19      0.00
   32    5   35     -2.44      0.00
   34    5   35    -15.34      0.00
    1    6   35     -5.10      0.00
    3    6   35      6.45      0.00
    5    6   35      3.26      0.00
    7    6   35     -0.79      0.00
    9    6   35     -7.50      0.00
   11    6   35     10.73      0.00
   13    6   35      9.73      0.00
   15    6   35     -1.07      0.00
   17    6   35      7.92      0.00
   19    6   35      3.14      0.00
   21    6   35      5.27      0.00
   23    6   35      5.72      0.00
   25    6   35    -17.36      0.00
   27    6   35    -14.44      0.00
   29    6   35     -2.93      0.00
   31    6   35      4.63      0.00
   33    6   35      7.87      0.00
    0    7   35    -19.65      0.00
    2    7   35      1.94      0.00
    4    7   35      4.98      0.00
    6    7   35     13.57      0.00
    8    7   35      2.10      0.00
   10    7   35     -0.19      0.00
   12    7   35      5.48      0.00
   14    7   35     -5.78      0.00
   16    7   35    -15.08      0.00
   18    7   35     12.37      0.00
   20    7   35     -2.44      0.00
   22    7   35      8.01      0.00
   24    7   35     11.32      0.00
   26    7   35     14.88      0.00
   28    7   35     15.34      0.00
   30    7   35      2.49      0.00
   32    7   35      5.17      0.00
   34    7   35      6.67      0.00
    1    8   35    -18.29      0.00
    3    8   35     13.75      0.00
    5    8   35     -5.97      0.00
    7    8   35    -11.14      0.00
    9    8   35     -3.35      0.00
   11    8   35     -2.76      0.00
   13    8   35      3.90      0.00
   15    8   35      6.66      0.00
   17    8   35    -12.27      0.00
   19    8   35      0.91      0.00
   21    8   35      1.34      0.00
   23    8   35     -7.89      0.00
   25    8   35    -14.25      0.00
   27    8   35     -3.34      0.00
   29    8   35    -10.95      0.00
   31    8   35     -8.37      0.00
   33    8   35      6.32      0.00
    0    9   35    -26.32      0.00
    2    9   35      1.40      0.00
    4    9   35     -4.70      0.00
    6    9   35      2.65      0.00
    8    9   35      6.02      0.00
   10    9   35     -9.96      0.00
   12    9   35     -1.85      0.00
   14    9   35      7.20      0.00
   16    9   35    -13.79      0.00
   18    9   35      8.97      0.00
   20    9   35     -1.03      0.00
   22    9   35     -5.31      0.00
   24    9   35     -1.09      0.00
   26    9   35      1.67      0.00
   28    9   35     -1.20      0.00
   30    9   35     -2.02      0.00
   32    9   35      8.17      0.00
   34    9   35     16.73      0.00
    1   10   35      7.08      0.00
    3   10   35      1.92      0.00
    5   10   35     -6.92      0.00
    7   10   35      5.67      0.00
    9   10   35     -4.66      0.00
   11   10   35      9.05      0.00
   13   10   35     13.25      0.00
   15   10   35      0.40      0.00
   17   10   35      4.13      0.00
   19   10   35      4.11      0.00
   21   10   35    -20.99      0.00
   23   10   35     -2.15      0.00
   25   10   35      0.63      0.00
   27   10   35      5.24      0.00
   29   10   35     11.90      0.00
   31   10   35      5.46      0.00
   33   10   35     -4.68      0.00
    0   11   35      2.16      0.00
    2   11   35      9.46      0.00
    4   11   35     -3.09      0.00
    6   11   35      2.86      0.00
    8   11   35      8.27      0.00
   10   11   35      2.34      0.00
   12   11   35     25.89      0.00
   14   11   35      4.48      0.00
   16   11   35    -13.54      0.00
   18   11   35     15.16      0.00
   20   11   35      6.43      0.00
   22   11   35     -3.65      0.00
   24   11   35     -4.14      0.00
   26   11   35     -8.04      0.00
   28   11   35     -6.62      0.00
   30   11   35      3.08      0.00
   32   11   35     -4.10      0.00
    1   12   35    -16.32      0.00
    3   12   35     -8.94      0.00
    5   12   35    -18.02      0.00
    7   12   35    -11.09      0.00
    9   12   35     -5.68      0.00
   11   12   35     -8.53      0.00
   13   12   35    -15.82      0.00
   15   12   35     -3.14      0.00
   17   12   35      3.49      0.00
   19   12   35      1.98      0.00
   21   12   35     -6.83      0.00
   23   12   35      0.69      0.00
   25   12   35      1.12      0.00
   27   12   35      2.80      0.00
   29   12   35      6.20      0.00
   31   12   35     -5.48      0.00
   33   12   35     -9.01      0.00
    0   13   35    -12.90      0.00
    2   13   35     -7.71      0.00
    4   13   35      1.40      0.00
    6   13   35     -4.86      0.00
    8   13   35      7.73      0.00
   10   13   35     -4.26      0.00
   12   13   35      1.99      0.00
   14   13   35      4.95      0.00
   16   13   35      5.89      0.00
   18   13   35      0.81      0.00
   20   13   35    -10.08      0.00
   22   13   35     -5.82      0.00
   24   13   35      6.99      0.00
   26   13   35      1.11      0.00
   28   13   35     21.21      0.00
   30   13   35     11.75      0.00
   32   13   35     -9.90      0.00
    1   14   35      3.77      0.00
    3   14   35      4.67      0.00
    5   14   35     -5.04      0.00
    7   14   35      8.96      0.00
    9   14   35     13.36      0.00
   11   14   35     -4.91      0.00
   13   14   35      3.70      0.00
   15   14   35      6.03      0.00
   17   14   35     -8.45      0.00
   19   14   35      2.63      0.00
   21   14   35     -0.73      0.00
   23   14   35     -2.68      0.00
   25   14   35     -4.36      0.00
   27   14   35     -5.26      0.00
   29   14   35     -1.10      0.00
   31   14   35    -18.97      0.00
    0   15   35      2.11      0.00
    2   15   35     -6.60      0.00
    4   15   35     -5.44      0.00
    6   15   35    -11.13      0.00
    8   15   35     15.85      0.00
   10   15   35      0.48      0.00
   12   15   35      6.43      0.00
   14   15   35     -2.29      0.00
   16   15   35     -6.17      0.00
   18   15   35    -10.05      0.00
   20   15   35    -13.41      0.00
   22   15   35    -10.81      0.00
   24   15   35     10.24      0.00
   26   15   35     -2.34      0.00
   28   15   35      7.96      0.00
   30   15   35     -8.33      0.00
   32   15   35      0.76      0.00
    1   16   35    -11.72      0.00
    3   16   35     -1.90      0.00
    5   16   35      6.01      0.00
    7   16   35     -3.39      0.00
    9   16   35     -6.33      0.00
   11   16   35     -6.36      0.00
   13   16   35     -8.05      0.00
   15   16   35    -17.73      0.00
   17   16   35      0.17      0.00
   19   16   35      5.38      0.00
   21   16   35     -2.76      0.00
   23   16   35      7.80      0.00
   25   16   35     -4.27      0.00
   27   16   35     -0.65      0.00
   29   16   35      4.53      0.00
   31   16   35     -8.28      0.00
    0   17   35     14.11      0.00
    2   17   35     -5.51      0.00
    4   17   35      3.58      0.00
    6   17   35     -2.81      0.00
    8   17   35     14.67      0.00
   10   17   35      3.58      0.00
   12   17   35     21.63      0.00
   14   17   35     -8.02      0.00
   16   17   35     -9.73      0.00
   18   17   35      7.04      0.00
   20   17   35     -9.69      0.00
   22   17   35     -7.54      0.00
   24   17   35      6.20      0.00
   26   17   35      0.69      0.00
   28   17   35      9.40      0.00
   30   17   35    -12.56      0.00
    1   18   35    -10.24      0.00
    3   18   35      0.07      0.00
    5   18   35      1.39      0.00
    7   18   35    -15.23      0.00
    9   18   35     -6.60      0.00
   11   18   35    -12.80      0.00
   13   18   35     -4.81      0.00
   15   18   35      2.57      0.00
   17   18   35      1.58      0.00
   19   18   35     -6.84      0.00
   21   18   35     -6.20      0.00
   23   18   35     -5.92      0.00
   25   18   35      2.87      0.00
   27   18   35      3.14      0.00
   29   18   35     -0.19      0.00
    0   19   35     11.64      0.00
    2   19   35     -7.92      0.00
    4   19   35      4.33      0.00
    6   19   35    -12.17      0.00
    8   19   35      3.79      0.00
   10   19   35     -6.99      0.00
   12   19   35     -3.12      0.00
   14   19   35     -1.95      0.00
   16   19   35     -6.15      0.00
   18   19   35      3.30      0.00
   20   19   35      2.69      0.00
   22   19   35      5.07      0.00
   24   19   35      5.37      0.00
   26   19   35     17.98      0.00
   28   19   35      3.71      0.00
    1   20   35      1.48      0.00
    3   20   35     -0.43      0.00
    5   20   35    -13.91      0.00
    7   20   35      8.16      0.00
    9   20   35      6.34      0.00
   11   20   35    -23.03      0.00
   13   20   35      9.76      0.00
   15   20   35     13.83      0.00
   17   20   35     -9.53      0.00
   19   20   35     -4.04      0.00
   21   20   35      6.66      0.00
   23   20   35     -5.27      0.00
   25   20   35      1.10      0.00
   27   20   35     19.82      0.00
   29   20   35     11.58      0.00
    0   21   35     -1.31      0.00
    2   21   35      3.28      0.00
    4   21   35      3.21      0.00
    6   21   35     -0.45      0.00
    8   21   35     15.03      0.00
   10   21   35     -7.92      0.00
   12   21   35     -9.81      0.00
   14   21   35      2.00      0.00
   16   21   35      3.19      0.00
   18   21   35     18.28      0.00
   20   21   35     -7.40      0.00
   22   21   35     -6.03      0.00
   24   21   35      0.90      0.00
   26   21   35     15.74      0.00
   28   21   35     17.66      0.00
    1   22   35     -1.84      0.00
    3   22   35     11.43      0.00
    5   22   35     -4.53      0.00
    7   22   35    -11.17      0.00
    9   22   35    -11.47      0.00
   11   22   35      5.39      0.00
   13   22   35     12.14      0.00
   15   22   35      4.52      0.00
   17   22   35     -1.69      0.00
   19   22   35      2.81      0.00
   21   22   35    -10.73      0.00
   23   22   35    -14.88      0.00
   25   22   35    -13.72      0.00
   27   22   35      1.43      0.00
    0   23   35    -20.65      0.00
    2   23   35     -1.89      0.00
    4   23   35      7.01      0.00
    6   23   35     24.42      0.00
    8   23   35     16.75      0.00
   10   23   35      5.46      0.00
   12   23   35      0.17      0.00
   14   23   35     -5.44      0.00
   16   23   35     -0.49      0.00
   18   23   35      1.95      0.00
   20   23   35    -19.59      0.00
   22   23   35      5.70      0.00
   24   23   35     -9.93      0.00
   26   23   35    -15.31      0.00
    1   24   35     -0.42      0.00
    3   24   35     14.14      0.00
    5   24   35      7.82      0.00
    7   24   35     -1.57      0.00
    9   24   35     -3.54      0.00
   11   24   35     10.09      0.00
   13   24   35     -5.40      0.00
   15   24   35      0.22      0.00
   17   24   35     -1.37      0.00
   19   24   35      5.29      0.00
   21   24   35      7.32      0.00
   23   24   35    -13.72      0.00
   25   24   35     -4.16      0.00
    0   25   35     -7.93      0.00
    2   25   35     -7.14      0.00
    4   25   35     -5.48      0.00
    6   25   35     10.03      0.00
    8   25   35     -8.92      0.00
   10   25   35     -7.27      0.00
   12   25   35    -11.50      0.00
   14   25   35      5.55      0.00
   16   25   35      5.79      0.00
   18   25   35      0.19      0.00
   20   25   35      7.41      0.00
   22   25   35     -0.68      0.00
   24   25   35     -9.91      0.00
    1   26   35    -17.09      0.00
    3   26   35      5.79      0.00
    5   26   35     -5.55      0.00
    7   26   35      9.48      0.00
    9   26   35     18.38      0.00
   11   26   35      7.03      0.00
   13   26   35      4.57      0.00
   15   26   35      4.49      0.00
   17   26   35     -8.29      0.00
   19   26   35     -2.00      0.00
   21   26   35      3.85      0.00
   23   26   35    -12.49      0.00
    0   27   35    -11.95      0.00
    2   27   35     10.54      0.00
    4   27   35      4.39      0.00
    6   27   35     -0.58      0.00
    8   27   35      8.79      0.00
   10   27   35      7.18      0.00
   12   27   35      2.22      0.00
   14   27   35     -6.44      0.00
   16   27   35     -5.89      0.00
   18   27   35      7.00      0.00
   20   27   35      0.24      0.00
   22   27   35     -4.43      0.00
    1   28   35    -19.31      0.00
    3   28   35      1.19      0.00
    5   28   35      1.40      0.00
    7   28   35     -3.26      0.00
    9   28   35     16.76      0.00
   11   28   35     10.24      0.00
   13   28   35      3.23      0.00
   15   28   35      1.15      0.00
   17   28   35     -6.74      0.00
   19   28   35    -12.32      0.00
   21   28   35     -3.08      0.00
    0   29   35    -13.57      0.00
    2   29   35    -14.29      0.00
    4   29   35      3.89      0.00
    6   29   35     -3.71      0.00
    8   29   35     -2.12      0.00
   10   29   35     15.08      0.00
   12   29   35      2.28      0.00
   14   29   35    -14.98      0.00
   16   29   35      4.33      0.00
   18   29   35      9.37      0.00
   20   29   35     -6.88      0.00
    1   30   35      4.37      0.00
    3   30   35      3.65      0.00
    5   30   35     14.30      0.00
    7   30   35     12.64      0.00
    9   30   35     32.99      0.00
   11   30   35     10.80      0.00
   13   30   35      2.17      0.00
   15   30   35     -4.90      0.00
   17   30   35     -6.11      0.00
    0   31   35      2.62      0.00
    2   31   35    -15.16      0.00
    4   31   35      0.78      0.00
    6   31   35      3.09      0.00
    8   31   35      6.79      0.00
   10   31   35      2.33      0.00
   12   31   35     -2.89      0.00
   14   31   35      8.61      0.00
   16   31   35      6.55      0.00
    1   32   35     -5.84      0.00
    3   32   35      6.81      0.00
    5   32   35      0.93      0.00
    7   32   35      0.39      0.00
    9   32   35     10.74      0.00
   11   32   35     -7.48      0.00
   13   32   35      4.74      0.00
   15   32   35      0.09      0.00
    0   33   35     -4.01      0.00
    2   33   35      3.92      0.00
    4   33   35      7.04      0.00
    6   33   35     -5.60      0.00
    8   33   35      4.54      0.00
   10   33   35     -3.33      0.00
   12   33   35      4.22      0.00
    1   34   35     -3.05      0.00
    3   34   35     16.60      0.00
    5   34   35     17.12      0.00
    7   34   35      1.12      0.00
    9   34   35     -5.23      0.00
    0   35   35     -8.01      0.00
    2   35   35     -6.06      0.00
    4   35   35     11.34      0.00
    0    0   36     24.98      0.00
    2    0   36    -17.33      0.00
    4    0   36     21.05      0.00
    6    0   36     15.22      0.00
    8    0   36     22.46      0.00
   10    0   36     47.98      0.00
   12    0   36      9.56      0.00
   14    0   36    -17.95      0.00
   16    0   36     13.04      0.00
   18    0   36      2.52      0.00
   20    0   36     27.71      0.00
   22    0   36     15.54      0.00
   24    0   36    -13.88      0.00
   26    0   36      3.09      0.00
   28    0   36     28.00      0.00
   30    0   36     -0.81      0.00
   32    0   36      5.63      0.00
   34    0   36     -0.69      0.00
    1    1   36    -16.16      0.00
    3    1   36    -20.71      0.00
    5    1   36      7.72      0.00
    7    1   36    -14.23      0.00
    9    1   36    -11.79      0.00
   11    1   36      3.62      0.00
   13    1   36    -14.72      0.00
   15    1   36    -13.52      0.00
   17    1   36     -1.09      0.00
   19    1   36     -4.36      0.00
   21    1   36      8.73      0.00
   23    1   36      8.30      0.00
   25    1   36     -5.59      0.00
   27    1   36     10.17      0.00
   29    1   36      8.11      0.00
   31    1   36    -10.29      0.00
   33    1   36      4.61      0.00
    0    2   36     -9.04      0.00
    2    2   36    -12.01      0.00
    4    2   36      5.58      0.00
    6    2   36    -14.32      0.00
    8    2   36      0.53      0.00
   10    2   36      1.86      0.00
   12    2   36      3.90      0.00
   14    2   36     -6.07      0.00
   16    2   36     -0.46      0.00
   18    2   36      2.45      0.00
   20    2   36      2.44      0.00
   22    2   36      5.68      0.00
   24    2   36     15.62      0.00
   26    2   36     -3.05      0.00
   28    2   36     10.42      0.00
   30    2   36     -5.60      0.00
   32    2   36    -23.11      0.00
   34    2   36      2.43      0.00
    1    3   36     -7.55      0.00
    3    3   36      5.18      0.00
    5    3   36     -9.59      0.00
    7    3   36     -3.91      0.00
    9    3   36     -1.21      0.00
   11    3   36    -15.45      0.00
   13    3   36     -8.25      0.00
   15    3   36      3.12      0.00
   17    3   36     16.26      0.00
   19    3   36     16.97      0.00
   21    3   36     -1.26      0.00
   23    3   36      3.37      0.00
   25    3   36     -0.80      0.00
   27    3   36    -13.79      0.00
   29    3   36      0.91      0.00
   31    3   36      6.61      0.00
   33    3   36     13.51      0.00
    0    4   36     -2.89      0.00
    2    4   36      9.45      0.00
    4    4   36      8.41      0.00
    6    4   36    -14.35      0.00
    8    4   36     -0.39      0.00
   10    4   36     -2.22      0.00
   12    4   36      9.68      0.00
   14    4   36     14.41      0.00
   16    4   36     -7.51      0.00
   18    4   36    -13.75      0.00
   20    4   36     -4.06      0.00
   22    4   36      5.70      0.00
   24    4   36     26.16      0.00
   26    4   36     14.91      0.00
   28    4   36     15.65      0.00
   30    4   36      0.94      0.00
   32    4   36    -19.77      0.00
   34    4   36      6.85      0.00
    1    5   36    -15.99      0.00
    3    5   36      0.52      0.00
    5    5   36      4.24      0.00
    7    5   36      1.07      0.00
    9    5   36    -19.35      0.00
   11    5   36    -23.42      0.00
   13    5   36      0.59      0.00
   15    5   36     20.22      0.00
   17    5   36     19.44      0.00
   19    5   36     -3.79      0.00
   21    5   36    -14.66      0.00
   23    5   36      9.22      0.00
   25    5   36    -21.29      0.00
   27    5   36    -12.40      0.00
   29    5   36     10.20      0.00
   31    5   36     13.10      0.00
   33    5   36     -2.31      0.00
    0    6   36    -12.36      0.00
    2    6   36     12.15      0.00
    4    6   36     -5.07      0.00
    6    6   36    -28.91      0.00
    8    6   36      0.74      0.00
   10    6   36     14.62      0.00
   12    6   36      4.15      0.00
   14    6   36     -0.99      0.00
   16    6   36     -9.59      0.00
   18    6   36     -1.30      0.00
   20    6   36     31.89      0.00
   22    6   36     30.09      0.00
   24    6   36      3.54      0.00
   26    6   36      7.71      0.00
   28    6   36     11.89      0.00
   30    6   36    -16.39      0.00
   32    6   36     -1.13      0.00
    1    7   36    -30.39      0.00
    3    7   36     22.93      0.00
    5    7   36     -9.38      0.00
    7    7   36     10.98      0.00
    9    7   36     15.33      0.00
   11    7   36    -15.04      0.00
   13    7   36     -2.92      0.00
   15    7   36     21.98      0.00
   17    7   36      6.91      0.00
   19    7   36     -3.41      0.00
   21    7   36     15.99      0.00
   23    7   36     29.29      0.00
   25    7   36    -12.74      0.00
   27    7   36      5.16      0.00
   29    7   36      1.35      0.00
   31    7   36     -3.56      0.00
   33    7   36     -3.77      0.00
    0    8   36    -20.99      0.00
    2    8   36     20.16      0.00
    4    8   36     -5.75      0.00
    6    8   36    -20.29      0.00
    8    8   36      3.19      0.00
   10    8   36     -2.31      0.00
   12    8   36     -5.89      0.00
   14    8   36     -8.87      0.00
   16    8   36     -4.28      0.00
   18    8   36      5.45      0.00
   20    8   36    -10.05      0.00
   22    8   36    -13.03      0.00
   24    8   36     -5.22      0.00
   26    8   36    -23.46      0.00
   28    8   36     -1.41      0.00
   30    8   36      9.27      0.00
   32    8   36     16.10      0.00
    1    9   36      4.26      0.00
    3    9   36      5.55      0.00
    5    9   36     -4.92      0.00
    7    9   36     19.11      0.00
    9    9   36     18.08      0.00
   11    9   36     10.68      0.00
   13    9   36      1.54      0.00
   15    9   36    -18.02      0.00
   17    9   36      2.67      0.00
   19    9   36     12.76      0.00
   21    9   36     -0.89      0.00
   23    9   36     20.71      0.00
   25    9   36     16.14      0.00
   27    9   36     12.44      0.00
   29    9   36     13.12      0.00
   31    9   36     -2.03      0.00
   33    9   36      2.38      0.00
    2   10   36     -0.29      0.00
    4   10   36      2.16      0.00
    6   10   36      8.07      0.00
    8   10   36      3.46      0.00
   10   10   36     -5.22      0.00
   12   10   36     -5.66      0.00
   14   10   36      6.51      0.00
   16   10   36     11.94      0.00
   18   10   36      7.56      0.00
   20   10   36      9.54      0.00
   22   10   36      1.02      0.00
   24   10   36     10.23      0.00
   26   10   36     -7.34      0.00
   28   10   36    -12.57      0.00
   30   10   36     -6.46      0.00
   32   10   36      9.78      0.00
    1   11   36    -24.14      0.00
    3   11   36     -7.43      0.00
    5   11   36     -6.78      0.00
    7   11   36    -20.66      0.00
    9   11   36      5.22      0.00
   11   11   36     15.28      0.00
   13   11   36      0.45      0.00
   15   11   36    -24.21      0.00
   17   11   36      6.97      0.00
   19   11   36     15.03      0.00
   21   11   36     -2.61      0.00
   23   11   36     -6.70      0.00
   25   11   36     -0.20      0.00
   27   11   36     14.90      0.00
   29   11   36      9.61      0.00
   31   11   36     -1.90      0.00
    0   12   36    -18.66      0.00
    2   12   36      6.98      0.00
    4   12   36     26.13      0.00
    6   12   36     14.17      0.00
    8   12   36      4.67      0.00
   10   12   36    -25.60      0.00
   12   12   36    -21.54      0.00
   14   12   36     -2.64      0.00
   16   12   36     10.12      0.00
   18   12   36      0.54      0.00
   20   12   36    -15.90      0.00
   22   12   36    -21.14      0.00
   24   12   36     -9.14      0.00
   26   12   36     -5.42      0.00
   28   12   36      6.73      0.00
   30   12   36     -6.11      0.00
   32   12   36     10.81      0.00
    1   13   36    -27.41      0.00
    3   13   36      3.98      0.00
    5   13   36     -4.08      0.00
    7   13   36    -10.02      0.00
    9   13   36      9.87      0.00
   11   13   36      1.11      0.00
   13   13   36      5.82      0.00
   15   13   36     -5.69      0.00
   17   13   36     11.09      0.00
   19   13   36     -7.47      0.00
   21   13   36     -5.73      0.00
   23   13   36      6.30      0.00
   25   13   36      8.85      0.00
   27   13   36      7.51      0.00
   29   13   36      3.14      0.00
   31   13   36     -7.28      0.00
    0   14   36    -12.80      0.00
    2   14   36    -15.22      0.00
    4   14   36     17.62      0.00
    6   14   36     25.28      0.00
    8   14   36    -10.75      0.00
   10   14   36    -22.07      0.00
   12   14   36     -9.09      0.00
   14   14   36     -3.52      0.00
   16   14   36      5.84      0.00
   18   14   36     -0.41      0.00
   20   14   36     -4.60      0.00
   22   14   36    -15.85      0.00
   24   14   36     -9.97      0.00
   26   14   36     -6.27      0.00
   28   14   36     -5.64      0.00
   30   14   36      4.34      0.00
    1   15   36     11.74      0.00
    3   15   36    -41.05      0.00
    5   15   36      0.76      0.00
    7   15   36      2.77      0.00
    9   15   36      6.21      0.00
   11   15   36     20.06      0.00
   13   15   36     11.26      0.00
   15   15   36    -17.40      0.00
   17   15   36    -13.10      0.00
   19   15   36    -18.78      0.00
   21   15   36     -1.71      0.00
   23   15   36     13.61      0.00
   25   15   36     18.47      0.00
   27   15   36    -13.25      0.00
   29   15   36     -7.53      0.00
   31   15   36      3.49      0.00
    0   16   36     23.77      0.00
    2   16   36     -6.79      0.00
    4   16   36      0.42      0.00
    6   16   36     29.53      0.00
    8   16   36     -6.87      0.00
   10   16   36     11.29      0.00
   12   16   36     23.11      0.00
   14   16   36      4.84      0.00
   16   16   36    -13.96      0.00
   18   16   36     -7.24      0.00
   20   16   36      4.10      0.00
   22   16   36    -18.21      0.00
   24   16   36    -15.51      0.00
   26   16   36     15.52      0.00
   28   16   36     -1.33      0.00
   30   16   36     16.70      0.00
    1   17   36      9.59      0.00
    3   17   36     -2.71      0.00
    5   17   36     10.99      0.00
    7   17   36     -0.99      0.00
    9   17   36      1.36      0.00
   11   17   36      9.42      0.00
   13   17   36      3.99      0.00
   15   17   36    -12.22      0.00
   17   17   36    -15.24      0.00
   19   17   36    -19.14      0.00
   21   17   36      0.72      0.00
   23   17   36      6.53      0.00
   25   17   36     10.24      0.00
   27   17   36     -9.90      0.00
   29   17   36    -17.65      0.00
    0   18   36     -5.43      0.00
    2   18   36      6.16      0.00
    4   18   36    -12.48      0.00
    6   18   36     14.64      0.00
    8   18   36     -6.46      0.00
   10   18   36    -11.86      0.00
   12   18   36     -9.69      0.00
   14   18   36      0.65      0.00
   16   18   36    -12.15      0.00
   18   18   36     -3.43      0.00
   20   18   36     -4.80      0.00
   22   18   36      1.34      0.00
   24   18   36      4.80      0.00
   26   18   36     24.81      0.00
   28   18   36     -4.45      0.00
    1   19   36      2.36      0.00
    3   19   36     -0.40      0.00
    5   19   36     -1.53      0.00
    7   19   36      2.06      0.00
    9   19   36     -1.33      0.00
   11   19   36     -3.48      0.00
   13   19   36     -1.87      0.00
   15   19   36     -4.45      0.00
   17   19   36    -13.50      0.00
   19   19   36    -18.40      0.00
   21   19   36     -9.33      0.00
   23   19   36      2.03      0.00
   25   19   36      1.20      0.00
   27   19   36     -1.10      0.00
    0   20   36     18.64      0.00
    2   20   36      0.51      0.00
    4   20   36    -19.59      0.00
    6   20   36     19.68      0.00
    8   20   36    -23.10      0.00
   10   20   36      6.38      0.00
   12   20   36    -10.72      0.00
   14   20   36     11.55      0.00
   16   20   36     12.31      0.00
   18   20   36     20.81      0.00
   20   20   36     14.95      0.00
   22   20   36     -0.13      0.00
   24   20   36     15.20      0.00
   26   20   36     21.31      0.00
   28   20   36     -9.01      0.00
    1   21   36     29.48      0.00
    3   21   36     -4.68      0.00
    5   21   36     20.76      0.00
    7   21   36      0.79      0.00
    9   21   36    -11.49      0.00
   11   21   36      4.60      0.00
   13   21   36     -3.10      0.00
   15   21   36    -12.14      0.00
   17   21   36     -2.90      0.00
   19   21   36      7.70      0.00
   21   21   36    -11.45      0.00
   23   21   36     -7.26      0.00
   25   21   36     -0.59      0.00
   27   21   36     -1.71      0.00
    0   22   36      0.88      0.00
    2   22   36     -0.91      0.00
    4   22   36    -18.20      0.00
    6   22   36     10.90      0.00
    8   22   36    -10.92      0.00
   10   22   36      5.82      0.00
   12   22   36      4.97      0.00
   14   22   36      1.01      0.00
   16   22   36    -10.89      0.00
   18   22   36     14.45      0.00
   20   22   36     12.05      0.00
   22   22   36     10.14      0.00
   24   22   36     -5.13      0.00
   26   22   36     -9.98      0.00
    1   23   36     14.47      0.00
    3   23   36     15.74      0.00
    5   23   36      0.18      0.00
    7   23   36     -3.03      0.00
    9   23   36     12.49      0.00
   11   23   36     26.67      0.00
   13   23   36     22.94      0.00
   15   23   36    -12.11      0.00
   17   23   36      3.73      0.00
   19   23   36      5.43      0.00
   21   23   36     -3.19      0.00
   23   23   36    -11.24      0.00
   25   23   36     -9.95      0.00
    0   24   36      4.04      0.00
    2   24   36     11.52      0.00
    4   24   36     -7.13      0.00
    6   24   36     -8.65      0.00
    8   24   36     -6.14      0.00
   10   24   36      4.48      0.00
   12   24   36     14.56      0.00
   14   24   36      0.04      0.00
   16   24   36    -23.69      0.00
   18   24   36     -3.87      0.00
   20   24   36     12.47      0.00
   22   24   36     26.13      0.00
   24   24   36    -10.35      0.00
    1   25   36     -7.26      0.00
    3   25   36     -2.69      0.00
    5   25   36     -2.60      0.00
    7   25   36      5.14      0.00
    9   25   36      5.48      0.00
   11   25   36     12.09      0.00
   13   25   36     13.66      0.00
   15   25   36     -5.92      0.00
   17   25   36      2.93      0.00
   19   25   36     -2.64      0.00
   21   25   36      3.74      0.00
   23   25   36      4.05      0.00
    0   26   36     -2.99      0.00
    2   26   36    -23.54      0.00
    4   26   36    -17.62      0.00
    6   26   36      1.47      0.00
    8   26   36    -16.98      0.00
   10   26   36     -3.60      0.00
   12   26   36     -7.27      0.00
   14   26   36    -10.62      0.00
   16   26   36    -19.04      0.00
   18   26   36      3.22      0.00
   20   26   36     18.16      0.00
   22   26   36      1.95      0.00
    1   27   36     -8.28      0.00
    3   27   36    -24.50      0.00
    5   27   36     -3.36      0.00
    7   27   36      4.86      0.00
    9   27   36    -11.53      0.00
   11   27   36      2.62      0.00
   13   27   36     14.02      0.00
   15   27   36     11.60      0.00
   17   27   36     -9.99      0.00
   19   27   36     -3.64      0.00
   21   27   36    -15.39      0.00
    0   28   36    -26.34      0.00
    2   28   36    -13.76      0.00
    4   28   36    -12.07      0.00
    6   28   36     -6.53      0.00
    8   28   36     13.63      0.00
   10   28   36      8.41      0.00
   12   28   36     11.03      0.00
   14   28   36      5.56      0.00
   16   28   36      0.63      0.00
   18   28   36      6.67      0.00
   20   28   36     -0.74      0.00
    1   29   36    -23.24      0.00
    3   29   36     -3.60      0.00
    5   29   36     -3.78      0.00
    7   29   36     24.27      0.00
    9   29   36      2.95      0.00
   11   29   36     -9.78      0.00
   13   29   36      2.13      0.00
   15   29   36      1.47      0.00
   17   29   36     -6.82      0.00
    0   30   36     -1.31      0.00
    2   30   36    -12.16      0.00
    4   30   36    -10.93      0.00
    6   30   36    -11.30      0.00
    8   30   36      9.45      0.00
   10   30   36    -11.34      0.00
   12   30   36    -10.59      0.00
   14   30   36     11.37      0.00
   16   30   36     19.37      0.00
    1   31   36     -0.42      0.00
    3   31   36     -0.41      0.00
    5   31   36      7.90      0.00
    7   31   36     22.70      0.00
    9   31   36     11.89      0.00
   11   31   36     10.49      0.00
   13   31   36      5.40      0.00
   15   31   36      9.61      0.00
    0   32   36     13.65      0.00
    2   32   36    -16.17      0.00
    4   32   36    -18.77      0.00
    6   32   36     -0.27      0.00
    8   32   36     10.83      0.00
   10   32   36     -0.91      0.00
   12   32   36     -2.84      0.00
    1   33   36     20.73      0.00
    3   33   36     12.41      0.00
    5   33   36     -4.10      0.00
    7   33   36     -3.39      0.00
    9   33   36    -12.51      0.00
    0   34   36    -11.00      0.00
    2   34   36     13.06      0.00
    4   34   36     13.73      0.00
    1    0   37    -14.84      0.00
    3    0   37     -7.73      0.00
    5    0   37     13.93      0.00
    7    0   37     -4.95      0.00
    9    0   37     -6.72      0.00
   11    0   37     -0.53      0.00
   13    0   37      7.58      0.00
   15    0   37     -7.41      0.00
   17    0   37     21.54      0.00
   19    0   37      0.41      0.00
   21    0   37    -14.47      0.00
   23    0   37     -4.66      0.00
   25    0   37     -6.54      0.00
   27    0   37     19.73      0.00
   29    0   37      8.21      0.00
   31    0   37    -16.04      0.00
   33    0   37    -15.55      0.00
    0    1   37     14.37      0.00
    2    1   37     -6.93      0.00
    4    1   37      7.52      0.00
    6    1   37     -7.84      0.00
    8    1   37    -10.59      0.00
   10    1   37     -7.90      0.00
   12    1   37      2.34      0.00
   14    1   37     -9.50      0.00
   16    1   37      5.01      0.00
   18    1   37     -0.96      0.00
   20    1   37     -6.72      0.00
   22    1   37     -4.93      0.00
   24    1   37    -12.35      0.00
   26    1   37      2.85      0.00
   28    1   37      4.25      0.00
   30    1   37      6.42      0.00
   32    1   37      5.41      0.00
    1    2   37      9.91      0.00
    3    2   37      4.55      0.00
    5    2   37      9.01      0.00
    7    2   37      2.33      0.00
    9    2   37     13.67      0.00
   11    2   37     10.18      0.00
   13    2   37      8.40      0.00
   15    2   37      4.73      0.00
   17    2   37     14.82      0.00
   19    2   37     -1.22      0.00
   21    2   37     -3.08      0.00
   23    2   37     -0.85      0.00
   25    2   37     -5.06      0.00
   27    2   37      7.70      0.00
   29    2   37     -1.74      0.00
   31    2   37     -5.82      0.00
   33    2   37     -0.27      0.00
    0    3   37     21.37      0.00
    2    3   37     -9.01      0.00
    4    3   37    -12.53      0.00
    6    3   37      1.67      0.00
    8    3   37      3.83      0.00
   10    3   37     -3.74      0.00
   12    3   37      5.72      0.00
   14    3   37      1.85      0.00
   16    3   37      9.25      0.00
   18    3   37     -5.28      0.00
   20    3   37    -26.51      0.00
   22    3   37     -3.06      0.00
   24    3   37     13.97      0.00
   26    3   37     -4.70      0.00
   28    3   37    -12.70      0.00
   30    3   37      8.46      0.00
   32    3   37      2.48      0.00
    1    4   37      6.84      0.00
    3    4   37     -8.92      0.00
    5    4   37     -5.90      0.00
    7    4   37     -0.81      0.00
    9    4   37      8.34      0.00
   11    4   37      5.35      0.00
   13    4   37     10.60      0.00
   15    4   37     -4.31      0.00
   17    4   37     -2.21      0.00
   19    4   37     -5.16      0.00
   21    4   37      1.52      0.00
   23    4   37      7.77      0.00
   25    4   37      2.68      0.00
   27    4   37     -4.11      0.00
   29    4   37      6.40      0.00
   31    4   37     10.80      0.00
   33    4   37     -0.77      0.00
    0    5   37      4.41      0.00
    2    5   37      0.65      0.00
    4    5   37      4.03      0.00
    6    5   37     -2.73      0.00
    8    5   37      4.53      0.00
   10    5   37      1.94      0.00
   12    5   37    -11.12      0.00
   14    5   37     -1.55      0.00
   16    5   37     -4.15      0.00
   18    5   37     -8.29      0.00
   20    5   37      6.42      0.00
   22    5   37     11.31      0.00
   24    5   37     -2.36      0.00
   26    5   37      2.90      0.00
   28    5   37    -11.92      0.00
   30    5   37      5.59      0.00
   32    5   37     -8.04      0.00
    1    6   37     -4.01      0.00
    3    6   37     -1.74      0.00
    5    6   37      2.27      0.00
    7    6   37     -3.84      0.00
    9    6   37      7.97      0.00
   11    6   37      1.66      0.00
   13    6   37      7.31      0.00
   15    6   37     -5.11      0.00
   17    6   37      2.65      0.00
   19    6   37      5.70      0.00
   21    6   37      9.36      0.00
   23    6   37      3.57      0.00
   25    6   37    -12.25      0.00
   27    6   37     -9.77      0.00
   29    6   37     13.83      0.00
   31    6   37      1.12      0.00
    0    7   37      3.91      0.00
    2    7   37     -6.13      0.00
    4    7   37      0.42      0.00
    6    7   37      6.03      0.00
    8    7   37     -7.16      0.00
   10    7   37      7.07      0.00
   12    7   37     -7.84      0.00
   14    7   37    -25.03      0.00
   16    7   37    -13.22      0.00
   18    7   37      9.23      0.00
   20    7   37     -1.35      0.00
   22    7   37     10.29      0.00
   24    7   37     -3.02      0.00
   26    7   37     -7.62      0.00
   28    7   37      4.74      0.00
   30    7   37      1.73      0.00
   32    7   37    -35.34      0.00
    1    8   37      1.06      0.00
    3    8   37     -3.41      0.00
    5    8   37      7.68      0.00
    7    8   37      0.80      0.00
    9    8   37     -0.05      0.00
   11    8   37    -10.66      0.00
   13    8   37    -17.53      0.00
   15    8   37     -4.12      0.00
   17    8   37      6.98      0.00
   19    8   37      0.07      0.00
   21    8   37      0.46      0.00
   23    8   37     -3.80      0.00
   25    8   37    -26.34      0.00
   27    8   37    -13.40      0.00
   29    8   37      6.46      0.00
   31    8   37     -6.37      0.00
    0    9   37      6.60      0.00
    2    9   37     -3.04      0.00
    4    9   37     -6.31      0.00
    6    9   37      0.82      0.00
    8    9   37      3.04      0.00
   10    9   37     14.73      0.00
   12    9   37    -13.22      0.00
   14    9   37     -5.15      0.00
   16    9   37     10.56      0.00
   18    9   37     -4.58      0.00
   20    9   37     -9.53      0.00
   22    9   37     18.72      0.00
   24    9   37     11.56      0.00
   26    9   37     -7.51      0.00
   28    9   37     -2.39      0.00
   30    9   37      5.73      0.00
   32    9   37    -24.92      0.00
    1   10   37     -0.21      0.00
    3   10   37     -5.96      0.00
    5   10   37     -1.58      0.00
    7   10   37      5.63      0.00
    9   10   37     19.03      0.00
   11   10   37      7.97      0.00
   13   10   37      5.80      0.00
   15   10   37     -1.18      0.00
   17   10   37    -11.70      0.00
   19   10   37      4.91      0.00
   21   10   37     -2.45      0.00
   23   10   37      1.18      0.00
   25   10   37      0.99      0.00
   27   10   37     -6.80      0.00
   29   10   37     -0.96      0.00
   31   10   37      0.14      0.00
    0   11   37      0.39      0.00
    2   11   37      2.59      0.00
    4   11   37     -7.48      0.00
    6   11   37    -20.41      0.00
    8   11   37     -0.32      0.00
   10   11   37     -0.81      0.00
   12   11   37    -11.95      0.00
   14   11   37      9.89      0.00
   16   11   37     -5.35      0.00
   18   11   37    -19.46      0.00
   20   11   37      2.97      0.00
   22   11   37     13.59      0.00
   24   11   37      9.44      0.00
   26   11   37     -1.24      0.00
   28   11   37     -0.04      0.00
   30   11   37     21.35      0.00
    1   12   37     -5.84      0.00
    3   12   37     -0.67      0.00
    5   12   37      2.58      0.00
    7   12   37     -2.00      0.00
    9   12   37      1.62      0.00
   11   12   37     -6.62      0.00
   13   12   37     -1.01      0.00
   15   12   37      5.78      0.00
   17   12   37     -7.82      0.00
   19   12   37      4.61      0.00
   21   12   37    -10.54      0.00
   23   12   37     -3.61      0.00
   25   12   37      8.90      0.00
   27   12   37     -1.86      0.00
   29   12   37     -7.33      0.00
   31   12   37     -9.95      0.00
    0   13   37     -0.16      0.00
    2   13   37    -16.25      0.00
    4   13   37     -0.49      0.00
    6   13   37     17.01      0.00
    8   13   37     -1.17      0.00
   10   13   37      1.93      0.00
   12   13   37     -2.58      0.00
   14   13   37     -1.08      0.00
   16   13   37     14.47      0.00
   18   13   37     -7.04      0.00
   20   13   37    -16.85      0.00
   22   13   37    -10.15      0.00
   24   13   37      0.05      0.00
   26   13   37    -21.06      0.00
   28   13   37      0.60      0.00
   30   13   37     16.68      0.00
    1   14   37      6.06      0.00
    3   14   37    -15.14      0.00
    5   14   37      5.11      0.00
    7   14   37     -8.53      0.00
    9   14   37    -15.78      0.00
   11   14   37      2.05      0.00
   13   14   37     -9.46      0.00
   15   14   37      8.51      0.00
   17   14   37     -2.87      0.00
   19   14   37    -22.11      0.00
   21   14   37    -26.09      0.00
   23   14   37     -3.17      0.00
   25   14   37     -6.29      0.00
   27   14   37     -8.39      0.00
   29   14   37      1.22      0.00
    0   15   37     11.09      0.00
    2   15   37    -10.22      0.00
    4   15   37     -0.41      0.00
    6   15   37      1.03      0.00
    8   15   37      0.34      0.00
   10   15   37     24.02      0.00
   12   15   37     -6.33      0.00
   14   15   37    -12.48      0.00
   16   15   37     13.92      0.00
   18   15   37    -11.81      0.00
   20   15   37     15.32      0.00
   22   15   37      8.79      0.00
   24   15   37     -6.80      0.00
   26   15   37    -20.62      0.00
   28   15   37     -4.11      0.00
    1   16   37      0.94      0.00
    3   16   37     -9.91      0.00
    5   16   37     16.05      0.00
    7   16   37     -5.55      0.00
    9   16   37     -4.15      0.00
   11   16   37     -3.37      0.00
   13   16   37     -1.70      0.00
   15   16   37     19.72      0.00
   17   16   37     -3.73      0.00
   19   16   37     -2.18      0.00
   21   16   37      0.87      0.00
   23   16   37     -7.04      0.00
   25   16   37      1.11      0.00
   27   16   37      4.18      0.00
   29   16   37     -2.12      0.00
    0   17   37      7.57      0.00
    2   17   37     -8.85      0.00
    4   17   37      6.69      0.00
    6   17   37    -12.03      0.00
    8   17   37     -7.60      0.00
   10   17   37      1.02      0.00
   12   17   37     -6.79      0.00
   14   17   37    -15.65      0.00
   16   17   37    -19.50      0.00
   18   17   37    -18.51      0.00
   20   17   37     20.04      0.00
   22   17   37     11.41      0.00
   24   17   37     -5.00      0.00
   26   17   37     -7.71      0.00
   28   17   37      3.23      0.00
    1   18   37      1.41      0.00
    3   18   37    -16.05      0.00
    5   18   37     -1.02      0.00
    7   18   37    -13.63      0.00
    9   18   37      6.81      0.00
   11   18   37      2.02      0.00
   13   18   37      5.06      0.00
   15   18   37     13.76      0.00
   17   18   37     -5.30      0.00
   19   18   37    -25.49      0.00
   21   18   37    -13.45      0.00
   23   18   37     -3.88      0.00
   25   18   37      5.57      0.00
   27   18   37     -3.72      0.00
    0   19   37     -0.30      0.00
    2   19   37     -6.57      0.00
    4   19   37     34.37      0.00
    6   19   37      4.81      0.00
    8   19   37     -6.49      0.00
   10   19   37      5.15      0.00
   12   19   37     -1.22      0.00
   14   19   37    -18.33      0.00
   16   19   37     -8.92      0.00
   18   19   37      2.64      0.00
   20   19   37     11.47      0.00
   22   19   37     16.46      0.00
   24   19   37      2.98      0.00
   26   19   37      6.03      0.00
    1   20   37     -0.11      0.00
    3   20   37    -28.34      0.00
    5   20   37    -24.08      0.00
    7   20   37    -12.28      0.00
    9   20   37      9.33      0.00
   11   20   37     12.50      0.00
   13   20   37      4.11      0.00
   15   20   37    -24.22      0.00
   17   20   37    -19.09      0.00
   19   20   37    -33.26      0.00
   21   20   37     -7.34      0.00
   23   20   37     14.99      0.00
   25   20   37     15.12      0.00
    0   21   37    -11.69      0.00
    2   21   37    -16.67      0.00
    4   21   37     -2.08      0.00
    6   21   37     -6.87      0.00
    8   21   37      5.46      0.00
   10   21   37      2.49      0.00
   12   21   37     -9.18      0.00
   14   21   37    -12.65      0.00
   16   21   37     -0.69      0.00
   18   21   37     10.56      0.00
   20   21   37     -4.95      0.00
   22   21   37    -10.72      0.00
   24   21   37    -22.32      0.00
    1   22   37     12.49      0.00
    3   22   37     -8.80      0.00
    5   22   37      4.58      0.00
    7   22   37      1.08      0.00
    9   22   37      2.54      0.00
   11   22   37     26.12      0.00
   13   22   37     28.32      0.00
   15   22   37     -0.37      0.00
   17   22   37     -3.71      0.00
   19   22   37      0.96      0.00
   21   22   37     -1.41      0.00
   23   22   37     -7.59      0.00
   25   22   37      6.99      0.00
    0   23   37      9.27      0.00
    2   23   37      6.36      0.00
    4   23   37     -4.83      0.00
    6   23   37      3.72      0.00
    8   23   37      8.04      0.00
   10   23   37      6.35      0.00
   12   23   37      6.96      0.00
   14   23   37      6.96      0.00
   16   23   37     -4.27      0.00
   18   23   37    -17.71      0.00
   20   23   37    -21.40      0.00
   22   23   37      0.76      0.00
   24   23   37     -4.16      0.00
    1   24   37     -0.74      0.00
    3   24   37     10.26      0.00
    5   24   37     11.77      0.00
    7   24   37     -1.08      0.00
    9   24   37     -5.41      0.00
   11   24   37      5.34      0.00
   13   24   37     -9.52      0.00
   15   24   37     -3.20      0.00
   17   24   37      9.04      0.00
   19   24   37      3.77      0.00
   21   24   37      6.85      0.00
   23   24   37     -3.53      0.00
    0   25   37     16.14      0.00
    2   25   37     18.89      0.00
    4   25   37      2.60      0.00
    6   25   37    -15.63      0.00
    8   25   37    -24.40      0.00
   10   25   37      4.92      0.00
   12   25   37     12.17      0.00
   14   25   37     20.42      0.00
   16   25   37     13.30      0.00
   18   25   37    -11.83      0.00
   20   25   37     -9.49      0.00
   22   25   37      0.08      0.00
    1   26   37     -4.02      0.00
    3   26   37      4.31      0.00
    5   26   37     12.25      0.00
    7   26   37      8.06      0.00
    9   26   37     -4.37      0.00
   11   26   37     -3.95      0.00
   13   26   37     -6.37      0.00
   15   26   37     12.51      0.00
   17   26   37     32.80      0.00
   19   26   37      7.50      0.00
    0   27   37      7.31      0.00
    2   27   37      3.79      0.00
    4   27   37      0.15      0.00
    6   27   37     -1.55      0.00
    8   27   37    -12.89      0.00
   10   27   37      2.56      0.00
   12   27   37     12.26      0.00
   14   27   37     -4.55      0.00
   16   27   37     -3.57      0.00
   18   27   37     -4.40      0.00
    1   28   37     13.90      0.00
    3   28   37    -26.08      0.00
    5   28   37      5.85      0.00
    7   28   37      2.69      0.00
    9   28   37      2.55      0.00
   11   28   37      5.99      0.00
   13   28   37     -1.19      0.00
   15   28   37      7.42      0.00
   17   28   37      9.15      0.00
    0   29   37     21.69      0.00
    2   29   37     -2.87      0.00
    4   29   37     10.17      0.00
    6   29   37     15.63      0.00
    8   29   37      2.40      0.00
   10   29   37      8.78      0.00
   12   29   37     -4.94      0.00
   14   29   37     -3.57      0.00
   16   29   37     11.44      0.00
    1   30   37    -26.49      0.00
    3   30   37    -26.83      0.00
    5   30   37      4.81      0.00
    7   30   37     -9.88      0.00
    9   30   37     -0.56      0.00
   11   30   37      0.73      0.00
   13   30   37     -3.18      0.00
    0   31   37     -8.73      0.00
    2   31   37    -27.22      0.00
    4   31   37      0.03      0.00
    6   31   37     15.91      0.00
    8   31   37     11.28      0.00
   10   31   37     -5.89      0.00
   12   31   37    -21.89      0.00
    1   32   37     10.12      0.00
    3   32   37     -2.66      0.00
    5   32   37      5.66      0.00
    7   32   37     -5.10      0.00
    9   32   37      9.10      0.00
    0   33   37     -2.00      0.00
    2   33   37    -22.96      0.00
    4   33   37      0.18      0.00
    0    0   38     40.58      0.00
    2    0   38     12.80      0.00
    4    0   38    -15.92      0.00
    6    0   38    -25.21      0.00
    8    0   38     -9.67      0.00
   10    0   38     21.39      0.00
   12    0   38     -9.04      0.00
   14    0   38    -20.26      0.00
   16    0   38    -11.06      0.00
   18    0   38    -11.95      0.00
   20    0   38     17.24      0.00
   22    0   38     13.88      0.00
   24    0   38    -16.31      0.00
   26    0   38     10.63      0.00
   28    0   38      1.43      0.00
   30    0   38    -14.48      0.00
   32    0   38     37.70      0.00
    1    1   38     10.84      0.00
    3    1   38     -5.49      0.00
    5    1   38     -6.13      0.00
    7    1   38    -24.86      0.00
    9    1   38    -17.65      0.00
   11    1   38      3.39      0.00
   13    1   38     -6.91      0.00
   15    1   38     -8.12      0.00
   17    1   38    -16.94      0.00
   19    1   38    -13.02      0.00
   21    1   38    -12.64      0.00
   23    1   38    -18.14      0.00
   25    1   38      2.42      0.00
   27    1   38     33.40      0.00
   29    1   38      9.34      0.00
   31    1   38     11.51      0.00
    0    2   38     27.56      0.00
    2    2   38      3.91      0.00
    4    2   38    -12.99      0.00
    6    2   38     -1.30      0.00
    8    2   38      1.09      0.00
   10    2   38     11.22      0.00
   12    2   38     27.65      0.00
   14    2   38     -2.47      0.00
   16    2   38     -7.67      0.00
   18    2   38     18.21      0.00
   20    2   38      0.25      0.00
   22    2   38      2.00      0.00
   24    2   38     10.35      0.00
   26    2   38      7.10      0.00
   28    2   38      4.53      0.00
   30    2   38     10.24      0.00
   32    2   38      7.80      0.00
    1    3   38      9.06      0.00
    3    3   38     -5.03      0.00
    5    3   38     -6.58      0.00
    7    3   38     -7.74      0.00
    9    3   38     -4.97      0.00
   11    3   38     -7.34      0.00
   13    3   38     -5.59      0.00
   15    3   38     -7.62      0.00
   17    3   38      6.57      0.00
   19    3   38      7.10      0.00
   21    3   38     -2.42      0.00
   23    3   38     -8.98      0.00
   25    3   38     -2.17      0.00
   27    3   38     -5.51      0.00
   29    3   38     -0.14      0.00
   31    3   38     19.23      0.00
    0    4   38      4.13      0.00
    2    4   38     -1.92      0.00
    4    4   38     13.63      0.00
    6    4   38     17.11      0.00
    8    4   38      2.58      0.00
   10    4   38     -3.24      0.00
   12    4   38      7.02      0.00
   14    4   38     -0.94      0.00
   16    4   38      2.30      0.00
   18    4   38      2.75      0.00
   20    4   38     -5.43      0.00
   22    4   38      3.66      0.00
   24    4   38      2.37      0.00
   26    4   38     -2.02      0.00
   28    4   38      2.27      0.00
   30    4   38     12.88      0.00
    1    5   38     -1.96      0.00
    3    5   38     -9.70      0.00
    5    5   38     10.68      0.00
    7    5   38     -2.07      0.00
    9    5   38     -5.58      0.00
   11    5   38    -11.36      0.00
   13    5   38     -3.42      0.00
   15    5   38      7.98      0.00
   17    5   38      6.10      0.00
   19    5   38      5.21      0.00
   21    5   38     19.71      0.00
   23    5   38     11.32      0.00
   25    5   38     -9.41      0.00
   27    5   38     -7.17      0.00
   29    5   38     -4.92      0.00
   31    5   38      4.80      0.00
    0    6   38    -22.50      0.00
    2    6   38     -6.86      0.00
    4    6   38     20.57      0.00
    6    6   38     28.71      0.00
    8    6   38      2.43      0.00
   10    6   38    -36.58      0.00
   12    6   38    -20.41      0.00
   14    6   38      0.77      0.00
   16    6   38      1.24      0.00
   18    6   38      3.08      0.00
   20    6   38     10.94      0.00
   22    6   38     -1.24      0.00
   24    6   38    -18.67      0.00
   26    6   38      4.09      0.00
   28    6   38     16.30      0.00
   30    6   38     -5.94      0.00
    1    7   38     -4.86      0.00
    3    7   38      4.55      0.00
    5    7   38      4.67      0.00
    7    7   38     11.48      0.00
    9    7   38      4.73      0.00
   11    7   38     -5.67      0.00
   13    7   38      7.71      0.00
   15    7   38    -13.87      0.00
   17    7   38    -13.47      0.00
   19    7   38      5.81      0.00
   21    7   38      8.88      0.00
   23    7   38     -6.67      0.00
   25    7   38    -20.18      0.00
   27    7   38     -7.63      0.00
   29    7   38    -22.26      0.00
   31    7   38    -10.53      0.00
    0    8   38     -0.27      0.00
    2    8   38     10.12      0.00
    4    8   38     10.11      0.00
    6    8   38     30.21      0.00
    8    8   38      9.48      0.00
   10    8   38    -22.64      0.00
   12    8   38      3.41      0.00
   14    8   38      1.59      0.00
   16    8   38      2.04      0.00
   18    8   38     21.28      0.00
   20    8   38    -12.63      0.00
   22    8   38    -15.94      0.00
   24    8   38     -4.81      0.00
   26    8   38     -2.78      0.00
   28    8   38      0.64      0.00
   30    8   38     -1.61      0.00
    1    9   38     -3.28      0.00
    3    9   38      2.09      0.00
    5    9   38      9.59      0.00
    7    9   38     -8.11      0.00
    9    9   38     -1.59      0.00
   11    9   38     13.53      0.00
   13    9   38      4.44      0.00
   15    9   38    -25.08      0.00
   17    9   38    -11.98      0.00
   19    9   38     -7.85      0.00
   21    9   38    -14.13      0.00
   23    9   38    -14.83      0.00
   25    9   38    -10.32      0.00
   27    9   38      8.78      0.00
   29    9   38     -6.65      0.00
    0   10   38     11.02      0.00
    2   10   38     13.67      0.00
    4   10   38    -10.28      0.00
    6   10   38    -20.46      0.00
    8   10   38    -10.49      0.00
   10   10   38     22.41      0.00
   12   10   38      0.82      0.00
   14   10   38     -4.04      0.00
   16   10   38     -3.11      0.00
   18   10   38     -9.02      0.00
   20   10   38      3.85      0.00
   22   10   38     15.99      0.00
   24   10   38     -1.41      0.00
   26   10   38     -9.60      0.00
   28   10   38    -10.47      0.00
   30   10   38    -20.65      0.00
    1   11   38     -2.95      0.00
    3   11   38      8.69      0.00
    5   11   38     12.84      0.00
    7   11   38     -9.27      0.00
    9   11   38      5.05      0.00
   11   11   38      1.70      0.00
   13   11   38     -2.34      0.00
   15   11   38      3.76      0.00
   17   11   38    -13.12      0.00
   19   11   38     -1.85      0.00
   21   11   38      6.18      0.00
   23   11   38      3.78      0.00
   25   11   38     11.75      0.00
   27   11   38     32.73      0.00
   29   11   38      8.01      0.00
    0   12   38      7.46      0.00
    2   12   38     19.77      0.00
    4   12   38    -19.18      0.00
    6   12   38    -17.74      0.00
    8   12   38     -3.57      0.00
   10   12   38      5.99      0.00
   12   12   38     15.77      0.00
   14   12   38      5.59      0.00
   16   12   38    -20.83      0.00
   18   12   38    -12.35      0.00
   20   12   38     -6.35      0.00
   22   12   38     -5.98      0.00
   24   12   38    -11.44      0.00
   26   12   38    -21.62      0.00
   28   12   38     -3.39      0.00
    1   13   38      2.79      0.00
    3   13   38      7.34      0.00
    5   13   38     -6.11      0.00
    7   13   38      5.89      0.00
    9   13   38     -3.42      0.00
   11   13   38    -22.26      0.00
   13   13   38     -7.91      0.00
   15   13   38     -6.87      0.00
   17   13   38      0.74      0.00
   19   13   38     -6.25      0.00
   21   13   38     -2.47      0.00
   23   13   38     12.02      0.00
   25   13   38     -3.44      0.00
   27   13   38     -6.05      0.00
   29   13   38    -14.99      0.00
    0   14   38      3.07      0.00
    2   14   38      2.87      0.00
    4   14   38      3.35      0.00
    6   14   38     19.01      0.00
    8   14   38     -0.68      0.00
   10   14   38     -9.44      0.00
   12   14   38     13.80      0.00
   14   14   38      1.68      0.00
   16   14   38     -3.70      0.00
   18   14   38     10.64      0.00
   20   14   38    -11.12      0.00
   22   14   38     -6.98      0.00
   24   14   38     -0.99      0.00
   26   14   38     -7.20      0.00
   28   14   38    -13.19      0.00
    1   15   38      9.33      0.00
    3   15   38    -25.00      0.00
    5   15   38      3.66      0.00
    7   15   38      0.33      0.00
    9   15   38      7.61      0.00
   11   15   38      6.13      0.00
   13   15   38      7.28      0.00
   15   15   38    -33.52      0.00
   17   15   38    -16.17      0.00
   19   15   38     -1.11      0.00
   21   15   38     -0.33      0.00
   23   15   38     -6.59      0.00
   25   15   38     -7.83      0.00
   27   15   38    -27.75      0.00
    0   16   38     21.77      0.00
    2   16   38     -0.26      0.00
    4   16   38      3.76      0.00
    6   16   38      7.10      0.00
    8   16   38     -1.46      0.00
   10   16   38     -8.35      0.00
   12   16   38     -8.62      0.00
   14   16   38     -4.92      0.00
   16   16   38    -14.45      0.00
   18   16   38     12.16      0.00
   20   16   38      8.45      0.00
   22   16   38    -18.32      0.00
   24   16   38    -18.95      0.00
   26   16   38      2.18      0.00
    1   17   38     -9.64      0.00
    3   17   38    -15.09      0.00
    5   17   38      4.79      0.00
    7   17   38    -11.96      0.00
    9   17   38     -8.70      0.00
   11   17   38    -26.01      0.00
   13   17   38     11.42      0.00
   15   17   38     -4.51      0.00
   17   17   38    -12.39      0.00
   19   17   38     21.15      0.00
   21   17   38     12.90      0.00
   23   17   38    -29.68      0.00
   25   17   38      5.45      0.00
   27   17   38      2.36      0.00
    0   18   38      4.41      0.00
    2   18   38     14.59      0.00
    4   18   38      5.83      0.00
    6   18   38     11.49      0.00
    8   18   38     16.47      0.00
   10   18   38     -4.27      0.00
   12   18   38      0.33      0.00
   14   18   38      1.48      0.00
   16   18   38    -15.77      0.00
   18   18   38      6.25      0.00
   20   18   38     -1.79      0.00
   22   18   38    -17.22      0.00
   24   18   38     -1.87      0.00
   26   18   38     17.99      0.00
    1   19   38      0.32      0.00
    3   19   38      9.19      0.00
    5   19   38     -2.67      0.00
    7   19   38     -6.58      0.00
    9   19   38      6.56      0.00
   11   19   38     -6.72      0.00
   13   19   38      5.15      0.00
   15   19   38     -7.62      0.00
   17   19   38     -4.82      0.00
   19   19   38    -17.74      0.00
   21   19   38    -22.40      0.00
   23   19   38    -15.68      0.00
   25   19   38     -8.39      0.00
    0   20   38      4.23      0.00
    2   20   38     -1.30      0.00
    4   20   38     -6.04      0.00
    6   20   38     -4.69      0.00
    8   20   38     -4.12      0.00
   10   20   38     19.89      0.00
   12   20   38     -2.67      0.00
   14   20   38    -13.56      0.00
   16   20   38    -10.13      0.00
   18   20   38      9.63      0.00
   20   20   38    -10.51      0.00
   22   20   38    -11.77      0.00
   24   20   38     16.82      0.00
    1   21   38     -1.80      0.00
    3   21   38    -13.27      0.00
    5   21   38      4.89      0.00
    7   21   38    -19.69      0.00
    9   21   38      1.34      0.00
   11   21   38      5.36      0.00
   13   21   38     17.13      0.00
   15   21   38     -0.51      0.00
   17   21   38     -8.31      0.00
   19   21   38     -3.24      0.00
   21   21   38    -19.69      0.00
   23   21   38     -7.47      0.00
    0   22   38     18.41      0.00
    2   22   38      4.66      0.00
    4   22   38    -10.60      0.00
    6   22   38     -3.37      0.00
    8   22   38      0.48      0.00
   10   22   38      9.63      0.00
   12   22   38     -1.25      0.00
   14   22   38      0.34      0.00
   16   22   38    -24.43      0.00
   18   22   38    -14.24      0.00
   20   22   38     -4.23      0.00
   22   22   38     10.00      0.00
    1   23   38      9.50      0.00
    3   23   38     -2.00      0.00
    5   23   38    -11.93      0.00
    7   23   38    -13.97      0.00
    9   23   38     10.45      0.00
   11   23   38     20.37      0.00
   13   23   38     30.79      0.00
   15   23   38      3.78      0.00
   17   23   38    -30.80      0.00
   19   23   38     -2.19      0.00
   21   23   38      9.91      0.00
    0   24   38      1.08      0.00
    2   24   38     14.88      0.00
    4   24   38     -4.08      0.00
    6   24   38     -1.11      0.00
    8   24   38    -11.27      0.00
   10   24   38     -4.02      0.00
   12   24   38      8.41      0.00
   14   24   38     15.00      0.00
   16   24   38     -2.38      0.00
   18   24   38     -5.49      0.00
   20   24   38      7.77      0.00
    1   25   38      2.68      0.00
    3   25   38      7.19      0.00
    5   25   38    -14.41      0.00
    7   25   38     -7.25      0.00
    9   25   38     -9.84      0.00
   11   25   38      7.81      0.00
   13   25   38    -12.05      0.00
   15   25   38    -18.43      0.00
   17   25   38    -14.26      0.00
   19   25   38     -4.31      0.00
    0   26   38    -11.63      0.00
    2   26   38     -5.04      0.00
    4   26   38     -3.68      0.00
    6   26   38     19.98      0.00
    8   26   38    -14.50      0.00
   10   26   38      0.80      0.00
   12   26   38     -8.30      0.00
   14   26   38     -4.87      0.00
   16   26   38     15.84      0.00
   18   26   38     27.64      0.00
    1   27   38     13.10      0.00
    3   27   38    -13.66      0.00
    5   27   38      0.57      0.00
    7   27   38     16.99      0.00
    9   27   38      4.65      0.00
   11   27   38     12.04      0.00
   13   27   38    -12.44      0.00
   15   27   38     13.69      0.00
   17   27   38      1.45      0.00
    0   28   38    -13.95      0.00
    2   28   38    -13.56      0.00
    4   28   38     -9.50      0.00
    6   28   38     18.30      0.00
    8   28   38      1.22      0.00
   10   28   38      2.63      0.00
   12   28   38     -7.63      0.00
   14   28   38    -13.34      0.00
    1   29   38      8.04      0.00
    3   29   38     -2.82      0.00
    5   29   38      2.12      0.00
    7   29   38     16.39      0.00
    9   29   38     -0.88      0.00
   11   29   38     -5.66      0.00
   13   29   38    -19.79      0.00
    0   30   38    -13.36      0.00
    2   30   38    -32.93      0.00
    4   30   38    -14.27      0.00
    6   30   38      0.94      0.00
    8   30   38     -0.75      0.00
   10   30   38     -7.84      0.00
    1   31   38      2.10      0.00
    3   31   38     -2.55      0.00
    5   31   38      9.79      0.00
    7   31   38     -9.33      0.00
    0   32   38      8.85      0.00
    2   32   38    -43.15      0.00
    1    0   39      9.36      0.00
    3    0   39     -3.88      0.00
    5    0   39      2.53      0.00
    7    0   39     11.03      0.00
    9    0   39      0.15      0.00
   11    0   39     -4.91      0.00
   13    0   39      5.65      0.00
   15    0   39      5.10      0.00
   17    0   39     -2.55      0.00
   19    0   39     -0.43      0.00
   21    0   39     11.52      0.00
   23    0   39     10.27      0.00
   25    0   39      0.92      0.00
   27    0   39      6.45      0.00
   29    0   39      5.90      0.00
   31    0   39     10.90      0.00
    0    1   39      6.17      0.00
    2    1   39     -0.10      0.00
    4    1   39      3.55      0.00
    6    1   39     -6.31      0.00
    8    1   39     17.40      0.00
   10    1   39      5.95      0.00
   12    1   39      1.02      0.00
   14    1   39      8.73      0.00
   16    1   39     12.00      0.00
   18    1   39     -0.37      0.00
   20    1   39     14.68      0.00
   22    1   39     -4.82      0.00
   24    1   39    -20.21      0.00
   26    1   39     -9.87      0.00
   28    1   39      6.69      0.00
   30    1   39     15.97      0.00
    1    2   39      3.18      0.00
    3    2   39     -5.37      0.00
    5    2   39      0.18      0.00
    7    2   39      7.27      0.00
    9    2   39     11.74      0.00
   11    2   39     -0.64      0.00
   13    2   39      9.70      0.00
   15    2   39      0.89      0.00
   17    2   39      0.10      0.00
   19    2   39     12.39      0.00
   21    2   39      1.70      0.00
   23    2   39     -4.10      0.00
   25    2   39     -0.02      0.00
   27    2   39     -3.28      0.00
   29    2   39      0.59      0.00
    0    3   39      9.07      0.00
    2    3   39     -3.26      0.00
    4    3   39      3.66      0.00
    6    3   39     -7.96      0.00
    8    3   39     -0.75      0.00
   10    3   39      8.31      0.00
   12    3   39     26.40      0.00
   14    3   39     20.96      0.00
   16    3   39     -3.79      0.00
   18    3   39     10.74      0.00
   20    3   39     14.50      0.00
   22    3   39      2.56      0.00
   24    3   39      5.72      0.00
   26    3   39     -2.32      0.00
   28    3   39     -6.12      0.00
   30    3   39     11.97      0.00
    1    4   39      0.96      0.00
    3    4   39     -3.45      0.00
    5    4   39      0.79      0.00
    7    4   39      0.70      0.00
    9    4   39      3.39      0.00
   11    4   39     -0.58      0.00
   13    4   39     17.70      0.00
   15    4   39      1.93      0.00
   17    4   39     -1.64      0.00
   19    4   39      0.62      0.00
   21    4   39     -2.92      0.00
   23    4   39     -9.10      0.00
   25    4   39     -1.90      0.00
   27    4   39     -1.42      0.00
   29    4   39      2.52      0.00
    0    5   39     -5.23      0.00
    2    5   39      2.21      0.00
    4    5   39     -0.98      0.00
    6    5   39    -19.18      0.00
    8    5   39     -3.95      0.00
   10    5   39      2.65      0.00
   12    5   39     -4.64      0.00
   14    5   39     -2.21      0.00
   16    5   39    -10.80      0.00
   18    5   39     -2.96      0.00
   20    5   39     15.48      0.00
   22    5   39     12.73      0.00
   24    5   39     -5.25      0.00
   26    5   39     -0.25      0.00
   28    5   39    -18.19      0.00
   30    5   39     -4.61      0.00
    1    6   39     18.93      0.00
    3    6   39      0.59      0.00
    5    6   39      5.74      0.00
    7    6   39     14.78      0.00
    9    6   39     -1.16      0.00
   11    6   39     -6.20      0.00
   13    6   39     19.34      0.00
   15    6   39      6.84      0.00
   17    6   39     -2.20      0.00
   19    6   39     -6.25      0.00
   21    6   39     -0.37      0.00
   23    6   39     -1.83      0.00
   25    6   39      8.35      0.00
   27    6   39      6.88      0.00
   29    6   39      4.50      0.00
    0    7   39      0.12      0.00
    2    7   39     -3.52      0.00
    4    7   39     -8.61      0.00
    6    7   39      4.57      0.00
    8    7   39      5.05      0.00
   10    7   39     -9.41      0.00
   12    7   39     -3.25      0.00
   14    7   39     -0.60      0.00
   16    7   39    -11.61      0.00
   18    7   39     11.75      0.00
   20    7   39      9.05      0.00
   22    7   39     -7.63      0.00
   24    7   39    -10.91      0.00
   26    7   39     11.00      0.00
   28    7   39      9.02      0.00
   30    7   39      9.23      0.00
    1    8   39      2.43      0.00
    3    8   39      3.78      0.00
    5    8   39     -5.47      0.00
    7    8   39     15.47      0.00
    9    8   39     13.18      0.00
   11    8   39    -10.44      0.00
   13    8   39     -0.47      0.00
   15    8   39     -3.68      0.00
   17    8   39      1.82      0.00
   19    8   39     -0.91      0.00
   21    8   39      9.39      0.00
   23    8   39      0.60      0.00
   25    8   39     -5.19      0.00
   27    8   39      3.45      0.00
   29    8   39     -5.14      0.00
    0    9   39     -5.75      0.00
    2    9   39      9.11      0.00
    4    9   39      1.02      0.00
    6    9   39     -7.30      0.00
    8    9   39      8.94      0.00
   10    9   39     -6.08      0.00
   12    9   39    -17.00      0.00
   14    9   39      2.71      0.00
   16    9   39      0.76      0.00
   18    9   39    -18.36      0.00
   20    9   39    -17.26      0.00
   22    9   39     -3.51      0.00
   24    9   39    -13.62      0.00
   26    9   39     14.46      0.00
   28    9   39     11.43      0.00
    1   10   39     -1.07      0.00
    3   10   39      7.13      0.00
    5   10   39     -4.71      0.00
    7   10   39     -2.66      0.00
    9   10   39      1.78      0.00
   11   10   39     -2.42      0.00
   13   10   39     -6.63      0.00
   15   10   39    -14.17      0.00
   17   10   39     -5.64      0.00
   19   10   39     -6.87      0.00
   21   10   39     12.76      0.00
   23   10   39     15.26      0.00
   25   10   39     -8.70      0.00
   27   10   39      2.02      0.00
   29   10   39      1.58      0.00
    0   11   39     -9.68      0.00
    2   11   39     -5.99      0.00
    4   11   39     -7.55      0.00
    6   11   39     -0.47      0.00
    8   11   39      5.10      0.00
   10   11   39     -4.18      0.00
   12   11   39    -11.09      0.00
   14   11   39     -3.16      0.00
   16   11   39      2.83      0.00
   18   11   39     -4.85      0.00
   20   11   39     -7.63      0.00
   22   11   39      4.38      0.00
   24   11   39      8.50      0.00
   26   11   39      8.12      0.00
   28   11   39      5.87      0.00
    1   12   39     -4.20      0.00
    3   12   39    -17.96      0.00
    5   12   39     -1.62      0.00
    7   12   39     -0.41      0.00
    9   12   39     -9.82      0.00
   11   12   39     -0.49      0.00
   13   12   39      2.12      0.00
   15   12   39      2.12      0.00
   17   12   39     -5.99      0.00
   19   12   39      4.81      0.00
   21   12   39      2.26      0.00
   23   12   39     -1.03      0.00
   25   12   39     -2.29      0.00
   27   12   39      3.99      0.00
    0   13   39     16.56      0.00
    2   13   39     -1.15      0.00
    4   13   39      5.96      0.00
    6   13   39     36.63      0.00
    8   13   39      9.08      0.00
   10   13   39     -4.77      0.00
   12   13   39     -5.09      0.00
   14   13   39     -5.01      0.00
   16   13   39     -4.73      0.00
   18   13   39     -1.75      0.00
   20   13   39     -0.25      0.00
   22   13   39    -15.98      0.00
   24   13   39      3.75      0.00
   26   13   39     -1.58      0.00
   28   13   39    -11.66      0.00
    1   14   39     -1.15      0.00
    3   14   39     -3.62      0.00
    5   14   39     -9.76      0.00
    7   14   39      0.08      0.00
    9   14   39      2.43      0.00
   11   14   39      3.78      0.00
   13   14   39     -4.22      0.00
   15   14   39      5.78      0.00
   17   14   39     10.70      0.00
   19   14   39     -3.09      0.00
   21   14   39     -8.95      0.00
   23   14   39      2.85      0.00
   25   14   39    -12.90      0.00
   27   14   39    -13.59      0.00
    0   15   39    -15.56      0.00
    2   15   39     -4.52      0.00
    4   15   39     -1.23      0.00
    6   15   39      0.74      0.00
    8   15   39      7.50      0.00
   10   15   39      4.53      0.00
   12   15   39    -14.52      0.00
   14   15   39    -14.75      0.00
   16   15   39     -1.00      0.00
   18   15   39     -4.46      0.00
   20   15   39      5.05      0.00
   22   15   39     -6.39      0.00
   24   15   39    -13.07      0.00
   26   15   39    -16.16      0.00
    1   16   39     -2.25      0.00
    3   16   39      2.98      0.00
    5   16   39     -2.19      0.00
    7   16   39     -8.18      0.00
    9   16   39     -7.53      0.00
   11   16   39    -14.16      0.00
   13   16   39    -12.55      0.00
   15   16   39      3.87      0.00
   17   16   39      6.13      0.00
   19   16   39     -2.09      0.00
   21   16   39     -7.95      0.00
   23   16   39     -4.52      0.00
   25   16   39    -13.70      0.00
    0   17   39      8.85      0.00
    2   17   39     -0.17      0.00
    4   17   39      5.26      0.00
    6   17   39      6.42      0.00
    8   17   39      8.58      0.00
   10   17   39      9.36      0.00
   12   17   39      1.71      0.00
   14   17   39     -2.36      0.00
   16   17   39      1.71      0.00
   18   17   39     -0.28      0.00
   20   17   39      9.03      0.00
   22   17   39      2.85      0.00
   24   17   39     -3.45      0.00
    1   18   39     -6.88      0.00
    3   18   39    -10.37      0.00
    5   18   39     -8.28      0.00
    7   18   39    -16.95      0.00
    9   18   39      0.96      0.00
   11   18   39     -5.85      0.00
   13   18   39     -5.70      0.00
   15   18   39     12.54      0.00
   17   18   39      5.84      0.00
   19   18   39     -7.48      0.00
   21   18   39     -0.70      0.00
   23   18   39     -8.29      0.00
   25   18   39     -6.15      0.00
    0   19   39     -6.15      0.00
    2   19   39     -9.30      0.00
    4   19   39     12.19      0.00
    6   19   39     -0.56      0.00
    8   19   39     -1.62      0.00
   10   19   39     -3.88      0.00
   12   19   39     -4.38      0.00
   14   19   39      2.71      0.00
   16   19   39     -3.08      0.00
   18   19   39     -8.67      0.00
   20   19   39     -4.68      0.00
   22   19   39     -4.36      0.00
   24   19   39     -8.86      0.00
    1   20   39      4.32      0.00
    3   20   39     20.02      0.00
    5   20   39    -10.72      0.00
    7   20   39     12.22      0.00
    9   20   39     40.40      0.00
   11   20   39      8.05      0.00
   13   20   39      0.52      0.00
   15   20   39    -21.43      0.00
   17   20   39      2.62      0.00
   19   20   39     -8.25      0.00
   21   20   39     -6.02      0.00
   23   20   39      6.44      0.00
    0   21   39    -26.34      0.00
    2   21   39    -13.32      0.00
    4   21   39    -11.42      0.00
    6   21   39    -20.29      0.00
    8   21   39     15.61      0.00
   10   21   39      0.54      0.00
   12   21   39     -4.99      0.00
   14   21   39      2.67      0.00
   16   21   39    -10.34      0.00
   18   21   39      4.21      0.00
   20   21   39     -7.85      0.00
   22   21   39     -0.17      0.00
    1   22   39     -8.43      0.00
    3   22   39     -4.18      0.00
    5   22   39     -5.39      0.00
    7   22   39      3.48      0.00
    9   22   39     12.38      0.00
   11   22   39     -1.67      0.00
   13   22   39      2.24      0.00
   15   22   39    -20.28      0.00
   17   22   39     -9.51      0.00
   19   22   39      2.60      0.00
   21   22   39     -7.63      0.00
    0   23   39      8.57      0.00
    2   23   39     -8.92      0.00
    4   23   39    -13.00      0.00
    6   23   39      5.59      0.00
    8   23   39      0.23      0.00
   10   23   39      5.19      0.00
   12   23   39      7.14      0.00
   14   23   39     -2.74      0.00
   16   23   39    -14.36      0.00
   18   23   39     -6.38      0.00
   20   23   39     -8.51      0.00
    1   24   39      7.65      0.00
    3   24   39     -2.50      0.00
    5   24   39      1.35      0.00
    7   24   39     -2.95      0.00
    9   24   39      7.24      0.00
   11   24   39     17.97      0.00
   13   24   39      5.94      0.00
   15   24   39     -8.99      0.00
   17   24   39     -6.93      0.00
   19   24   39     -3.28      0.00
    0   25   39      7.53      0.00
    2   25   39      7.20      0.00
    4   25   39      4.44      0.00
    6   25   39    -10.73      0.00
    8   25   39    -17.17      0.00
   10   25   39     -3.87      0.00
   12   25   39    -16.49      0.00
   14   25   39     -5.41      0.00
   16   25   39     -6.66      0.00
   18   25   39     -6.23      0.00
    1   26   39      1.79      0.00
    3   26   39     23.46      0.00
    5   26   39     -2.19      0.00
    7   26   39     -0.76      0.00
    9   26   39     11.89      0.00
   11   26   39     -6.35      0.00
   13   26   39     14.32      0.00
   15   26   39     10.91      0.00
    0   27   39    -11.51      0.00
    2   27   39     10.44      0.00
    4   27   39      6.93      0.00
    6   27   39     -9.35      0.00
    8   27   39      7.32      0.00
   10   27   39     -4.07      0.00
   12   27   39     -8.94      0.00
   14   27   39     -2.34      0.00
    1   28   39      6.87      0.00
    3   28   39      3.72      0.00
    5   28   39      3.36      0.00
    7   28   39      7.73      0.00
    9   28   39     11.71      0.00
   11   28   39     -2.68      0.00
   13   28   39     12.46      0.00
    0   29   39      2.89      0.00
    2   29   39     -4.26      0.00
    4   29   39     -2.65      0.00
    6   29   39      2.26      0.00
    8   29   39     -8.29      0.00
   10   29   39     -5.31      0.00
    1   30   39    -14.39      0.00
    3   30   39     -9.33      0.00
    5   30   39     13.71      0.00
    7   30   39      9.67      0.00
    0   31   39    -16.48      0.00
    0    0   40     16.44      0.00
    2    0   40     16.88      0.00
    4    0   40     -0.82      0.00
    6    0   40     -3.93      0.00
    8    0   40      5.92      0.00
   10    0   40     15.63      0.00
   12    0   40     -0.73      0.00
   14    0   40      2.69      0.00
   16    0   40     -8.28      0.00
   18    0   40    -13.14      0.00
   20    0   40      0.95      0.00
   22    0   40     10.15      0.00
   24    0   40     -0.36      0.00
   26    0   40      6.25      0.00
   28    0   40     -8.52      0.00
    1    1   40      4.87      0.00
    3    1   40     15.18      0.00
    5    1   40      2.02      0.00
    7    1   40     11.82      0.00
    9    1   40     11.75      0.00
   11    1   40     -0.74      0.00
   13    1   40     -1.17      0.00
   15    1   40      5.40      0.00
   17    1   40      9.92      0.00
   19    1   40      5.49      0.00
   21    1   40     -2.86      0.00
   23    1   40      3.59      0.00
   25    1   40    -13.40      0.00
   27    1   40      4.50      0.00
   29    1   40      3.45      0.00
    0    2   40      0.07      0.00
    2    2   40      8.78      0.00
    4    2   40     -1.96      0.00
    6    2   40     -5.51      0.00
    8    2   40      7.98      0.00
   10    2   40     -2.30      0.00
   12    2   40     10.79      0.00
   14    2   40     18.10      0.00
   16    2   40     -6.93      0.00
   18    2   40     15.53      0.00
   20    2   40     11.59      0.00
   22    2   40     -2.88      0.00
   24    2   40     14.80      0.00
   26    2   40     15.37      0.00
   28    2   40      7.40      0.00
    1    3   40     -3.38      0.00
    3    3   40     18.90      0.00
    5    3   40     -3.52      0.00
    7    3   40     14.15      0.00
    9    3   40     15.10      0.00
   11    3   40     -8.87      0.00
   13    3   40      7.39      0.00
   15    3   40    -16.41      0.00
   17    3   40     -4.02      0.00
   19    3   40     10.92      0.00
   21    3   40    -11.13      0.00
   23    3   40      0.93      0.00
   25    3   40      4.35      0.00
   27    3   40    -14.33      0.00
   29    3   40     -1.31      0.00
    0    4   40      4.60      0.00
    2    4   40      8.35      0.00
    4    4   40     12.28      0.00
    6    4   40     -0.09      0.00
    8    4   40      6.31      0.00
   10    4   40     -8.29      0.00
   12    4   40     -0.98      0.00
   14    4   40      7.92      0.00
   16    4   40      4.19      0.00
   18    4   40      5.39      0.00
   20    4   40      4.03      0.00
   22    4   40     -5.79      0.00
   24    4   40      6.50      0.00
   26    4   40     -9.90      0.00
   28    4   40    -13.62      0.00
    1    5   40     26.71      0.00
    3    5   40      7.33      0.00
    5    5   40     14.26      0.00
    7    5   40      8.67      0.00
    9    5   40     -2.93      0.00
   11    5   40     -2.16      0.00
   13    5   40     10.84      0.00
   15    5   40     -4.71      0.00
   17    5   40      0.88      0.00
   19    5   40      6.25      0.00
   21    5   40      1.66      0.00
   23    5   40      5.45      0.00
   25    5   40      3.16      0.00
   27    5   40     -0.75      0.00
   29    5   40      6.53      0.00
    0    6   40    -14.89      0.00
    2    6   40    -10.21      0.00
    4    6   40     18.91      0.00
    6    6   40     17.08      0.00
    8    6   40      6.88      0.00
   10    6   40    -15.06      0.00
   12    6   40     -8.33      0.00
   14    6   40      7.18      0.00
   16    6   40     17.57      0.00
   18    6   40      9.48      0.00
   20    6   40      1.62      0.00
   22    6   40    -13.00      0.00
   24    6   40     -1.40      0.00
   26    6   40     -1.73      0.00
   28    6   40      2.60      0.00
    1    7   40     -0.97      0.00
    3    7   40     16.51      0.00
    5    7   40      6.41      0.00
    7    7   40      7.67      0.00
    9    7   40     12.45      0.00
   11    7   40     -5.41      0.00
   13    7   40     20.63      0.00
   15    7   40     -2.11      0.00
   17    7   40     -1.98      0.00
   19    7   40      9.36      0.00
   21    7   40    -15.03      0.00
   23    7   40    -16.44      0.00
   25    7   40      2.55      0.00
   27    7   40      4.16      0.00
    0    8   40     -6.47      0.00
    2    8   40      5.91      0.00
    4    8   40      8.51      0.00
    6    8   40     -2.17      0.00
    8    8   40      0.65      0.00
   10    8   40    -20.00      0.00
   12    8   40     -0.80      0.00
   14    8   40      9.33      0.00
   16    8   40    -14.65      0.00
   18    8   40     13.79      0.00
   20    8   40     12.42      0.00
   22    8   40    -18.73      0.00
   24    8   40     -8.43      0.00
   26    8   40     -1.49      0.00
   28    8   40     -2.58      0.00
    1    9   40    -13.62      0.00
    3    9   40     30.69      0.00
    5    9   40     14.23      0.00
    7    9   40     -8.88      0.00
    9    9   40     -2.79      0.00
   11    9   40     -0.70      0.00
   13    9   40     19.46      0.00
   15    9   40    -18.52      0.00
   17    9   40     -1.53      0.00
   19    9   40     11.46      0.00
   21    9   40    -12.82      0.00
   23    9   40     -3.27      0.00
   25    9   40      2.38      0.00
   27    9   40      3.17      0.00
    0   10   40      2.72      0.00
    2   10   40      7.02      0.00
    4   10   40     -5.91      0.00
    6   10   40    -15.42      0.00
    8   10   40    -14.66      0.00
   10   10   40     14.83      0.00
   12   10   40     11.75      0.00
   14   10   40      1.73      0.00
   16   10   40    -11.72      0.00
   18   10   40     -1.99      0.00
   20   10   40      0.03      0.00
   22   10   40     -4.74      0.00
   24   10   40    -15.60      0.00
   26   10   40    -10.22      0.00
    1   11   40     17.08      0.00
    3   11   40      8.07      0.00
    5   11   40     15.65      0.00
    7   11   40     -0.43      0.00
    9   11   40      5.19      0.00
   11   11   40     13.62      0.00
   13   11   40     10.02      0.00
   15   11   40     -7.97      0.00
   17   11   40    -22.17      0.00
   19   11   40     -6.65      0.00
   21   11   40      1.07      0.00
   23   11   40      4.02      0.00
   25   11   40     -4.68      0.00
   27   11   40     11.82      0.00
    0   12   40     12.66      0.00
    2   12   40     18.58      0.00
    4   12   40     -3.32      0.00
    6   12   40     -9.58      0.00
    8   12   40     -6.66      0.00
   10   12   40     16.46      0.00
   12   12   40      4.33      0.00
   14   12   40      2.32      0.00
   16   12   40     -8.95      0.00
   18   12   40     -0.57      0.00
   20   12   40      4.36      0.00
   22   12   40      7.48      0.00
   24   12   40     -0.65      0.00
   26   12   40     -7.31      0.00
    1   13   40      4.54      0.00
    3   13   40     -0.99      0.00
    5   13   40    -12.25      0.00
    7   13   40     12.34      0.00
    9   13   40     19.55      0.00
   11   13   40    -11.67      0.00
   13   13   40      5.30      0.00
   15   13   40     -2.51      0.00
   17   13   40    -18.23      0.00
   19   13   40     -0.79      0.00
   21   13   40      6.14      0.00
   23   13   40      8.33      0.00
   25   13   40     -4.59      0.00
    0   14   40     13.06      0.00
    2   14   40     13.45      0.00
    4   14   40      8.32      0.00
    6   14   40      2.66      0.00
    8   14   40      1.41      0.00
   10   14   40     -5.59      0.00
   12   14   40     -4.97      0.00
   14   14   40     13.53      0.00
   16   14   40     -4.13      0.00
   18   14   40     -2.85      0.00
   20   14   40      0.85      0.00
   22   14   40      0.99      0.00
   24   14   40     -3.65      0.00
   26   14   40      6.20      0.00
    1   15   40     10.92      0.00
    3   15   40     -2.85      0.00
    5   15   40     24.75      0.00
    7   15   40     11.63      0.00
    9   15   40     -3.09      0.00
   11   15   40    -13.51      0.00
   13   15   40     -3.21      0.00
   15   15   40    -27.01      0.00
   17   15   40      0.26      0.00
   19   15   40     -2.39      0.00
   21   15   40    -11.46      0.00
   23   15   40     -3.47      0.00
   25   15   40     -6.98      0.00
    0   16   40      0.29      0.00
    2   16   40    -18.79      0.00
    4   16   40      7.01      0.00
    6   16   40      8.23      0.00
    8   16   40    -13.56      0.00
   10   16   40    -15.23      0.00
   12   16   40    -14.02      0.00
   14   16   40    -22.79      0.00
   16   16   40      2.45      0.00
   18   16   40     17.54      0.00
   20   16   40     -5.92      0.00
   22   16   40     -2.82      0.00
   24   16   40     -9.68      0.00
    1   17   40     -4.38      0.00
    3   17   40     -7.43      0.00
    5   17   40     23.89      0.00
    7   17   40     -3.77      0.00
    9   17   40     -9.32      0.00
   11   17   40    -11.95      0.00
   13   17   40     -3.36      0.00
   15   17   40    -15.85      0.00
   17   17   40     10.00      0.00
   19   17   40     -5.92      0.00
   21   17   40    -18.65      0.00
   23   17   40    -33.77      0.00
    0   18   40     -7.64      0.00
    2   18   40     -2.28      0.00
    4   18   40     11.49      0.00
    6   18   40      5.49      0.00
    8   18   40      3.89      0.00
   10   18   40    -17.70      0.00
   12   18   40      0.54      0.00
   14   18   40     -7.38      0.00
   16   18   40      3.26      0.00
   18   18   40     10.15      0.00
   20   18   40      1.58      0.00
   22   18   40    -11.64      0.00
    1   19   40      8.57      0.00
    3   19   40     19.01      0.00
    5   19   40     -5.50      0.00
    7   19   40      4.77      0.00
    9   19   40     18.96      0.00
   11   19   40      3.83      0.00
   13   19   40     18.26      0.00
   15   19   40     -3.05      0.00
   17   19   40      9.58      0.00
   19   19   40     -9.49      0.00
   21   19   40     -9.61      0.00
    0   20   40     -6.46      0.00
    2   20   40      8.35      0.00
    4   20   40     10.69      0.00
    6   20   40    -10.22      0.00
    8   20   40      7.67      0.00
   10   20   40     -8.65      0.00
   12   20   40     -0.68      0.00
   14   20   40      3.94      0.00
   16   20   40     -3.50      0.00
   18   20   40     -7.25      0.00
   20   20   40     12.36      0.00
    1   21   40     15.34      0.00
    3   21   40     18.45      0.00
    5   21   40      7.66      0.00
    7   21   40     -1.43      0.00
    9   21   40      0.67      0.00
   11   21   40     -2.69      0.00
   13   21   40     14.25      0.00
   15   21   40    -11.43      0.00
   17   21   40     -9.02      0.00
   19   21   40    -14.09      0.00
   21   21   40    -12.54      0.00
    0   22   40    -18.31      0.00
    2   22   40     -0.79      0.00
    4   22   40     -1.64      0.00
    6   22   40    -15.95      0.00
    8   22   40      0.49      0.00
   10   22   40     -2.55      0.00
   12   22   40     17.66      0.00
   14   22   40      7.84      0.00
   16   22   40     -1.47      0.00
   18   22   40     -4.39      0.00
    1   23   40     -7.49      0.00
    3   23   40      6.82      0.00
    5   23   40      6.91      0.00
    7   23   40      4.34      0.00
    9   23   40     -8.21      0.00
   11   23   40      2.47      0.00
   13   23   40     18.36      0.00
   15   23   40      0.65      0.00
   17   23   40    -16.64      0.00
    0   24   40    -12.04      0.00
    2   24   40      9.24      0.00
    4   24   40     -7.91      0.00
    6   24   40    -10.24      0.00
    8   24   40    -10.51      0.00
   10   24   40     -3.10      0.00
   12   24   40     10.22      0.00
   14   24   40     -2.36      0.00
   16   24   40     -6.41      0.00
    1   25   40      1.21      0.00
    3   25   40     11.38      0.00
    5   25   40     -0.63      0.00
    7   25   40     18.20      0.00
    9   25   40     -9.08      0.00
   11   25   40     -3.00      0.00
   13   25   40    -11.61      0.00
   15   25   40     10.79      0.00
    0   26   40    -14.27      0.00
    2   26   40     13.77      0.00
    4   26   40    -14.51      0.00
    6   26   40     -4.94      0.00
    8   26   40      2.60      0.00
   10   26   40     20.58      0.00
   12   26   40     -4.07      0.00
   14   26   40      4.43      0.00
    1   27   40     -8.51      0.00
    3   27   40     11.06      0.00
    5   27   40     -4.36      0.00
    7   27   40     15.29      0.00
    9   27   40      8.93      0.00
   11   27   40     -4.45      0.00
    0   28   40    -18.03      0.00
    2   28   40     12.46      0.00
    4   28   40    -15.89      0.00
    6   28   40    -14.20      0.00
    8   28   40      3.17      0.00
    1   29   40    -28.26      0.00
    3   29   40      0.23      0.00
    5   29   40     -8.77      0.00
    1    0   41     -6.66      0.00
    3    0   41     -4.10      0.00
    5    0   41     -0.14      0.00
    7    0   41     11.74      0.00
    9    0   41     11.60      0.00
   11    0   41     19.16      0.00
   13    0   41      8.96      0.00
   15    0   41      1.10      0.00
   17    0   41     -2.43      0.00
   19    0   41      5.59      0.00
   21    0   41     16.90      0.00
   23    0   41      6.29      0.00
   25    0   41     -5.86      0.00
   27    0   41      1.63      0.00
    0    1   41     -5.36      0.00
    2    1   41     -3.83      0.00
    4    1   41      1.76      0.00
    6    1   41      6.25      0.00
    8    1   41     13.21      0.00
   10    1   41     -5.97      0.00
   12    1   41      9.68      0.00
   14    1   41     -0.23      0.00
   16    1   41      5.46      0.00
   18    1   41     -1.76      0.00
   20    1   41     -3.26      0.00
   22    1   41      0.78      0.00
   24    1   41     -0.15      0.00
   26    1   41    -11.34      0.00
   28    1   41    -18.42      0.00
    1    2   41    -20.50      0.00
    3    2   41     -1.78      0.00
    5    2   41    -15.02      0.00
    7    2   41      1.90      0.00
    9    2   41     13.38      0.00
   11    2   41     -1.90      0.00
   13    2   41     -1.86      0.00
   15    2   41      2.69      0.00
   17    2   41     -2.65      0.00
   19    2   41      6.52      0.00
   21    2   41      2.03      0.00
   23    2   41      4.90      0.00
   25    2   41      8.12      0.00
   27    2   41      3.91      0.00
    0    3   41     -7.89      0.00
    2    3   41      0.16      0.00
    4    3   41      2.88      0.00
    6    3   41      1.51      0.00
    8    3   41      6.20      0.00
   10    3   41    -11.43      0.00
   12    3   41      9.29      0.00
   14    3   41     15.22      0.00
   16    3   41    -10.47      0.00
   18    3   41      4.09      0.00
   20    3   41     15.71      0.00
   22    3   41      2.07      0.00
   24    3   41     -0.80      0.00
   26    3   41     -2.34      0.00
   28    3   41     -7.42      0.00
    1    4   41     -1.19      0.00
    3    4   41     13.29      0.00
    5    4   41     -1.56      0.00
    7    4   41     -3.91      0.00
    9    4   41      0.20      0.00
   11    4   41     -2.51      0.00
   13    4   41      9.36      0.00
   15    4   41    -10.52      0.00
   17    4   41    -11.95      0.00
   19    4   41      9.32      0.00
   21    4   41      0.57      0.00
   23    4   41     -0.83      0.00
   25    4   41     10.97      0.00
   27    4   41      1.06      0.00
    0    5   41      0.34      0.00
    2    5   41      7.18      0.00
    4    5   41      5.93      0.00
    6    5   41     -4.80      0.00
    8    5   41      0.36      0.00
   10    5   41      4.55      0.00
   12    5   41     15.80      0.00
   14    5   41      3.12      0.00
   16    5   41     -9.36      0.00
   18    5   41      4.77      0.00
   20    5   41     -4.63      0.00
   22    5   41     -4.59      0.00
   24    5   41     -8.71      0.00
   26    5   41     -5.81      0.00
    1    6   41      8.95      0.00
    3    6   41      9.04      0.00
    5    6   41     15.18      0.00
    7    6   41     -4.33      0.00
    9    6   41     -1.60      0.00
   11    6   41      7.69      0.00
   13    6   41      4.30      0.00
   15    6   41      2.61      0.00
   17    6   41     12.43      0.00
   19    6   41      3.03      0.00
   21    6   41      7.22      0.00
   23    6   41     -3.68      0.00
   25    6   41      6.98      0.00
   27    6   41      0.23      0.00
    0    7   41     -0.83      0.00
    2    7   41     -6.44      0.00
    4    7   41     -1.14      0.00
    6    7   41      4.75      0.00
    8    7   41      0.54      0.00
   10    7   41      2.38      0.00
   12    7   41      0.65      0.00
   14    7   41     -6.75      0.00
   16    7   41     13.92      0.00
   18    7   41     15.61      0.00
   20    7   41     -4.25      0.00
   22    7   41     11.63      0.00
   24    7   41      1.34      0.00
   26    7   41      8.20      0.00
    1    8   41    -11.64      0.00
    3    8   41      1.17      0.00
    5    8   41     -8.63      0.00
    7    8   41      1.63      0.00
    9    8   41     12.40      0.00
   11    8   41      3.88      0.00
   13    8   41     -9.43      0.00
   15    8   41     -4.57      0.00
   17    8   41      9.54      0.00
   19    8   41    -12.60      0.00
   21    8   41     -8.16      0.00
   23    8   41     -1.99      0.00
   25    8   41     -3.80      0.00
   27    8   41     -2.16      0.00
    0    9   41     -0.92      0.00
    2    9   41     -0.38      0.00
    4    9   41    -15.28      0.00
    6    9   41     -2.55      0.00
    8    9   41      6.21      0.00
   10    9   41    -18.67      0.00
   12    9   41      0.59      0.00
   14    9   41      6.99      0.00
   16    9   41      0.31      0.00
   18    9   41      0.21      0.00
   20    9   41     -1.30      0.00
   22    9   41      6.64      0.00
   24    9   41     -4.43      0.00
   26    9   41      4.42      0.00
    1   10   41      4.96      0.00
    3   10   41     16.33      0.00
    5   10   41      7.47      0.00
    7   10   41      3.28      0.00
    9   10   41    -19.99      0.00
   11   10   41    -18.07      0.00
   13   10   41     -4.95      0.00
   15   10   41    -18.55      0.00
   17   10   41     -2.03      0.00
   19   10   41      0.85      0.00
   21   10   41     -4.23      0.00
   23   10   41      0.94      0.00
   25   10   41     -3.33      0.00
    0   11   41    -20.79      0.00
    2   11   41    -11.01      0.00
    4   11   41     -8.05      0.00
    6   11   41     -1.05      0.00
    8   11   41      9.28      0.00
   10   11   41      0.87      0.00
   12   11   41     20.18      0.00
   14   11   41     -5.41      0.00
   16   11   41     -9.55      0.00
   18   11   41     16.79      0.00
   20   11   41    -13.45      0.00
   22   11   41     -7.09      0.00
   24   11   41      1.96      0.00
   26   11   41      2.81      0.00
    1   12   41     -8.94      0.00
    3   12   41      0.08      0.00
    5   12   41     11.07      0.00
    7   12   41      1.09      0.00
    9   12   41    -14.40      0.00
   11   12   41    -17.01      0.00
   13   12   41      1.93      0.00
   15   12   41     -2.41      0.00
   17   12   41     -0.46      0.00
   19   12   41      1.78      0.00
   21   12   41     -8.42      0.00
   23   12   41     -6.85      0.00
   25   12   41      0.98      0.00
    0   13   41     -8.48      0.00
    2   13   41     -4.32      0.00
    4   13   41     -0.94      0.00
    6   13   41      2.89      0.00
    8   13   41      2.68      0.00
   10   13   41     -3.97      0.00
   12   13   41      3.94      0.00
   14   13   41     -8.01      0.00
   16   13   41    -17.83      0.00
   18   13   41      8.01      0.00
   20   13   41      2.11      0.00
   22   13   41     -0.57      0.00
   24   13   41      4.13      0.00
    1   14   41      2.26      0.00
    3   14   41     17.46      0.00
    5   14   41      8.39      0.00
    7   14   41     15.11      0.00
    9   14   41     -7.78      0.00
   11   14   41    -17.60      0.00
   13   14   41      7.34      0.00
   15   14   41      3.56      0.00
   17   14   41      6.56      0.00
   19   14   41      4.20      0.00
   21   14   41     -7.11      0.00
   23   14   41     14.97      0.00
    0   15   41    -19.40      0.00
    2   15   41      3.53      0.00
    4   15   41     -1.62      0.00
    6   15   41      6.87      0.00
    8   15   41     14.07      0.00
   10   15   41    -19.66      0.00
   12   15   41    -12.51      0.00
   14   15   41     -2.45      0.00
   16   15   41     -3.70      0.00
   18   15   41      4.37      0.00
   20   15   41     -0.89      0.00
   22   15   41     -2.36      0.00
   24   15   41     -2.95      0.00
    1   16   41     -7.46      0.00
    3   16   41     -2.28      0.00
    5   16   41     -3.32      0.00
    7   16   41      1.73      0.00
    9   16   41     -9.95      0.00
   11   16   41     -2.67      0.00
   13   16   41      6.86      0.00
   15   16   41    -10.75      0.00
   17   16   41     -6.36      0.00
   19   16   41     -5.55      0.00
   21   16   41    -11.94      0.00
   23   16   41     -0.24      0.00
    0   17   41     -0.73      0.00
    2   17   41     -0.98      0.00
    4   17   41      2.84      0.00
    6   17   41     17.07      0.00
    8   17   41     22.36      0.00
   10   17   41     -1.58      0.00
   12   17   41     -7.13      0.00
   14   17   41    -22.45      0.00
   16   17   41     -4.29      0.00
   18   17   41      8.33      0.00
   20   17   41    -29.78      0.00
   22   17   41     -8.51      0.00
    1   18   41    -27.35      0.00
    3   18   41    -12.06      0.00
    5   18   41     -4.49      0.00
    7   18   41    -11.08      0.00
    9   18   41      3.37      0.00
   11   18   41     -1.08      0.00
   13   18   41     -2.52      0.00
   15   18   41     -6.66      0.00
   17   18   41     -3.64      0.00
   19   18   41     -2.29      0.00
   21   18   41     -7.74      0.00
    0   19   41      7.45      0.00
    2   19   41     -1.88      0.00
    4   19   41     -5.27      0.00
    6   19   41     -1.56      0.00
    8   19   41     16.36      0.00
   10   19   41      3.38      0.00
   12   19   41     -4.21      0.00
   14   19   41      9.88      0.00
   16   19   41     -0.99      0.00
   18   19   41     -3.40      0.00
   20   19   41     -8.86      0.00
    1   20   41      7.78      0.00
    3   20   41     20.08      0.00
    5   20   41      2.17      0.00
    7   20   41     17.04      0.00
    9   20   41     13.06      0.00
   11   20   41     -8.60      0.00
   13   20   41      6.40      0.00
   15   20   41     13.12      0.00
   17   20   41     10.71      0.00
   19   20   41     10.48      0.00
    0   21   41      1.20      0.00
    2   21   41     13.28      0.00
    4   21   41     -4.58      0.00
    6   21   41     -5.87      0.00
    8   21   41     15.36      0.00
   10   21   41      3.19      0.00
   12   21   41      1.60      0.00
   14   21   41     10.77      0.00
   16   21   41     -4.96      0.00
   18   21   41     -2.77      0.00
    1   22   41      1.88      0.00
    3   22   41    -17.32      0.00
    5   22   41    -12.07      0.00
    7   22   41     -2.47      0.00
    9   22   41     -1.84      0.00
   11   22   41      0.01      0.00
   13   22   41      3.75      0.00
   15   22   41      3.21      0.00
   17   22   41      0.07      0.00
    0   23   41     29.16      0.00
    2   23   41      5.14      0.00
    4   23   41      1.18      0.00
    6   23   41     12.61      0.00
    8   23   41     -5.21      0.00
   10   23   41      7.68      0.00
   12   23   41     15.71      0.00
   14   23   41     -8.51      0.00
   16   23   41     -7.58      0.00
    1   24   41      8.65      0.00
    3   24   41    -25.78      0.00
    5   24   41     -2.20      0.00
    7   24   41     -1.84      0.00
    9   24   41     18.63      0.00
   11   24   41     29.51      0.00
   13   24   41     23.75      0.00
   15   24   41      4.71      0.00
    0   25   41     16.04      0.00
    2   25   41     -6.32      0.00
    4   25   41      0.58      0.00
    6   25   41     -0.76      0.00
    8   25   41     -1.99      0.00
   10   25   41      8.56      0.00
   12   25   41     -6.90      0.00
    1   26   41     11.28      0.00
    3   26   41      9.95      0.00
    5   26   41      3.74      0.00
    7   26   41     -0.90      0.00
    9   26   41      8.78      0.00
   11   26   41     -6.85      0.00
    0   27   41    -14.97      0.00
    2   27   41     -2.34      0.00
    4   27   41     -5.82      0.00
    6   27   41     -5.12      0.00
    8   27   41     12.69      0.00
    1   28   41      8.25      0.00
    3   28   41     19.27      0.00
    0    0   42     12.47      0.00
    2    0   42     -2.94      0.00
    4    0   42     34.20      0.00
    6    0   42      4.76      0.00
    8    0   42    -30.95      0.00
   10    0   42     47.38      0.00
   12    0   42     14.04      0.00
   14    0   42      6.91      0.00
   16    0   42     28.45      0.00
   18    0   42     -9.05      0.00
   20    0   42     -7.97      0.00
   22    0   42     16.58      0.00
   24    0   42     -8.44      0.00
   26    0   42     -0.36      0.00
    1    1   42      9.73      0.00
    3    1   42      4.05      0.00
    5    1   42     30.06      0.00
    7    1   42    -15.44      0.00
    9    1   42    -13.35      0.00
   11    1   42    -10.76      0.00
   13    1   42    -29.49      0.00
   15    1   42     18.95      0.00
   17    1   42      7.51      0.00
   19    1   42     -9.55      0.00
   21    1   42     12.25      0.00
   23    1   42     -4.47      0.00
   25    1   42    -20.43      0.00
    0    2   42     -3.91      0.00
    2    2   42      0.00      0.00
    4    2   42     12.53      0.00
    6    2   42      0.35      0.00
    8    2   42     -8.30      0.00
   10    2   42      0.27      0.00
   12    2   42    -23.90      0.00
   14    2   42      6.01      0.00
   16    2   42     24.07      0.00
   18    2   42     -5.30      0.00
   20    2   42     -8.02      0.00
   22    2   42     -0.59      0.00
   24    2   42     -2.95      0.00
   26    2   42      5.61      0.00
    1    3   42      1.82      0.00
    3    3   42     16.76      0.00
    5    3   42      3.10      0.00
    7    3   42     11.63      0.00
    9    3   42     13.27      0.00
   11    3   42     -0.48      0.00
   13    3   42      1.32      0.00
   15    3   42      7.75      0.00
   17    3   42     -9.75      0.00
   19    3   42    -13.23      0.00
   21    3   42     -6.68      0.00
   23    3   42     20.57      0.00
   25    3   42     32.94      0.00
    0    4   42     21.97      0.00
    2    4   42     16.47      0.00
    4    4   42     10.65      0.00
    6    4   42      7.74      0.00
    8    4   42     14.22      0.00
   10    4   42     -4.19      0.00
   12    4   42    -22.84      0.00
   14    4   42      6.28      0.00
   16    4   42     20.93      0.00
   18    4   42     -0.51      0.00
   20    4   42      6.54      0.00
   22    4   42      0.55      0.00
   24    4   42      9.64      0.00
   26    4   42    -10.59      0.00
    1    5   42     17.79      0.00
    3    5   42      0.96      0.00
    5    5   42      7.08      0.00
    7    5   42    -10.34      0.00
    9    5   42    -15.04      0.00
   11    5   42     -3.99      0.00
   13    5   42     -4.79      0.00
   15    5   42     -9.74      0.00
   17    5   42    -36.04      0.00
   19    5   42    -16.20      0.00
   21    5   42     -0.52      0.00
   23    5   42     -6.91      0.00
   25    5   42      0.64      0.00
    0    6   42     -2.16      0.00
    2    6   42      5.92      0.00
    4    6   42     21.79      0.00
    6    6   42      3.11      0.00
    8    6   42     10.20      0.00
   10    6   42     15.01      0.00
   12    6   42     -8.83      0.00
   14    6   42     -2.60      0.00
   16    6   42     27.63      0.00
   18    6   42      9.14      0.00
   20    6   42      4.32      0.00
   22    6   42      7.82      0.00
   24    6   42      7.02      0.00
   26    6   42     -7.70      0.00
    1    7   42      3.15      0.00
    3    7   42      6.26      0.00
    5    7   42     -2.05      0.00
    7    7   42     11.95      0.00
    9    7   42     19.67      0.00
   11    7   42     -1.15      0.00
   13    7   42     -4.30      0.00
   15    7   42      7.10      0.00
   17    7   42      7.46      0.00
   19    7   42     -2.06      0.00
   21    7   42      3.67      0.00
   23    7   42      6.04      0.00
   25    7   42     -6.15      0.00
    0    8   42    -10.66      0.00
    2    8   42     -5.53      0.00
    4    8   42     -4.03      0.00
    6    8   42     -7.44      0.00
    8    8   42     -9.89      0.00
   10    8   42    -13.89      0.00
   12    8   42     -8.77      0.00
   14    8   42     -9.83      0.00
   16    8   42    -13.88      0.00
   18    8   42     -4.33      0.00
   20    8   42      5.95      0.00
   22    8   42      1.09      0.00
   24    8   42    -14.32      0.00
    1    9   42      9.82      0.00
    3    9   42      7.15      0.00
    5    9   42     14.50      0.00
    7    9   42     14.87      0.00
    9    9   42      9.67      0.00
   11    9   42      4.79      0.00
   13    9   42      2.55      0.00
   15    9   42     -3.31      0.00
   17    9   42     14.35      0.00
   19    9   42      8.35      0.00
   21    9   42      3.14      0.00
   23    9   42     22.67      0.00
   25    9   42      8.17      0.00
    0   10   42     10.46      0.00
    2   10   42     -3.28      0.00
    4   10   42     12.41      0.00
    6   10   42     24.38      0.00
    8   10   42      2.35      0.00
   10   10   42     17.93      0.00
   12   10   42     20.88      0.00
   14   10   42     17.28      0.00
   16   10   42     -8.21      0.00
   18   10   42     -1.80      0.00
   20   10   42     11.17      0.00
   22   10   42     -5.64      0.00
   24   10   42     -9.66      0.00
    1   11   42     -3.45      0.00
    3   11   42     -8.00      0.00
    5   11   42      4.22      0.00
    7   11   42    -29.33      0.00
    9   11   42     -9.48      0.00
   11   11   42     -2.57      0.00
   13   11   42     -4.47      0.00
   15   11   42     -0.30      0.00
   17   11   42    -22.95      0.00
   19   11   42    -12.84      0.00
   21   11   42     11.45      0.00
   23   11   42     -1.88      0.00
    0   12   42     -4.57      0.00
    2   12   42     13.07      0.00
    4   12   42     36.07      0.00
    6   12   42      9.05      0.00
    8   12   42      4.49      0.00
   10   12   42     26.50      0.00
   12   12   42     -2.58      0.00
   14   12   42     -6.03      0.00
   16   12   42     -0.99      0.00
   18   12   42      3.65      0.00
   20   12   42     -5.61      0.00
   22   12   42      7.27      0.00
    1   13   42     -1.46      0.00
    3   13   42     15.01      0.00
    5   13   42      4.07      0.00
    7   13   42    -10.29      0.00
    9   13   42     11.08      0.00
   11   13   42      5.14      0.00
   13   13   42     -0.22      0.00
   15   13   42     -2.22      0.00
   17   13   42     -2.78      0.00
   19   13   42    -10.72      0.00
   21   13   42     -2.11      0.00
   23   13   42     15.29      0.00
    0   14   42     21.08      0.00
    2   14   42      1.39      0.00
    4   14   42      6.96      0.00
    6   14   42     -3.32      0.00
    8   14   42    -18.80      0.00
   10   14   42      5.78      0.00
   12   14   42     -2.64      0.00
   14   14   42      7.66      0.00
   16   14   42     16.29      0.00
   18   14   42      6.03      0.00
   20   14   42     -2.06      0.00
   22   14   42      7.86      0.00
    1   15   42     22.15      0.00
    3   15   42     -5.87      0.00
    5   15   42     36.42      0.00
    7   15   42     -8.48      0.00
    9   15   42    -37.94      0.00
   11   15   42    -14.97      0.00
   13   15   42    -16.98      0.00
   15   15   42      0.07      0.00
   17   15   42     22.31      0.00
   19   15   42     -1.64      0.00
   21   15   42     -7.68      0.00
    0   16   42     39.20      0.00
    2   16   42    -11.33      0.00
    4   16   42      4.24      0.00
    6   16   42     28.86      0.00
    8   16   42      0.47      0.00
   10   16   42     18.22      0.00
   12   16   42      9.96      0.00
   14   16   42    -10.20      0.00
   16   16   42      8.85      0.00
   18   16   42     -3.55      0.00
   20   16   42    -14.78      0.00
    1   17   42     -3.33      0.00
    3   17   42    -29.38      0.00
    5   17   42     -7.17      0.00
    7   17   42    -17.86      0.00
    9   17   42    -17.78      0.00
   11   17   42    -12.31      0.00
   13   17   42    -20.64      0.00
   15   17   42     -4.75      0.00
   17   17   42     15.32      0.00
   19   17   42     -7.64      0.00
    0   18   42     -4.13      0.00
    2   18   42    -14.05      0.00
    4   18   42     -0.25      0.00
    6   18   42     16.61      0.00
    8   18   42     13.14      0.00
   10   18   42      2.27      0.00
   12   18   42     19.59      0.00
   14   18   42     -3.10      0.00
   16   18   42      3.64      0.00
   18   18   42    -11.84      0.00
    1   19   42     -2.31      0.00
    3   19   42     -1.13      0.00
    5   19   42     -7.82      0.00
    7   19   42     17.41      0.00
    9   19   42     22.45      0.00
   11   19   42      8.98      0.00
   13   19   42      3.15      0.00
   15   19   42     -2.19      0.00
   17   19   42     15.31      0.00
    0   20   42      1.44      0.00
    2   20   42    -11.44      0.00
    4   20   42      7.13      0.00
    6   20   42      9.06      0.00
    8   20   42     -3.83      0.00
   10   20   42     -5.08      0.00
   12   20   42     12.66      0.00
   14   20   42     11.74      0.00
   16   20   42      1.40      0.00
    1   21   42     18.03      0.00
    3   21   42     -7.09      0.00
    5   21   42     12.34      0.00
    7   21   42     -2.38      0.00
    9   21   42    -14.08      0.00
   11   21   42      3.40      0.00
   13   21   42      6.92      0.00
   15   21   42     -5.36      0.00
    0   22   42      8.87      0.00
    2   22   42     -6.59      0.00
    4   22   42     10.30      0.00
    6   22   42     13.13      0.00
    8   22   42     -3.09      0.00
   10   22   42     -2.98      0.00
   12   22   42     23.95      0.00
   14   22   42      6.82      0.00
    1   23   42      1.54      0.00
    3   23   42     14.17      0.00
    5   23   42     10.59      0.00
    7   23   42     -2.24      0.00
    9   23   42     -3.22      0.00
   11   23   42     12.52      0.00
   13   23   42     22.16      0.00
    0   24   42      3.67      0.00
    2   24   42     10.53      0.00
    4   24   42      8.15      0.00
    6   24   42      2.40      0.00
    8   24   42     -7.95      0.00
   10   24   42     -9.61      0.00
    1   25   42      7.86      0.00
    3   25   42     16.02      0.00
    5   25   42     -3.94      0.00
    7   25   42      7.41      0.00
    9   25   42     -1.86      0.00
    0   26   42     -7.91      0.00
    2   26   42      6.68      0.00
    4   26   42     -6.92      0.00
    6   26   42      5.29      0.00
    1    0   43      7.95      0.00
    3    0   43    -25.50      0.00
    5    0   43    -17.86      0.00
    7    0   43    -22.30      0.00
    9    0   43    -16.32      0.00
   11    0   43     15.80      0.00
   13    0   43    -12.41      0.00
   15    0   43    -17.68      0.00
   17    0   43    -19.09      0.00
   19    0   43     -7.12      0.00
   21    0   43      4.41      0.00
   23    0   43     -1.94      0.00
   25    0   43    -35.90      0.00
    0    1   43     16.35      0.00
    2    1   43     -2.40      0.00
    4    1   43      6.65      0.00
    6    1   43     -5.85      0.00
    8    1   43    -15.05      0.00
   10    1   43      0.01      0.00
   12    1   43      0.06      0.00
   14    1   43    -11.18      0.00
   16    1   43     11.44      0.00
   18    1   43      0.49      0.00
   20    1   43     -5.33      0.00
   22    1   43     -2.27      0.00
   24    1   43     14.58      0.00
    1    2   43     12.86      0.00
    3    2   43     -5.28      0.00
    5    2   43     -9.40      0.00
    7    2   43      8.91      0.00
    9    2   43     12.82      0.00
   11    2   43     12.03      0.00
   13    2   43     -9.40      0.00
   15    2   43      0.13      0.00
   17    2   43     12.01      0.00
   19    2   43     10.99      0.00
   21    2   43     -2.17      0.00
   23    2   43     24.65      0.00
   25    2   43      4.63      0.00
    0    3   43      7.33      0.00
    2    3   43    -17.97      0.00
    4    3   43    -16.03      0.00
    6    3   43     -0.21      0.00
    8    3   43      1.75      0.00
   10    3   43     -9.43      0.00
   12    3   43    -16.63      0.00
   14    3   43      4.71      0.00
   16    3   43      3.96      0.00
   18    3   43     -7.91      0.00
   20    3   43      2.00      0.00
   22    3   43     -6.60      0.00
   24    3   43      5.06      0.00
    1    4   43      5.21      0.00
    3    4   43    -11.90      0.00
    5    4   43      0.78      0.00
    7    4   43      1.30      0.00
    9    4   43     -3.51      0.00
   11    4   43      2.52      0.00
   13    4   43     -9.23      0.00
   15    4   43     -9.32      0.00
   17    4   43     -5.70      0.00
   19    4   43      4.24      0.00
   21    4   43     -4.32      0.00
   23    4   43      8.62      0.00
    0    5   43     -2.51      0.00
    2    5   43    -21.43      0.00
    4    5   43     -2.56      0.00
    6    5   43     -3.26      0.00
    8    5   43    -13.55      0.00
   10    5   43      3.53      0.00
   12    5   43     -0.24      0.00
   14    5   43      0.68      0.00
   16    5   43     -1.31      0.00
   18    5   43    -13.43      0.00
   20    5   43     -0.88      0.00
   22    5   43     -0.83      0.00
   24    5   43     -3.57      0.00
    1    6   43     -1.44      0.00
    3    6   43     -4.48      0.00
    5    6   43     28.87      0.00
    7    6   43     -3.88      0.00
    9    6   43    -28.72      0.00
   11    6   43    -14.52      0.00
   13    6   43     -7.35      0.00
   15    6   43     11.82      0.00
   17    6   43      5.19      0.00
   19    6   43    -11.09      0.00
   21    6   43     -0.75      0.00
   23    6   43     -4.95      0.00
    0    7   43    -10.12      0.00
    2    7   43    -29.91      0.00
    4    7   43      3.79      0.00
    6    7   43      4.71      0.00
    8    7   43     -3.20      0.00
   10    7   43     19.31      0.00
   12    7   43      3.00      0.00
   14    7   43    -10.01      0.00
   16    7   43     17.47      0.00
   18    7   43      3.87      0.00
   20    7   43     -1.86      0.00
   22    7   43     11.91      0.00
   24    7   43      0.04      0.00
    1    8   43     -7.74      0.00
    3    8   43     -3.94      0.00
    5    8   43     11.47      0.00
    7    8   43     -4.28      0.00
    9    8   43    -10.81      0.00
   11    8   43     -4.43      0.00
   13    8   43    -11.48      0.00
   15    8   43      5.31      0.00
   17    8   43      7.73      0.00
   19    8   43    -33.45      0.00
   21    8   43    -26.43      0.00
   23    8   43     11.92      0.00
    0    9   43      5.60      0.00
    2    9   43    -28.09      0.00
    4    9   43     -7.24      0.00
    6    9   43     -4.95      0.00
    8    9   43     -5.22      0.00
   10    9   43      5.22      0.00
   12    9   43     -7.05      0.00
   14    9   43     -6.07      0.00
   16    9   43      8.85      0.00
   18    9   43     -2.21      0.00
   20    9   43      6.40      0.00
   22    9   43      2.02      0.00
    1   10   43      5.56      0.00
    3   10   43      2.38      0.00
    5   10   43      6.43      0.00
    7   10   43    -17.62      0.00
    9   10   43     -7.64      0.00
   11   10   43     -5.84      0.00
   13   10   43     -4.11      0.00
   15   10   43      1.07      0.00
   17   10   43     -6.08      0.00
   19   10   43      0.35      0.00
   21   10   43      6.70      0.00
   23   10   43     11.70      0.00
    0   11   43    -11.27      0.00
    2   11   43    -16.32      0.00
    4   11   43     12.59      0.00
    6   11   43    -12.50      0.00
    8   11   43     -3.76      0.00
   10   11   43      0.76      0.00
   12   11   43     -7.06      0.00
   14   11   43    -12.99      0.00
   16   11   43    -11.84      0.00
   18   11   43      7.31      0.00
   20   11   43     -0.16      0.00
   22   11   43     -6.72      0.00
    1   12   43      1.18      0.00
    3   12   43    -10.28      0.00
    5   12   43    -11.91      0.00
    7   12   43    -18.45      0.00
    9   12   43      1.07      0.00
   11   12   43     -5.08      0.00
   13   12   43      0.91      0.00
   15   12   43    -16.78      0.00
   17   12   43    -13.42      0.00
   19   12   43     13.80      0.00
   21   12   43      9.85      0.00
    0   13   43     -7.70      0.00
    2   13   43    -14.46      0.00
    4   13   43     20.14      0.00
    6   13   43     -1.37      0.00
    8   13   43    -15.34      0.00
   10   13   43      1.33      0.00
   12   13   43     -5.64      0.00
   14   13   43    -17.22      0.00
   16   13   43     -6.36      0.00
   18   13   43     13.17      0.00
   20   13   43     11.95      0.00
    1   14   43     14.24      0.00
    3   14   43     -4.46      0.00
    5   14   43     11.78      0.00
    7   14   43      2.17      0.00
    9   14   43      1.38      0.00
   11   14   43      5.32      0.00
   13   14   43     -9.65      0.00
   15   14   43    -20.85      0.00
   17   14   43      6.09      0.00
   19   14   43      5.39      0.00
    0   15   43      5.36      0.00
    2   15   43    -10.32      0.00
    4   15   43      5.71      0.00
    6   15   43     -1.49      0.00
    8   15   43     -8.52      0.00
   10   15   43     -3.59      0.00
   12   15   43    -16.16      0.00
   14   15   43     -0.55      0.00
   16   15   43     11.83      0.00
   18   15   43      3.57      0.00
   20   15   43     10.22      0.00
    1   16   43     17.57      0.00
    3   16   43     -5.34      0.00
    5   16   43      1.53      0.00
    7   16   43      1.09      0.00
    9   16   43     11.46      0.00
   11   16   43      5.09      0.00
   13   16   43     -1.85      0.00
   15   16   43      2.47      0.00
   17   16   43     -0.70      0.00
   19   16   43      4.44      0.00
    0   17   43    -13.61      0.00
    2   17   43    -29.27      0.00
    4   17   43    -22.95      0.00
    6   17   43    -10.16      0.00
    8   17   43      4.36      0.00
   10   17   43     -2.73      0.00
   12   17   43    -15.43      0.00
   14   17   43    -15.21      0.00
   16   17   43    -11.92      0.00
   18   17   43    -11.10      0.00
    1   18   43     -1.13      0.00
    3   18   43     10.22      0.00
    5   18   43     12.72      0.00
    7   18   43     11.49      0.00
    9   18   43     18.23      0.00
   11   18   43      8.45      0.00
   13   18   43     -8.63      0.00
   15   18   43     -0.90      0.00
   17   18   43     -3.31      0.00
    0   19   43      5.26      0.00
    2   19   43    -11.08      0.00
    4   19   43    -16.08      0.00
    6   19   43     -1.27      0.00
    8   19   43      4.97      0.00
   10   19   43     17.50      0.00
   12   19   43      4.63      0.00
   14   19   43      0.65      0.00
   16   19   43      8.25      0.00
    1   20   43     -5.77      0.00
    3   20   43      4.32      0.00
    5   20   43     18.25      0.00
    7   20   43     15.64      0.00
    9   20   43    -25.23      0.00
   11   20   43     -7.02      0.00
   13   20   43     -5.87      0.00
   15   20   43     -0.90      0.00
    0   21   43     -1.77      0.00
    2   21   43      5.63      0.00
    4   21   43     -8.19      0.00
    6   21   43     -2.09      0.00
    8   21   43      0.42      0.00
   10   21   43      4.66      0.00
   12   21   43      4.28      0.00
    1   22   43     25.39      0.00
    3   22   43      2.26      0.00
    5   22   43     10.76      0.00
    7   22   43     18.54      0.00
    9   22   43     -4.77      0.00
   11   22   43      1.29      0.00
    0   23   43      6.39      0.00
    2   23   43     -0.96      0.00
    4   23   43      2.24      0.00
    6   23   43     12.20      0.00
    8   23   43     -5.15      0.00
   10   23   43     -4.01      0.00
    1   24   43      9.72      0.00
    3   24   43     -9.05      0.00
    5   24   43      0.76      0.00
    7   24   43      1.87      0.00
    0   25   43    -19.38      0.00
    2   25   43    -33.20      0.00
    0    0   44      3.62      0.00
    2    0   44     -4.05      0.00
    4    0   44     22.35      0.00
    6    0   44     12.35      0.00
    8    0   44    -40.76      0.00
   10    0   44    -15.68      0.00
   12    0   44     -5.72      0.00
   14    0   44     -5.26      0.00
   16    0   44      7.62      0.00
   18    0   44    -11.08      0.00
   20    0   44     -3.12      0.00
   22    0   44      8.75      0.00
    1    1   44     18.35      0.00
    3    1   44     -6.08      0.00
    5    1   44     11.12      0.00
    7    1   44     -3.13      0.00
    9    1   44      1.33      0.00
   11    1   44      1.79      0.00
   13    1   44    -14.20      0.00
   15    1   44     -7.34      0.00
   17    1   44    -14.03      0.00
   19    1   44    -12.69      0.00
   21    1   44      9.94      0.00
   23    1   44    -13.39      0.00
    0    2   44      6.33      0.00
    2    2   44     -4.06      0.00
    4    2   44      3.99      0.00
    6    2   44     21.50      0.00
    8    2   44      5.33      0.00
   10    2   44     -8.79      0.00
   12    2   44     -5.75      0.00
   14    2   44      6.48      0.00
   16    2   44      5.65      0.00
   18    2   44     10.33      0.00
   20    2   44      5.54      0.00
   22    2   44     -5.95      0.00
    1    3   44      3.06      0.00
    3    3   44     20.29      0.00
    5    3   44      8.51      0.00
    7    3   44     -6.72      0.00
    9    3   44      0.68      0.00
   11    3   44      6.38      0.00
   13    3   44      1.02      0.00
   15    3   44     -6.26      0.00
   17    3   44     -1.30      0.00
   19    3   44     -3.89      0.00
   21    3   44    -18.70      0.00
   23    3   44      0.78      0.00
    0    4   44     23.69      0.00
    2    4   44     -1.11      0.00
    4    4   44    -22.84      0.00
    6    4   44     -1.41      0.00
    8    4   44     -0.88      0.00
   10    4   44      1.95      0.00
   12    4   44      5.96      0.00
   14    4   44      1.37      0.00
   16    4   44     -9.62      0.00
   18    4   44     -8.08      0.00
   20    4   44      5.43      0.00
   22    4   44     -5.07      0.00
    1    5   44     -1.66      0.00
    3    5   44      6.26      0.00
    5    5   44     20.04      0.00
    7    5   44     -1.92      0.00
    9    5   44    -18.52      0.00
   11    5   44      5.60      0.00
   13    5   44      8.51      0.00
   15    5   44     14.76      0.00
   17    5   44    -19.40      0.00
   19    5   44    -12.62      0.00
   21    5   44      1.56      0.00
    0    6   44     19.08      0.00
    2    6   44     15.34      0.00
    4    6   44    -21.49      0.00
    6    6   44    -18.83      0.00
    8    6   44    -10.59      0.00
   10    6   44     -0.54      0.00
   12    6   44     21.00      0.00
   14    6   44      6.63      0.00
   16    6   44    -19.50      0.00
   18    6   44    -23.02      0.00
   20    6   44     -5.77      0.00
   22    6   44      1.67      0.00
    1    7   44      0.96      0.00
    3    7   44     -4.13      0.00
    5    7   44    -12.37      0.00
    7    7   44     25.98      0.00
    9    7   44     -1.55      0.00
   11    7   44    -20.09      0.00
   13    7   44      7.32      0.00
   15    7   44      6.56      0.00
   17    7   44     -8.75      0.00
   19    7   44     -2.14      0.00
   21    7   44     -3.48      0.00
    0    8   44      4.97      0.00
    2    8   44     17.32      0.00
    4    8   44      2.38      0.00
    6    8   44      5.96      0.00
    8    8   44     10.83      0.00
   10    8   44      1.73      0.00
   12    8   44     22.17      0.00
   14    8   44     13.89      0.00
   16    8   44    -14.79      0.00
   18    8   44     -9.94      0.00
   20    8   44      4.31      0.00
    1    9   44     12.59      0.00
    3    9   44     -4.04      0.00
    5    9   44    -13.71      0.00
    7    9   44     -1.11      0.00
    9    9   44     12.15      0.00
   11    9   44     -1.12      0.00
   13    9   44    -17.75      0.00
   15    9   44    -16.16      0.00
   17    9   44      6.96      0.00
   19    9   44     -8.75      0.00
   21    9   44     -3.09      0.00
    0   10   44     -8.65      0.00
    2   10   44     -7.47      0.00
    4   10   44      8.05      0.00
    6   10   44      4.40      0.00
    8   10   44     -8.44      0.00
   10   10   44    -11.06      0.00
   12   10   44    -12.86      0.00
   14   10   44     -3.95      0.00
   16   10   44      9.05      0.00
   18   10   44      2.59      0.00
   20   10   44      2.34      0.00
    1   11   44      4.92      0.00
    3   11   44     13.67      0.00
    5   11   44      6.26      0.00
    7   11   44    -10.65      0.00
    9   11   44      9.04      0.00
   11   11   44     -8.65      0.00
   13   11   44    -12.36      0.00
   15   11   44      5.67      0.00
   17   11   44      4.34      0.00
   19   11   44      1.41      0.00
    0   12   44    -16.30      0.00
    2   12   44      7.99      0.00
    4   12   44     18.31      0.00
    6   12   44      1.48      0.00
    8   12   44     15.13      0.00
   10   12   44    -11.22      0.00
   12   12   44     -9.62      0.00
   14   12   44     -3.49      0.00
   16   12   44     -4.97      0.00
   18   12   44      2.16      0.00
   20   12   44     -4.64      0.00
    1   13   44     -6.41      0.00
    3   13   44     30.92      0.00
    5   13   44      1.56      0.00
    7   13   44     -2.39      0.00
    9   13   44     -2.06      0.00
   11   13   44    -11.25      0.00
   13   13   44      4.15      0.00
   15   13   44    -11.99      0.00
   17   13   44      1.10      0.00
   19   13   44      6.65      0.00
    0   14   44      7.78      0.00
    2   14   44      4.00      0.00
    4   14   44      0.99      0.00
    6   14   44      0.94      0.00
    8   14   44     15.18      0.00
   10   14   44      5.25      0.00
   12   14   44      8.03      0.00
   14   14   44      2.79      0.00
   16   14   44      5.05      0.00
   18   14   44     13.24      0.00
    1   15   44      3.19      0.00
    3   15   44      1.39      0.00
    5   15   44     11.61      0.00
    7   15   44    -20.26      0.00
    9   15   44    -29.21      0.00
   11   15   44      7.73      0.00
   13   15   44      9.30      0.00
   15   15   44     -6.94      0.00
   17   15   44      2.98      0.00
    0   16   44     35.56      0.00
    2   16   44     11.28      0.00
    4   16   44    -13.25      0.00
    6   16   44    -12.85      0.00
    8   16   44      5.51      0.00
   10   16   44     12.15      0.00
   12   16   44      3.80      0.00
   14   16   44     -4.90      0.00
   16   16   44     -2.61      0.00
    1   17   44      7.18      0.00
    3   17   44      6.18      0.00
    5   17   44    -18.26      0.00
    7   17   44     -8.68      0.00
    9   17   44      7.03      0.00
   11   17   44      1.72      0.00
   13   17   44      6.34      0.00
   15   17   44     11.81      0.00
    0   18   44     -4.52      0.00
    2   18   44     13.55      0.00
    4   18   44    -15.81      0.00
    6   18   44    -22.28      0.00
    8   18   44     10.82      0.00
   10   18   44      0.20      0.00
   12   18   44     12.53      0.00
   14   18   44     15.34      0.00
    1   19   44     -8.24      0.00
    3   19   44      8.65      0.00
    5   19   44    -17.10      0.00
    7   19   44      6.84      0.00
    9   19   44     -2.98      0.00
   11   19   44    -25.39      0.00
   13   19   44    -18.89      0.00
    0   20   44      5.59      0.00
    2   20   44      4.08      0.00
    4   20   44      2.79      0.00
    6   20   44     -1.07      0.00
    8   20   44      5.38      0.00
   10   20   44      1.11      0.00
   12   20   44      4.35      0.00
    1   21   44     19.35      0.00
    3   21   44     -7.95      0.00
    5   21   44     13.47      0.00
    7   21   44     -0.72      0.00
    9   21   44    -17.90      0.00
    0   22   44     16.48      0.00
    2   22   44     -0.92      0.00
    4   22   44     10.59      0.00
    6   22   44      7.58      0.00
    1   23   44     -1.37      0.00
    3   23   44     16.03      0.00
    1    0   45     -0.01      0.00
    3    0   45      2.73      0.00
    5    0   45     -5.83      0.00
    7    0   45      6.70      0.00
    9    0   45     -6.39      0.00
   11    0   45     -8.67      0.00
   13    0   45     -1.21      0.00
   15    0   45      6.83      0.00
   17    0   45    -13.97      0.00
   19    0   45     -2.06      0.00
   21    0   45      4.57      0.00
    0    1   45     -3.43      0.00
    2    1   45      6.86      0.00
    4    1   45      3.44      0.00
    6    1   45     -6.42      0.00
    8    1   45      8.74      0.00
   10    1   45      7.77      0.00
   12    1   45     -7.15      0.00
   14    1   45    -23.05      0.00
   16    1   45    -19.52      0.00
   18    1   45    -24.10      0.00
   20    1   45    -25.87      0.00
    1    2   45     -9.41      0.00
    3    2   45      1.21      0.00
    5    2   45     -9.29      0.00
    7    2   45      6.19      0.00
    9    2   45      0.21      0.00
   11    2   45    -10.28      0.00
   13    2   45    -11.13      0.00
   15    2   45      2.20      0.00
   17    2   45      6.32      0.00
   19    2   45     19.38      0.00
   21    2   45     -2.07      0.00
    0    3   45     19.94      0.00
    2    3   45     13.65      0.00
    4    3   45      0.62      0.00
    6    3   45     16.85      0.00
    8    3   45     25.13      0.00
   10    3   45      1.38      0.00
   12    3   45    -12.04      0.00
   14    3   45      2.82      0.00
   16    3   45      3.53      0.00
   18    3   45      1.16      0.00
   20    3   45     -2.43      0.00
    1    4   45    -10.20      0.00
    3    4   45      8.54      0.00
    5    4   45    -15.54      0.00
    7    4   45     -4.87      0.00
    9    4   45     -4.39      0.00
   11    4   45     -4.83      0.00
   13    4   45    -10.27      0.00
   15    4   45     -2.67      0.00
   17    4   45     -7.34      0.00
   19    4   45      3.82      0.00
   21    4   45      1.46      0.00
    0    5   45     -7.40      0.00
    2    5   45      9.09      0.00
    4    5   45     -2.85      0.00
    6    5   45     -8.04      0.00
    8    5   45    -10.50      0.00
   10    5   45    -21.43      0.00
   12    5   45     -4.42      0.00
   14    5   45      4.33      0.00
   16    5   45      6.86      0.00
   18    5   45      1.75      0.00
   20    5   45     -1.90      0.00
    1    6   45     10.72      0.00
    3    6   45      7.27      0.00
    5    6   45      5.77      0.00
    7    6   45     18.65      0.00
    9    6   45     -5.41      0.00
   11    6   45     -2.86      0.00
   13    6   45     10.65      0.00
   15    6   45      8.64      0.00
   17    6   45     -9.82      0.00
   19    6   45      1.77      0.00
    0    7   45     -2.96      0.00
    2    7   45     -4.80      0.00
    4    7   45     15.44      0.00
    6    7   45      9.77      0.00
    8    7   45     -3.73      0.00
   10    7   45     -3.60      0.00
   12    7   45     21.00      0.00
   14    7   45     19.59      0.00
   16    7   45      2.39      0.00
   18    7   45     -4.70      0.00
   20    7   45     -3.05      0.00
    1    8   45      4.82      0.00
    3    8   45      4.09      0.00
    5    8   45     -2.12      0.00
    7    8   45     -7.58      0.00
    9    8   45     -8.03      0.00
   11    8   45     -6.64      0.00
   13    8   45     -1.69      0.00
   15    8   45     -3.75      0.00
   17    8   45     -1.73      0.00
   19    8   45      7.30      0.00
    0    9   45    -16.21      0.00
    2    9   45    -11.06      0.00
    4    9   45     21.78      0.00
    6    9   45     -4.05      0.00
    8    9   45      5.74      0.00
   10    9   45      4.94      0.00
   12    9   45     -5.48      0.00
   14    9   45     -6.53      0.00
   16    9   45     -7.83      0.00
   18    9   45    -17.26      0.00
    1   10   45     -0.35      0.00
    3   10   45     30.90      0.00
    5   10   45      8.89      0.00
    7   10   45    -25.72      0.00
    9   10   45     -3.83      0.00
   11   10   45     -3.57      0.00
   13   10   45     -6.44      0.00
   15   10   45      6.57      0.00
   17   10   45      9.68      0.00
    0   11   45      1.64      0.00
    2   11   45      0.97      0.00
    4   11   45     17.78      0.00
    6   11   45    -10.04      0.00
    8   11   45     13.87      0.00
   10   11   45     10.36      0.00
   12   11   45      1.21      0.00
   14   11   45     -7.80      0.00
   16   11   45     -1.09      0.00
   18   11   45     15.64      0.00
    1   12   45      2.56      0.00
    3   12   45      1.40      0.00
    5   12   45     -6.31      0.00
    7   12   45    -15.76      0.00
    9   12   45      3.02      0.00
   11   12   45    -10.21      0.00
   13   12   45     -7.99      0.00
   15   12   45    -11.93      0.00
   17   12   45     -9.60      0.00
    0   13   45     19.52      0.00
    2   13   45     -2.79      0.00
    4   13   45     18.38      0.00
    6   13   45     12.26      0.00
    8   13   45      3.14      0.00
   10   13   45     -4.65      0.00
   12   13   45     -1.15      0.00
   14   13   45     -2.68      0.00
   16   13   45    -10.17      0.00
    1   14   45     10.95      0.00
    3   14   45     -1.23      0.00
    5   14   45     -4.44      0.00
    7   14   45      3.64      0.00
    9   14   45     19.08      0.00
   11   14   45      9.72      0.00
   13   14   45     -7.48      0.00
   15   14   45    -20.54      0.00
    0   15   45      3.81      0.00
    2   15   45     -1.34      0.00
    4   15   45     -2.68      0.00
    6   15   45    -11.81      0.00
    8   15   45      6.27      0.00
   10   15   45      3.45      0.00
   12   15   45     -3.58      0.00
   14   15   45     -3.50      0.00
    1   16   45     12.50      0.00
    3   16   45      7.52      0.00
    5   16   45     -7.47      0.00
    7   16   45     -0.78      0.00
    9   16   45     -1.02      0.00
   11   16   45    -10.67      0.00
   13   16   45    -13.00      0.00
    0   17   45     11.03      0.00
    2   17   45      6.36      0.00
    4   17   45     -2.25      0.00
    6   17   45     -3.23      0.00
    8   17   45      9.14      0.00
   10   17   45     11.78      0.00
   12   17   45     10.72      0.00
    1   18   45      9.83      0.00
    3   18   45      3.81      0.00
    5   18   45    -10.23      0.00
    7   18   45     -1.91      0.00
    9   18   45     -7.65      0.00
   11   18   45    -11.82      0.00
    0   19   45      2.86      0.00
    2   19   45      1.59      0.00
    4   19   45      0.68      0.00
    6   19   45     14.02      0.00
    8   19   45     -3.12      0.00
    1   20   45     14.41      0.00
    3   20   45     13.38      0.00
    5   20   45     -7.79      0.00
    7   20   45      8.48      0.00
    0   21   45    -15.17      0.00
    2   21   45      8.71      0.00
    4   21   45     -2.95      0.00
    0    0   46    -10.88      0.00
    2    0   46     -3.58      0.00
    4    0   46     -1.11      0.00
    6    0   46      4.80      0.00
    8    0   46     26.48      0.00
   10    0   46      4.21      0.00
   12    0   46     -7.40      0.00
   14    0   46    -19.07      0.00
   16    0   46      1.09      0.00
   18    0   46      5.47      0.00
    1    1   46     11.42      0.00
    3    1   46     -2.36      0.00
    5    1   46     -5.95      0.00
    7    1   46     13.92      0.00
    9    1   46      3.91      0.00
   11    1   46     -0.14      0.00
   13    1   46      9.98      0.00
   15    1   46    -23.13      0.00
   17    1   46    -15.37      0.00
   19    1   46    -11.21      0.00
    0    2   46     -0.63      0.00
    2    2   46      4.37      0.00
    4    2   46      2.25      0.00
    6    2   46      7.88      0.00
    8    2   46     25.75      0.00
   10    2   46     -5.18      0.00
   12    2   46     -8.15      0.00
   14    2   46      0.26      0.00
   16    2   46      0.26      0.00
   18    2   46     10.60      0.00
    1    3   46     -2.12      0.00
    3    3   46     10.83      0.00
    5    3   46     -7.13      0.00
    7    3   46      8.51      0.00
    9    3   46      5.63      0.00
   11    3   46    -11.76      0.00
   13    3   46     -6.45      0.00
   15    3   46    -21.07      0.00
   17    3   46      0.23      0.00
    0    4   46     -7.88      0.00
    2    4   46     18.84      0.00
    4    4   46     17.87      0.00
    6    4   46     -4.28      0.00
    8    4   46      3.59      0.00
   10    4   46      2.75      0.00
   12    4   46      3.23      0.00
   14    4   46      7.18      0.00
   16    4   46    -14.11      0.00
   18    4   46     -9.44      0.00
    1    5   46      5.47      0.00
    3    5   46     16.13      0.00
    5    5   46     -0.09      0.00
    7    5   46     -1.38      0.00
    9    5   46     -2.52      0.00
   11    5   46     -0.79      0.00
   13    5   46      5.77      0.00
   15    5   46      5.24      0.00
   17    5   46    -12.54      0.00
    0    6   46     -5.98      0.00
    2    6   46     13.80      0.00
    4    6   46      5.35      0.00
    6    6   46     -8.42      0.00
    8    6   46      3.25      0.00
   10    6   46     16.85      0.00
   12    6   46     18.63      0.00
   14    6   46     14.31      0.00
   16    6   46    -10.77      0.00
   18    6   46     -4.45      0.00
    1    7   46      0.55      0.00
    3    7   46     -5.42      0.00
    5    7   46    -18.73      0.00
    7    7   46     11.79      0.00
    9    7   46      4.73      0.00
   11    7   46     -6.35      0.00
   13    7   46      9.86      0.00
   15    7   46    -12.95      0.00
   17    7   46    -32.30      0.00
    0    8   46     -0.20      0.00
    2    8   46     14.46      0.00
    4    8   46      6.46      0.00
    6    8   46      4.18      0.00
    8    8   46     14.77      0.00
   10    8   46     -0.75      0.00
   12    8   46      4.59      0.00
   14    8   46     18.30      0.00
   16    8   46      1.71      0.00
    1    9   46      6.67      0.00
    3    9   46      8.05      0.00
    5    9   46    -14.38      0.00
    7    9   46      0.81      0.00
    9    9   46      5.68      0.00
   11    9   46     -9.16      0.00
   13    9   46     -7.92      0.00
   15    9   46    -26.22      0.00
    0   10   46     -9.69      0.00
    2   10   46      1.74      0.00
    4   10   46     13.14      0.00
    6   10   46      2.18      0.00
    8   10   46     15.72      0.00
   10   10   46      4.74      0.00
   12   10   46     -9.95      0.00
   14   10   46     -2.95      0.00
   16   10   46     20.81      0.00
    1   11   46     17.37      0.00
    3   11   46     11.24      0.00
    5   11   46     11.33      0.00
    7   11   46      5.02      0.00
    9   11   46      0.82      0.00
   11   11   46    -15.04      0.00
   13   11   46     -6.87      0.00
   15   11   46      1.42      0.00
    0   12   46     10.90      0.00
    2   12   46      1.25      0.00
    4   12   46     14.22      0.00
    6   12   46      5.37      0.00
    8   12   46     14.38      0.00
   10   12   46     -4.99      0.00
   12   12   46      1.14      0.00
   14   12   46      4.06      0.00
    1   13   46      3.89      0.00
    3   13   46      2.81      0.00
    5   13   46     -5.90      0.00
    7   13   46      8.62      0.00
    9   13   46     -4.81      0.00
   11   13   46    -13.53      0.00
   13   13   46     18.35      0.00
    0   14   46      1.43      0.00
    2   14   46     -0.94      0.00
    4   14   46     10.13      0.00
    6   14   46     10.66      0.00
    8   14   46     17.72      0.00
   10   14   46     -6.85      0.00
   12   14   46      4.06      0.00
    1   15   46      5.93      0.00
    3   15   46      9.60      0.00
    5   15   46      2.27      0.00
    7   15   46     -9.37      0.00
    9   15   46    -12.33      0.00
   11   15   46     12.92      0.00
    0   16   46      2.78      0.00
    2   16   46      3.54      0.00
    4   16   46      3.78      0.00
    6   16   46    -16.68      0.00
    8   16   46     -6.65      0.00
   10   16   46     25.98      0.00
    1   17   46      8.13      0.00
    3   17   46     20.26      0.00
    5   17   46      3.02      0.00
    7   17   46    -11.61      0.00
    0   18   46     -7.30      0.00
    2   18   46     11.68      0.00
    4   18   46     -1.59      0.00
    6   18   46    -19.98      0.00
    1   19   46      1.08      0.00
    1    0   47      5.72      0.00
    3    0   47     -3.33      0.00
    5    0   47     -2.52      0.00
    7    0   47     -8.69      0.00
    9    0   47     -3.62      0.00
   11    0   47     15.09      0.00
   13    0   47      4.26      0.00
   15    0   47    -11.92      0.00
    0    1   47     -6.48      0.00
    2    1   47     -0.45      0.00
    4    1   47     -1.55      0.00
    6    1   47      7.78      0.00
    8    1   47     -4.03      0.00
   10    1   47     -5.07      0.00
   12    1   47     -0.50      0.00
   14    1   47     -9.26      0.00
   16    1   47     -7.99      0.00
    1    2   47    -11.48      0.00
    3    2   47     -2.06      0.00
    5    2   47      0.88      0.00
    7    2   47     12.29      0.00
    9    2   47     -5.38      0.00
   11    2   47     -5.36      0.00
   13    2   47     -5.26      0.00
   15    2   47     -2.00      0.00
    0    3   47     -6.86      0.00
    2    3   47      7.22      0.00
    4    3   47    -16.51      0.00
    6    3   47     11.59      0.00
    8    3   47      7.11      0.00
   10    3   47    -26.04      0.00
   12    3   47    -20.46      0.00
   14    3   47     -1.26      0.00
   16    3   47     -5.35      0.00
    1    4   47    -13.28      0.00
    3    4   47     27.74      0.00
    5    4   47     16.31      0.00
    7    4   47     14.81      0.00
    9    4   47    -21.47      0.00
   11    4   47    -26.01      0.00
   13    4   47     -5.60      0.00
   15    4   47      6.43      0.00
    0    5   47    -22.11      0.00
    2    5   47     10.26      0.00
    4    5   47     -0.15      0.00
    6    5   47      0.86      0.00
    8    5   47      1.99      0.00
   10    5   47     -0.86      0.00
   12    5   47     -3.39      0.00
   14    5   47    -15.11      0.00
    1    6   47    -17.78      0.00
    3    6   47     -2.40      0.00
    5    6   47      7.19      0.00
    7    6   47      1.55      0.00
    9    6   47     -2.69      0.00
   11    6   47      3.39      0.00
   13    6   47     -0.94      0.00
   15    6   47      6.69      0.00
    0    7   47      4.28      0.00
    2    7   47      0.02      0.00
    4    7   47      8.03      0.00
    6    7   47     -0.50      0.00
    8    7   47    -18.55      0.00
   10    7   47      6.48      0.00
   12    7   47     13.04      0.00
   14    7   47     -4.99      0.00
    1    8   47     -6.48      0.00
    3    8   47    -14.27      0.00
    5    8   47     -2.35      0.00
    7    8   47     -3.49      0.00
    9    8   47     -3.69      0.00
   11    8   47     -0.27      0.00
   13    8   47     -6.00      0.00
    0    9   47     -8.49      0.00
    2    9   47      3.06      0.00
    4    9   47     23.32      0.00
    6    9   47     13.14      0.00
    8    9   47      3.09      0.00
   10    9   47    -13.60      0.00
   12    9   47     -7.28      0.00
    1   10   47     12.16      0.00
    3   10   47     17.60      0.00
    5   10   47      8.63      0.00
    7   10   47     -2.55      0.00
    9   10   47      5.31      0.00
   11   10   47      6.88      0.00
   13   10   47     11.00      0.00
    0   11   47     -0.80      0.00
    2   11   47      0.07      0.00
    4   11   47     11.21      0.00
    6   11   47     -6.63      0.00
    8   11   47      6.21      0.00
   10   11   47     -0.29      0.00
   12   11   47      0.47      0.00
    1   12   47     -0.01      0.00
    3   12   47     -7.22      0.00
    5   12   47      2.17      0.00
    7   12   47     -1.60      0.00
    9   12   47     14.44      0.00
   11   12   47      2.78      0.00
    0   13   47     37.90      0.00
    2   13   47     10.15      0.00
    4   13   47      2.21      0.00
    6   13   47      0.84      0.00
    8   13   47      0.58      0.00
   10   13   47    -11.86      0.00
    1   14   47     -1.49      0.00
    3   14   47     -6.32      0.00
    5   14   47    -15.00      0.00
    7   14   47     -4.40      0.00
    0   15   47      4.59      0.00
    2   15   47      9.99      0.00
    4   15   47    -10.78      0.00
    6   15   47     -5.64      0.00
    1   16   47      0.00      0.00
    3   16   47     15.66      0.00
    0    0   48     13.23      0.00
    2    0   48    -36.52      0.00
    4    0   48    -42.90      0.00
    6    0   48     -4.42      0.00
    8    0   48     14.46      0.00
   10    0   48     31.45      0.00
   12    0   48      1.65      0.00
    1    1   48     16.57      0.00
    3    1   48     -3.80      0.00
    5    1   48      2.00      0.00
    7    1   48     -3.34      0.00
    9    1   48      5.01      0.00
   11    1   48      5.71      0.00
   13    1   48    -13.13      0.00
    0    2   48      5.22      0.00
    2    2   48     -0.93      0.00
    4    2   48    -14.12      0.00
    6    2   48     -4.42      0.00
    8    2   48     10.76      0.00
   10    2   48     -2.65      0.00
   12    2   48    -11.45      0.00
    1    3   48    -11.20      0.00
    3    3   48      3.59      0.00
    5    3   48     -8.42      0.00
    7    3   48     25.20      0.00
    9    3   48     32.91      0.00
   11    3   48    -10.03      0.00
   13    3   48    -16.71      0.00
    0    4   48    -22.87      0.00
    2    4   48      7.41      0.00
    4    4   48     25.59      0.00
    6    4   48     10.48      0.00
    8    4   48     -1.12      0.00
   10    4   48     -3.51      0.00
   12    4   48     -2.99      0.00
    1    5   48     -6.83      0.00
    3    5   48      5.48      0.00
    5    5   48      4.90      0.00
    7    5   48     -0.48      0.00
    9    5   48     19.35      0.00
   11    5   48     -2.49      0.00
    0    6   48    -25.91      0.00
    2    6   48    -11.61      0.00
    4    6   48     11.53      0.00
    6    6   48      8.33      0.00
    8    6   48      8.20      0.00
   10    6   48     25.78      0.00
    1    7   48     -5.61      0.00
    3    7   48      1.82      0.00
    5    7   48     -9.10      0.00
    7    7   48     -0.20      0.00
    9    7   48     27.80      0.00
   11    7   48     13.67      0.00
    0    8   48      0.66      0.00
    2    8   48     -7.24      0.00
    4    8   48    -15.37      0.00
    6    8   48      1.26      0.00
    8    8   48      2.50      0.00
   10    8   48    -11.73      0.00
    1    9   48      9.25      0.00
    3    9   48     -0.81      0.00
    5    9   48      8.48      0.00
    7    9   48     -2.77      0.00
    9    9   48     -6.35      0.00
    0   10   48     24.84      0.00
    2   10   48    -15.31      0.00
    4   10   48    -14.60      0.00
    6   10   48     16.99      0.00
    8   10   48     18.82      0.00
    1   11   48      9.05      0.00
    3   11   48     -9.82      0.00
    5   11   48     13.80      0.00
    7   11   48    -10.22      0.00
    0   12   48     33.11      0.00
    2   12   48     -3.37      0.00
    4   12   48     -7.95      0.00
    1   13   48     -6.79      0.00
    3   13   48     -7.91      0.00
    1    0   49      9.08      0.00
    3    0   49     -0.01      0.00
    5    0   49     25.41      0.00
    7    0   49     -6.07      0.00
    9    0   49    -29.76      0.00
    0    1   49     22.17      0.00
    2    1   49     -0.43      0.00
    4    1   49     -5.34      0.00
    6    1   49     10.89      0.00
    8    1   49      1.39      0.00
    1    2   49    -13.24      0.00
    3    2   49    -20.47      0.00
    5    2   49      0.02      0.00
    7    2   49      8.72      0.00
    0    3   49     16.79      0.00
    2    3   49     26.26      0.00
    4    3   49     26.47      0.00
    6    3   49     26.43      0.00
    8    3   49     -0.58      0.00
    1    4   49    -11.60      0.00
    3    4   49    -15.72      0.00
    5    4   49      9.05      0.00
    7    4   49     14.17      0.00
    0    5   49    -18.98      0.00
    2    5   49     -3.64      0.00
    4    5   49     16.01      0.00
    6    5   49     23.35      0.00
    1    6   49      3.62      0.00
    3    6   49     -4.96      0.00
    5    6   49      0.51      0.00
    0    7   49     10.10      0.00
    2    7   49      1.40      0.00
    4    7   49      0.44      0.00
    1    8   49      4.14      0.00
    3    8   49     -3.65      0.00
    0    9   49     31.95      0.00
    0    1    1    299.50      0.00
    0    0    2   1428.32      0.00
    1    1    2    313.23      0.00
    0    2    2    308.21      0.00
    2    3    3   -131.98      0.00
    2    0   16     78.56      0.00
   30   25   31     11.33      0.00
   25   30   31     -3.12      0.00
   24   31   31     -8.36      0.00
   31   23   32    -14.25      0.00
   30   24   32    -18.10      0.00
   29   25   32      1.58      0.00
   28   26   32     -4.84      0.00
   26   28   32      4.47      0.00
   25   29   32     -6.12      0.00
   24   30   32     -1.23      0.00
   23   31   32     -4.83      0.00
   30   23   33      3.69      0.00
   29   24   33      4.51      0.00
   28   25   33     -0.04      0.00
   27   26   33     -2.14      0.00
   26   27   33      3.43      0.00
   25   28   33      8.33      0.00
   24   29   33     12.46      0.00
   23   30   33      5.25      0.00
   18   33   33      2.82      0.00
   32   18   34     12.83      0.00
   28   24   34      6.48      0.00
   27   25   34      1.36      0.00
   26   26   34      6.11      0.00
   25   27   34     10.99      0.00
   24   28   34    -14.07      0.00
   18   32   34    -10.94      0.00
   14   34   34    -12.62      0.00
   34   11   35     -2.72      0.00
   33   14   35     -5.91      0.00
   31   18   35      3.73      0.00
   30   19   35    -11.39      0.00
   19   30   35     -8.54      0.00
   18   31   35      6.85      0.00
   14   33   35      9.09      0.00
   11   34   35     -8.83      0.00
    6   35   35      4.37      0.00
    8   35   35      0.79      0.00
   34    6   36     -1.61      0.00
   34    8   36     14.26      0.00
    0   10   36    -14.57      0.00
   33   11   36     10.05      0.00
   32   14   36      3.67      0.00
   30   18   36     -8.11      0.00
   29   19   36      0.94      0.00
   19   29   36      2.41      0.00
   18   30   36      6.46      0.00
   14   32   36      7.36      0.00
   11   33   36     -1.53      0.00
    6   34   36     -2.61      0.00
    8   34   36     11.32      0.00
   33    6   37    -11.14      0.00
   32   11   37      2.89      0.00
   30   15   37     -4.75      0.00
   28   19   37     -1.11      0.00
   27   20   37     14.41      0.00
   26   21   37      2.61      0.00
   21   26   37      1.10      0.00
   20   27   37     -3.71      0.00
   19   28   37     -7.60      0.00
   15   30   37      1.63      0.00
   11   32   37      8.83      0.00
    6   33   37     17.50      0.00
   32    4   38      1.93      0.00
   32    6   38      8.01      0.00
   31    9   38     -5.11      0.00
   30   12   38    -18.22      0.00
   29   15   38    -23.21      0.00
   28   16   38    -10.71      0.00
   26   20   38      6.43      0.00
   25   21   38      4.69      0.00
   24   22   38     12.55      0.00
   23   23   38    -10.39      0.00
   22   24   38     21.61      0.00
   21   25   38      3.08      0.00
   20   26   38      7.53      0.00
   16   28   38      9.48      0.00
   15   29   38      3.45      0.00
   12   30   38    -16.92      0.00
    9   31   38    -11.89      0.00
    4   32   38    -22.01      0.00
    6   32   38      7.37      0.00
   31    2   39     16.79      0.00
   31    4   39     17.96      0.00
   31    6   39      0.43      0.00
   30    9   39      0.46      0.00
   29   12   39     12.34      0.00
   27   16   39     -7.65      0.00
   26   17   39    -10.69      0.00
   17   26   39     15.78      0.00
   16   27   39     -9.27      0.00
   12   29   39     -8.16      0.00
    9   30   39     -2.89      0.00
    2   31   39    -14.74      0.00
    4   31   39     -5.86      0.00
    6   31   39     -2.24      0.00
   30    0   40    -15.42      0.00
   30    2   40     18.15      0.00
   30    4   40      7.68      0.00
   29    7   40      1.31      0.00
   28   10   40     -1.85      0.00
   27   13   40     10.65      0.00
   25   17   40    -10.46      0.00
   24   18   40    -10.21      0.00
   23   19   40    -13.28      0.00
   22   20   40     -8.37      0.00
   20   22   40      3.53      0.00
   19   23   40    -19.71      0.00
   18   24   40    -13.36      0.00
   17   25   40     12.52      0.00
   13   27   40    -35.26      0.00
   10   28   40      8.37      0.00
    7   29   40      5.38      0.00
    0   30   40     -3.67      0.00
    2   30   40      0.04      0.00
    4   30   40      9.67      0.00
   28    5   41    -24.41      0.00
   28    7   41      0.67      0.00
   27   10   41      3.75      0.00
   25   14   41     14.76      0.00
   14   25   41      0.64      0.00
   10   27   41     -4.70      0.00
    5   28   41      4.34      0.00
    7   28   41     -5.50      0.00
   27    1   42      6.52      0.00
   27    3   42      9.32      0.00
   27    5   42     -0.99      0.00
   26    8   42    -21.95      0.00
   25   11   42     -7.00      0.00
   24   12   42      3.33      0.00
   23   15   42      7.22      0.00
   22   16   42      5.23      0.00
   21   17   42     -1.38      0.00
   20   18   42    -21.12      0.00
   19   19   42      1.96      0.00
   18   20   42    -24.49      0.00
   17   21   42     -4.08      0.00
   16   22   42      2.97      0.00
   15   23   42      3.17      0.00
   12   24   42      3.26      0.00
   11   25   42     12.39      0.00
    8   26   42     -2.21      0.00
    1   27   42     12.95      0.00
    3   27   42      6.56      0.00
    5   27   42     -4.31      0.00
   25    4   43      8.65      0.00
   25    6   43     -1.84      0.00
   24    9   43     -5.07      0.00
   22   13   43     10.50      0.00
   21   14   43     -6.30      0.00
   14   21   43      7.73      0.00
   13   22   43      5.59      0.00
    9   24   43     10.68      0.00
    4   25   43    -10.29      0.00
    6   25   43     -1.69      0.00
   24    0   44    -12.97      0.00
   24    2   44     -0.99      0.00
   23    5   44     -4.33      0.00
   23    7   44      2.80      0.00
   22    8   44     14.04      0.00
   22   10   44     15.42      0.00
   21   11   44     26.65      0.00
   18   16   44      2.48      0.00
   17   17   44     -9.30      0.00
   16   18   44      3.74      0.00
   11   21   44     -9.70      0.00
    8   22   44      3.41      0.00
   10   22   44    -10.30      0.00
    5   23   44     15.76      0.00
    7   23   44      0.90      0.00
    0   24   44     17.00      0.00
    2   24   44     16.15      0.00
   22    1   45     -3.98      0.00
   22    3   45    -10.27      0.00
   21    6   45     10.04      0.00
   20    9   45     -1.92      0.00
   19   10   45      1.93      0.00
   18   13   45      4.90      0.00
   17   14   45      1.71      0.00
   16   15   45      3.14      0.00
   15   16   45     -4.26      0.00
   14   17   45      0.90      0.00
   13   18   45    -13.65      0.00
   10   19   45     -4.72      0.00
    9   20   45    -14.67      0.00
    6   21   45     -1.64      0.00
    1   22   45     13.04      0.00
    3   22   45     23.17      0.00
   20    0   46     -2.04      0.00
   20    2   46      7.84      0.00
   19    3   46     14.87      0.00
   19    5   46      7.13      0.00
   18    8   46      3.58      0.00
   17    9   46    -10.48      0.00
   16   12   46      8.39      0.00
   15   13   46      0.12      0.00
   14   14   46      1.84      0.00
   13   15   46     17.16      0.00
   12   16   46     15.00      0.00
    9   17   46     -0.71      0.00
    8   18   46     -8.24      0.00
    3   19   46     14.32      0.00
    5   19   46    -15.52      0.00
    0   20   46      2.41      0.00
    2   20   46     15.53      0.00
   17    0   47     -7.77      0.00
   17    2   47      1.24      0.00
   17    4   47     -0.06      0.00
   16    5   47    -20.42      0.00
   16    7   47    -13.62      0.00
   15    8   47     -9.72      0.00
   14    9   47     -0.59      0.00
    9   14   47      4.87      0.00
    8   15   47     22.26      0.00
    5   16   47      8.42      0.00
    7   16   47      8.73      0.00
    0   17   47      7.00      0.00
    2   17   47      5.84      0.00
    4   17   47     -5.26      0.00
   14    0   48    -38.66      0.00
   14    2   48    -16.12      0.00
   14    4   48      7.07      0.00
   13    5   48    -20.86      0.00
   12    6   48      8.57      0.00
   12    8   48     -9.41      0.00
   11    9   48      0.67      0.00
   10   10   48     14.82      0.00
    9   11   48    -15.14      0.00
    6   12   48     -7.51      0.00
    8   12   48      1.26      0.00
    5   13   48     -7.91      0.00
    0   14   48     13.17      0.00
    2   14   48     -0.56      0.00
    4   14   48      3.98      0.00
   10    1   49     10.54      0.00
    9    2   49     -8.20      0.00
   10    3   49    -10.60      0.00
    9    4   49    -10.87      0.00
    8    5   49      0.46      0.00
    7    6   49     -0.24      0.00
    9    6   49      3.85      0.00
    6    7   49      1.04      0.00
    8    7   49     -1.87      0.00
    5    8   49      5.18      0.00
    7    8   49      4.54      0.00
    2    9   49      5.89      0.00
    4    9   49      3.89      0.00
    6    9   49     10.45      0.00
    1   10   49     15.45      0.00
    3   10   49     -7.04      0.00
    0    0    0      0.00      0.00
loop_
  _platon_squeeze_void_nr
  _platon_squeeze_void_average_x
  _platon_squeeze_void_average_y
  _platon_squeeze_void_average_z
  _platon_squeeze_void_volume
  _platon_squeeze_void_count_electrons
  _platon_squeeze_void_content
   1  0.000  0.000  0.000      5775       732 ' '
   2  0.500  0.000  0.000      2940       469 ' '
   3  0.500  0.000  0.500      2940       469 ' '
   4  0.000  0.000  0.500      2941       470 ' '
   5  0.500  0.500  0.500      5775       732 ' '
   6  0.000  0.500  0.500      2940       469 ' '
   7  0.000  0.500  0.000      2940       469 ' '
   8  0.500  0.500  0.000      2941       470 ' '
loop_
  _platon_missing_refln_index_h
  _platon_missing_refln_index_k
  _platon_missing_refln_index_l
  _platon_missing_refln_theta
    0    1    1     0.751
    0    0    2     1.062
    1    1    2     1.301
    0    2    2     1.502
    2    3    3     2.491
    2    0   16     8.593
_platon_squeeze_void_probe_radius                  1.20
_platon_squeeze_details
)
TITL sm        I m -3       R = 0.08
CELL   38.3511   38.3511   38.3511     90.00     90.00     90.00
SPGR Im-3
Q101 0.091 0.751 0.252 !       2.73 eA-3
Q102 0.564 0.085 0.243 !       2.53 eA-3
C103 0.500 0.195 0.188 !       2.39 eA-3
C104 0.826 0.174 0.174 !       2.35 eA-3
Q105 1.000 0.186 0.194 !       2.19 eA-3
Q106 0.337 0.943 0.193 !       2.15 eA-3
Q107 0.311 1.000 0.000 !       2.08 eA-3
C108 0.023 1.000 0.000 !       2.08 eA-3
Q109 0.500 0.688 0.185 !       2.03 eA-3
Q110 0.590 0.928 0.242 !       2.03 eA-3
C111 0.158 0.158 0.158 !       2.00 eA-3
Q112 0.273 0.038 0.153 !       1.95 eA-3
Q113 0.257 0.917 0.061 !       1.91 eA-3
Q114 1.000 0.164 0.188 !       1.83 eA-3
Q115 0.234 0.498 0.086 !       1.80 eA-3
C116 0.500 0.188 0.170 !       1.79 eA-3
Q117 0.657 1.000 0.242 !       1.75 eA-3
C118 0.921 0.923 0.077 !       1.56 eA-3
C119 0.397 0.101 0.100 !       1.56 eA-3
Q120 0.173 0.375 0.002 !       1.55 eA-3
C121 0.838 0.146 0.180 !       1.52 eA-3
C122 1.000 0.697 0.195 !       1.51 eA-3
C123 0.009 0.672 0.192 !       1.49 eA-3
C124 0.695 0.511 0.829 !       1.48 eA-3
Q125 0.272 0.748 0.092 !       1.46 eA-3
C126 0.500 0.169 0.195 !       1.44 eA-3
C127 0.132 0.998 0.188 !       1.43 eA-3
C128 0.986 0.022 0.021 !       1.36 eA-3
Q129 0.063 0.250 0.118 !       1.36 eA-3
C130 0.305 0.507 0.147 !       1.35 eA-3
C131 0.500 0.445-0.001 !       1.35 eA-3
Q132 0.262 0.428 0.241 !       1.34 eA-3
Q133 0.587 0.626 0.242 !       1.34 eA-3
C134 0.500 0.186 0.151 !       1.33 eA-3
Q135 0.243 0.934 0.084 !       1.32 eA-3
Q136 0.562 0.117 0.243 !       1.31 eA-3
C137 0.245 0.500 0.000 !       1.30 eA-3
Q138 0.092 0.736 0.073 !       1.30 eA-3
C139 0.420 0.603 0.094 !       1.28 eA-3
Q140 0.587 0.734 0.127 !       1.26 eA-3
Q141 0.436 0.732 0.033 !       1.25 eA-3
Q142 0.229 0.259 0.239 !       1.25 eA-3
C143 1.000 0.030 0.054 !       1.25 eA-3
Q144 0.468 0.030 0.248 !       1.24 eA-3
Q145 0.339 1.000 0.125 !       1.24 eA-3
C146 0.500 0.815 0.116 !       1.23 eA-3
Q147 0.908 0.241 0.231 !       1.23 eA-3
C148 0.401 0.409 0.077 !       1.21 eA-3
C149 0.914 0.432 0.068 !       1.19 eA-3
C150 0.586 0.068 0.432 !       1.19 eA-3
C151 0.104 0.916 0.084 !       1.18 eA-3
C152 0.396 0.584 0.416 !       1.18 eA-3
C153 0.604 0.416 0.584 !       1.18 eA-3
C154 0.098 0.903 0.101 !       1.17 eA-3
C155 0.922 0.920 0.577 !       1.15 eA-3
Q156 0.408 0.862 0.236 !       1.14 eA-3
C157 0.416 0.626 0.109 !       1.14 eA-3
Q158 0.624 0.898 0.211 !       1.14 eA-3
Q159 0.370 1.000 0.094 !       1.13 eA-3
Q160 0.757 0.111 0.233 !       1.13 eA-3
Q161 0.195 0.593 0.086 !       1.11 eA-3
C162 0.455 1.000 0.000 !       1.10 eA-3
C163 0.595 0.425 0.081 !       1.10 eA-3
Q164 0.513 0.998 0.187 !       1.09 eA-3
C165 0.092 0.911 0.069 !       1.09 eA-3
Q166 0.585 0.503 0.227 !       1.08 eA-3
Q167 0.735 0.422 0.086 !       1.08 eA-3
C168 1.000 0.049 0.021 !       1.08 eA-3
Q169 0.811 0.501 0.141 !       1.05 eA-3
C170 1.000 0.500 0.000 !       1.04 eA-3
Q171 1.000 0.315 0.024 !       1.04 eA-3
C172 0.008 1.000 0.242 !       1.03 eA-3
Q173 0.742 0.078 0.003 !       1.02 eA-3
C174 0.156 0.470 0.181 !       1.02 eA-3
C175 0.161 0.490 0.203 !       1.02 eA-3
C176 0.172 0.135 0.148 !       1.01 eA-3
C177 0.687 0.469 0.155 !       1.01 eA-3
C178 1.000 0.548 0.025 !       1.01 eA-3
Q179 0.263 0.254 0.118 !       1.01 eA-3
C180 0.664 0.497 0.203 !       1.00 eA-3
Q181 0.734 0.406 0.070 !       1.00 eA-3
C182 0.483 0.012 0.031 !       0.99 eA-3
Q183 0.228 0.228 0.228 !       0.99 eA-3
Q184 0.565 0.767 0.241 !       0.99 eA-3
C185 0.531 0.461-0.001 !       0.97 eA-3
C186 0.298 0.635 0.016 !       0.96 eA-3
C187 0.631 0.091 0.085 !       0.93 eA-3
Q188 0.599 0.998 0.117 !       0.93 eA-3
C189 0.820 0.184 0.201 !       0.92 eA-3
C190 0.282 0.503 0.148 !       0.92 eA-3
C191 0.462 0.814 0.133 !       0.92 eA-3
C192 0.479 0.500 0.000 !       0.91 eA-3
C193 0.990 0.071 0.014 !       0.91 eA-3
C194 0.410 0.609 0.122 !       0.91 eA-3
Q195 0.882 0.320 0.001 !       0.90 eA-3
C196 1.000 0.142 0.172 !       0.90 eA-3
C197 0.924 0.998 0.016 !       0.89 eA-3
C198 0.171 0.123 0.164 !       0.88 eA-3
Q199 0.259 0.411 0.096 !       0.88 eA-3
)
;
_shelx_fab_checksum              58652
#END Tags that were not found in dictionaries
loop_
_space_group_symop_operation_xyz
'x, y, z'
'-x, -y, z'
'-x, y, -z'
'x, -y, -z'
'z, x, y'
'z, -x, -y'
'-z, -x, y'
'-z, x, -y'
'y, z, x'
'-y, z, -x'
'y, -z, -x'
'-y, -z, x'
'x+1/2, y+1/2, z+1/2'
'-x+1/2, -y+1/2, z+1/2'
'-x+1/2, y+1/2, -z+1/2'
'x+1/2, -y+1/2, -z+1/2'
'z+1/2, x+1/2, y+1/2'
'z+1/2, -x+1/2, -y+1/2'
'-z+1/2, -x+1/2, y+1/2'
'-z+1/2, x+1/2, -y+1/2'
'y+1/2, z+1/2, x+1/2'
'-y+1/2, z+1/2, -x+1/2'
'y+1/2, -z+1/2, -x+1/2'
'-y+1/2, -z+1/2, x+1/2'
'-x, -y, -z'
'x, y, -z'
'x, -y, z'
'-x, y, z'
'-z, -x, -y'
'-z, x, y'
'z, x, -y'
'z, -x, y'
'-y, -z, -x'
'y, -z, x'
'-y, z, x'
'y, z, -x'
'-x+1/2, -y+1/2, -z+1/2'
'x+1/2, y+1/2, -z+1/2'
'x+1/2, -y+1/2, z+1/2'
'-x+1/2, y+1/2, z+1/2'
'-z+1/2, -x+1/2, -y+1/2'
'-z+1/2, x+1/2, y+1/2'
'z+1/2, x+1/2, -y+1/2'
'z+1/2, -x+1/2, y+1/2'
'-y+1/2, -z+1/2, -x+1/2'
'y+1/2, -z+1/2, x+1/2'
'-y+1/2, z+1/2, x+1/2'
'y+1/2, z+1/2, -x+1/2'
loop_
_atom_site_label
_atom_site_type_symbol
_atom_site_fract_x
_atom_site_fract_y
_atom_site_fract_z
_atom_site_U_iso_or_equiv
_atom_site_adp_type
_atom_site_occupancy
_atom_site_site_symmetry_order
_atom_site_calc_flag
_atom_site_refinement_flags_posn
_atom_site_refinement_flags_adp
_atom_site_refinement_flags_occupancy
_atom_site_disorder_assembly
_atom_site_disorder_group
Sm1 Sm 0.30942(2) 0.0000 0.18572(2) 0.04281(16) Uani 1 2 d S T P . .
Sm2 Sm 0.25693(2) 0.08890(2) 0.24333(2) 0.03802(12) Uani 1 1 d . . . . .
O1 O 0.3424(2) 0.03846(18) 0.2193(2) 0.092(3) Uani 1 1 d D U . . .
O2 O 0.31849(18) 0.08729(17) 0.2378(2) 0.0570(18) Uani 1 1 d D U . . .
O3 O 0.38257(13) 0.19982(17) 0.23898(18) 0.0519(16) Uani 1 1 d D U . . .
O4 O 0.43899(15) 0.1999(2) 0.2328(2) 0.075(2) Uani 1 1 d D U . . .
O5 O 0.2005(2) 0.06107(15) 0.2512(2) 0.072(2) Uani 1 1 d D U . . .
O6 O 0.20025(18) 0.11683(15) 0.2435(2) 0.0598(19) Uani 1 1 d D U . . .
O7 O 0.08739(18) 0.18207(19) 0.25522(19) 0.0538(17) Uani 1 1 d D U . . .
O8 O 0.0537(3) 0.1606(2) 0.2962(3) 0.115(4) Uani 1 1 d D U . . .
O9 O 0.27066(19) 0.14789(15) 0.2245(2) 0.0565(16) Uani 1 1 d . U . . .
O10 O 0.26763(17) 0.02831(9) 0.23015(18) 0.0466(13) Uani 1 1 d D U . . .
O11 O 0.3237(5) 0.0000 0.1191(5) 0.155(7) Uani 1 2 d DS TU P . .
O12 O 0.3686(5) 0.0000 0.1533(5) 0.145(7) Uani 1 2 d DS TU P . .
O1W O 0.2494(5) 0.0000 0.1589(4) 0.122(6) Uani 1 2 d S TU P . .
H1 H 0.2385 -0.0178 0.1654 0.183 Uiso 1 1 calc DR U . . .
N1 N 0.5000 0.0973(5) 0.1971(4) 0.068(5) Uiso 0.5 2 d DS . P A 1
N1' N 0.5000 0.0850(5) 0.2093(5) 0.068(5) Uiso 0.5 2 d DS . P A 2
N2 N 0.0943(3) 0.0000 0.2894(4) 0.096(5) Uani 1 2 d DS TU P . .
N3 N 0.3018(2) 0.1831(2) 0.1873(2) 0.062(2) Uani 1 1 d . U . . .
C1 C 0.34390(18) 0.07071(19) 0.22634(14) 0.074(3) Uani 1 1 d D U . . .
C2 C 0.3764(3) 0.0919(4) 0.2201(2) 0.090(4) Uiso 0.5 1 d DG . P A 1
C3 C 0.3764(3) 0.1267(4) 0.23000(13) 0.057(2) Uiso 0.5 1 d G . P A 1
H3 H 0.3566 0.1365 0.2401 0.069 Uiso 0.5 1 calc R U P A 1
C4 C 0.4059(5) 0.1471(2) 0.2247(2) 0.061(3) Uiso 0.5 1 d DG . P A 1
C5 C 0.4354(3) 0.1325(4) 0.2096(3) 0.083(4) Uiso 0.5 1 d G . P A 1
H5 H 0.4552 0.1461 0.2060 0.099 Uiso 0.5 1 calc R U P A 1
C6 C 0.4354(3) 0.0977(5) 0.1997(2) 0.086(5) Uiso 0.5 1 d DG . P A 1
C7 C 0.4059(4) 0.0773(2) 0.2050(2) 0.126(7) Uiso 0.5 1 d G . P A 1
H7 H 0.4059 0.0540 0.1984 0.151 Uiso 0.5 1 calc R U P A 1
C2' C 0.3770(3) 0.0923(4) 0.22294(15) 0.090(4) Uiso 0.5 1 d DG . P A 2
C3' C 0.3792(3) 0.1279(4) 0.22915(12) 0.057(2) Uiso 0.5 1 d G . P A 2
H3' H 0.3594 0.1403 0.2359 0.069 Uiso 0.5 1 calc R U P A 2
C4' C 0.4108(5) 0.1451(2) 0.22525(17) 0.061(3) Uiso 0.5 1 d DG . P A 2
C5' C 0.4403(3) 0.1266(4) 0.2151(2) 0.083(4) Uiso 0.5 1 d G . P A 2
H5' H 0.4615 0.1381 0.2125 0.099 Uiso 0.5 1 calc R U P A 2
C6' C 0.4382(3) 0.0910(4) 0.2089(2) 0.086(5) Uiso 0.5 1 d DG . P A 2
C7' C 0.4065(5) 0.0738(2) 0.21283(19) 0.126(7) Uiso 0.5 1 d G . P A 2
H7' H 0.4050 0.0500 0.2087 0.151 Uiso 0.5 1 calc R U P A 2
C8 C 0.41070(18) 0.18419(17) 0.23271(12) 0.049(2) Uani 1 1 d D U . . .
C9 C 0.46860(11) 0.0857(4) 0.1836(3) 0.078(5) Uiso 0.5 1 d D . P A 1
C10 C 0.46857(11) 0.0620(5) 0.1559(4) 0.108(7) Uiso 0.5 1 d D . P A 1
H10 H 0.4475 0.0541 0.1468 0.129 Uiso 0.5 1 calc R U P A 1
C11 C 0.5000 0.0501(7) 0.1421(6) 0.097(9) Uiso 0.5 2 d DS . P A 1
H11 H 0.5000 0.0344 0.1236 0.117 Uiso 0.5 2 calc R U P A 1
C9' C 0.46861(11) 0.0707(5) 0.1982(4) 0.078(5) Uiso 0.5 1 d D . P A 2
C10' C 0.46857(11) 0.0420(5) 0.1761(5) 0.108(7) Uiso 0.5 1 d D . P A 2
H10' H 0.4475 0.0324 0.1687 0.129 Uiso 0.5 1 calc R U P A 2
C11' C 0.5000 0.0276(6) 0.1649(7) 0.097(9) Uiso 0.5 2 d DS . P A 2
H11' H 0.5000 0.0084 0.1501 0.117 Uiso 0.5 2 calc R U P A 2
C12 C 0.18474(19) 0.08946(18) 0.25104(13) 0.052(2) Uani 1 1 d D U . . .
C13 C 0.14685(15) 0.09121(16) 0.2600(2) 0.064(3) Uani 1 1 d DG U . . .
C14 C 0.12791(18) 0.12210(13) 0.2594(2) 0.060(3) Uani 1 1 d G U . . .
H14 H 0.1376 0.1421 0.2497 0.073 Uiso 1 1 calc R U . . .
C15 C 0.09442(18) 0.12313(15) 0.2732(2) 0.081(4) Uani 1 1 d DG U . . .
C16 C 0.07987(17) 0.09326(19) 0.2877(3) 0.101(5) Uani 1 1 d G U . . .
H16 H 0.0575 0.0939 0.2969 0.122 Uiso 1 1 calc R U . . .
C17 C 0.0988(2) 0.06237(16) 0.2883(3) 0.094(4) Uani 1 1 d DG U . . .
C18 C 0.13230(19) 0.06134(14) 0.2745(3) 0.084(4) Uani 1 1 d G U . . .
H18 H 0.1450 0.0407 0.2750 0.101 Uiso 1 1 calc R U . . .
C19 C 0.07747(19) 0.1581(2) 0.2746(2) 0.093(4) Uani 1 1 d D U . . .
C20 C 0.0817(3) 0.03123(10) 0.3029(3) 0.108(5) Uani 1 1 d D U . . .
C21 C 0.0569(4) 0.03153(11) 0.3294(4) 0.134(7) Uani 1 1 d D U . . .
H21 H 0.0487 0.0526 0.3382 0.160 Uiso 1 1 calc R U . . .
C22 C 0.0445(5) 0.0000 0.3426(5) 0.202(17) Uani 1 2 d DS TU P . .
H22 H 0.0280 0.0000 0.3603 0.242 Uiso 1 2 calc R U P . .
C23 C 0.2941(3) 0.1544(2) 0.2018(3) 0.062(3) Uani 1 1 d . U . . .
H23 H 0.3075 0.1354 0.1950 0.074 Uiso 1 1 calc R U . . .
C24 C 0.2792(5) 0.2150(3) 0.1964(3) 0.096(4) Uani 1 1 d . U . . .
H24A H 0.2557 0.2076 0.2008 0.144 Uiso 1 1 calc R U . . .
H24B H 0.2794 0.2311 0.1772 0.144 Uiso 1 1 calc R U . . .
H24C H 0.2884 0.2262 0.2168 0.144 Uiso 1 1 calc R U . . .
C25 C 0.3271(3) 0.1876(4) 0.1635(4) 0.096(5) Uani 1 1 d . U . . .
H25A H 0.3417 0.1672 0.1628 0.144 Uiso 1 1 calc R U . . .
H25B H 0.3409 0.2075 0.1696 0.144 Uiso 1 1 calc R U . . .
H25C H 0.3168 0.1911 0.1409 0.144 Uiso 1 1 calc R U . . .
C26 C 0.2569(4) 0.0000 0.2419(4) 0.046(3) Uani 1 2 d DS TU P . .
H26 H 0.2405 0.0000 0.2597 0.055 Uiso 1 2 calc R U P . .
C27 C 0.3557(6) 0.0000 0.1233(5) 0.119(8) Uani 1 2 d DS TU P . .
H27 H 0.3704 0.0000 0.1040 0.142 Uiso 1 2 calc R U P . .
loop_
_atom_site_aniso_label
_atom_site_aniso_U_11
_atom_site_aniso_U_22
_atom_site_aniso_U_33
_atom_site_aniso_U_23
_atom_site_aniso_U_13
_atom_site_aniso_U_12
Sm1 0.0601(4) 0.0194(2) 0.0490(4) 0.000 0.0075(3) 0.000
Sm2 0.0475(3) 0.01632(15) 0.0503(3) 0.00122(16) 0.00939(18) 0.00000(16)
O1 0.088(5) 0.066(5) 0.122(6) -0.028(5) 0.010(5) -0.010(4)
O2 0.049(4) 0.045(4) 0.077(5) -0.006(3) 0.005(3) 0.008(3)
O3 0.026(3) 0.053(4) 0.076(4) -0.003(3) 0.013(3) 0.000(3)
O4 0.035(4) 0.071(5) 0.118(6) -0.004(4) 0.001(4) 0.003(3)
O5 0.056(4) 0.033(3) 0.127(6) 0.009(4) 0.030(4) 0.003(3)
O6 0.045(4) 0.041(4) 0.094(5) 0.008(3) 0.004(3) 0.000(3)
O7 0.043(4) 0.049(4) 0.070(4) 0.000(3) 0.012(3) 0.001(3)
O8 0.101(6) 0.086(5) 0.157(7) 0.027(5) 0.085(6) 0.034(5)
O9 0.063(4) 0.037(3) 0.070(4) 0.004(3) 0.014(3) -0.003(3)
O10 0.053(4) 0.019(2) 0.068(4) 0.001(3) -0.002(3) 0.007(2)
O11 0.183(11) 0.138(10) 0.143(10) 0.000 0.018(9) 0.000
O12 0.161(11) 0.125(10) 0.150(10) 0.000 0.012(8) 0.000
O1W 0.154(13) 0.118(11) 0.093(10) 0.000 -0.025(9) 0.000
N2 0.098(9) 0.063(7) 0.128(9) 0.000 0.028(7) 0.000
N3 0.068(5) 0.066(4) 0.052(4) 0.030(4) -0.009(4) -0.036(4)
C1 0.061(6) 0.062(6) 0.100(7) -0.036(5) 0.011(5) -0.013(5)
C8 0.038(4) 0.053(5) 0.056(5) -0.011(4) 0.001(4) -0.002(4)
C12 0.055(5) 0.035(4) 0.066(6) 0.004(4) 0.009(4) 0.004(4)
C13 0.065(6) 0.036(4) 0.091(7) -0.012(4) 0.033(5) 0.007(4)
C14 0.063(5) 0.042(5) 0.076(6) -0.004(4) 0.029(5) -0.001(4)
C15 0.081(7) 0.047(5) 0.116(8) -0.014(5) 0.043(6) 0.007(5)
C16 0.092(7) 0.077(7) 0.135(9) -0.003(7) 0.042(7) 0.015(6)
C17 0.097(7) 0.057(6) 0.127(8) 0.009(6) 0.039(7) 0.017(6)
C18 0.083(7) 0.048(5) 0.122(8) -0.009(6) 0.025(6) 0.012(5)
C19 0.091(7) 0.073(7) 0.114(8) 0.002(6) 0.036(7) 0.020(6)
C20 0.102(8) 0.084(8) 0.138(9) 0.000(7) 0.040(7) 0.004(7)
C21 0.138(10) 0.120(9) 0.144(10) 0.010(8) 0.040(8) -0.002(8)
C22 0.205(19) 0.200(19) 0.201(19) 0.000 0.019(10) 0.000
C23 0.060(5) 0.043(4) 0.083(6) 0.013(5) -0.001(5) 0.004(4)
C24 0.168(13) 0.058(7) 0.062(6) 0.017(6) -0.008(8) 0.016(8)
C25 0.061(7) 0.110(9) 0.116(10) 0.056(8) -0.003(7) -0.017(7)
C26 0.048(6) 0.027(4) 0.064(7) 0.000 0.015(5) 0.000
C27 0.131(12) 0.102(11) 0.122(11) 0.000 -0.007(9) 0.000
loop_
_atom_type_symbol
_atom_type_description
_atom_type_scat_dispersion_real
_atom_type_scat_dispersion_imag
_atom_type_scat_source
C C 0.0033 0.0016 'International Tables Vol C Tables 4.2.6.8 and 6.1.1.4'
H H 0.0000 0.0000 'International Tables Vol C Tables 4.2.6.8 and 6.1.1.4'
N N 0.0061 0.0033 'International Tables Vol C Tables 4.2.6.8 and 6.1.1.4'
O O 0.0106 0.0060 'International Tables Vol C Tables 4.2.6.8 and 6.1.1.4'
Sm Sm -0.1638 3.4418 'International Tables Vol C Tables 4.2.6.8 and 6.1.1.4'
loop_
_geom_angle_atom_site_label_1
_geom_angle_atom_site_label_2
_geom_angle_atom_site_label_3
_geom_angle
_geom_angle_site_symmetry_1
_geom_angle_site_symmetry_3
O1 Sm1 O1 78.5(4) . 27
O1 Sm1 O8 155.0(4) . 32
O1 Sm1 O8 77.7(4) 27 32
O1 Sm1 O8 77.7(4) . 5
O1 Sm1 O8 155.0(4) 27 5
O8 Sm1 O8 124.2(6) 32 5
O1 Sm1 O1W 136.1(3) . .
O1 Sm1 O1W 136.1(3) 27 .
O8 Sm1 O1W 68.5(3) 32 .
O8 Sm1 O1W 68.5(3) 5 .
O1 Sm1 O10 72.9(3) . .
O1 Sm1 O10 103.8(3) 27 .
O8 Sm1 O10 120.7(3) 32 .
O8 Sm1 O10 76.5(2) 5 .
O1W Sm1 O10 72.7(4) . .
O1 Sm1 O10 103.8(3) . 27
O1 Sm1 O10 72.9(3) 27 27
O8 Sm1 O10 76.5(2) 32 27
O8 Sm1 O10 120.7(3) 5 27
O1W Sm1 O10 72.7(4) . 27
O10 Sm1 O10 49.80(17) . 27
O1 Sm1 O12 77.9(4) . .
O1 Sm1 O12 77.9(4) 27 .
O8 Sm1 O12 89.5(3) 32 .
O8 Sm1 O12 89.5(3) 5 .
O1W Sm1 O12 127.2(6) . .
O10 Sm1 O12 149.6(3) . .
O10 Sm1 O12 149.6(3) 27 .
O1 Sm1 O11 115.2(4) . .
O1 Sm1 O11 115.2(4) 27 .
O8 Sm1 O11 68.9(3) 32 .
O8 Sm1 O11 68.9(3) 5 .
O1W Sm1 O11 78.0(6) . .
O10 Sm1 O11 140.9(4) . .
O10 Sm1 O11 140.9(4) 27 .
O12 Sm1 O11 49.1(3) . .
O7 Sm2 O2 86.4(2) 5 .
O7 Sm2 O10 76.8(2) 5 .
O2 Sm2 O10 77.7(2) . .
O7 Sm2 O6 89.3(3) 5 .
O2 Sm2 O6 154.8(2) . .
O10 Sm2 O6 125.4(2) . .
O7 Sm2 O9 74.5(2) 5 .
O2 Sm2 O9 77.4(2) . .
O10 Sm2 O9 142.8(2) . .
O6 Sm2 O9 77.5(2) . .
O7 Sm2 O5 95.0(3) 5 .
O2 Sm2 O5 152.4(2) . .
O10 Sm2 O5 75.8(2) . .
O6 Sm2 O5 52.78(17) . .
O9 Sm2 O5 129.6(2) . .
O7 Sm2 O3 154.7(2) 5 41
O2 Sm2 O3 91.6(3) . 41
O10 Sm2 O3 127.4(2) . 41
O6 Sm2 O3 81.8(2) . 41
O9 Sm2 O3 80.5(2) . 41
O5 Sm2 O3 98.2(3) . 41
O7 Sm2 O4 151.5(2) 5 41
O2 Sm2 O4 84.8(3) . 41
O10 Sm2 O4 74.9(2) . 41
O6 Sm2 O4 109.5(3) . 41
O9 Sm2 O4 129.3(2) . 41
O5 Sm2 O4 80.9(3) . 41
O3 Sm2 O4 52.71(17) 41 41
C1 O1 Sm1 139.5(6) . .
C1 O2 Sm2 145.6(5) . .
C8 O3 Sm2 93.1(4) . 45
C8 O4 Sm2 92.8(5) . 45
C12 O5 Sm2 92.7(5) . .
C12 O6 Sm2 93.2(5) . .
C19 O7 Sm2 136.9(6) . 9
C19 O8 Sm1 146.1(7) . 9
C23 O9 Sm2 122.5(6) . .
C26 O10 Sm2 135.1(5) . .
C26 O10 Sm1 94.4(5) . .
Sm2 O10 Sm1 130.5(2) . .
C27 O11 Sm1 94.6(11) . .
C27 O12 Sm1 95.6(11) . .
Sm1 O1W H1 109.5 . .
C9 N1 C9 120.8(7) . 28_655
C9' N1' C9' 120.0(7) . 28_655
C20 N2 C20 118.9(6) . 27
C23 N3 C25 125.5(11) . .
C23 N3 C24 117.2(10) . .
C25 N3 C24 117.3(10) . .
O2 C1 O1 122.6(7) . .
O2 C1 C2 115.4(9) . .
O1 C1 C2 122.0(10) . .
O2 C1 C2' 113.9(9) . .
O1 C1 C2' 123.4(10) . .
C3 C2 C7 120.0 . .
C3 C2 C1 118.4(13) . .
C7 C2 C1 121.6(13) . .
C2 C3 C4 120.0 . .
C2 C3 H3 120.0 . .
C4 C3 H3 120.0 . .
C5 C4 C3 120.0 . .
C5 C4 C8 112.0(14) . .
C3 C4 C8 128.0(14) . .
C6 C5 C4 120.0 . .
C6 C5 H5 120.0 . .
C4 C5 H5 120.0 . .
C5 C6 C7 120.0 . .
C5 C6 C9 114.3(15) . .
C7 C6 C9 125.7(15) . .
C6 C7 C2 120.0 . .
C6 C7 H7 120.0 . .
C2 C7 H7 120.0 . .
C3' C2' C7' 120.0 . .
C3' C2' C1 124.8(13) . .
C7' C2' C1 115.2(13) . .
C2' C3' C4' 120.0 . .
C2' C3' H3' 120.0 . .
C4' C3' H3' 120.0 . .
C3' C4' C5' 120.0 . .
C3' C4' C8 116.3(14) . .
C5' C4' C8 123.7(14) . .
C6' C5' C4' 120.0 . .
C6' C5' H5' 120.0 . .
C4' C5' H5' 120.0 . .
C5' C6' C7' 120.0 . .
C5' C6' C9' 121.6(15) . .
C7' C6' C9' 118.4(15) . .
C6' C7' C2' 120.0 . .
C6' C7' H7' 120.0 . .
C2' C7' H7' 120.0 . .
O4 C8 O3 121.3(7) . .
O4 C8 C4 125.5(9) . .
O3 C8 C4 113.2(9) . .
O4 C8 C4' 118.3(9) . .
O3 C8 C4' 120.5(9) . .
O4 C8 Sm2 61.0(4) . 45
O3 C8 Sm2 60.4(4) . 45
C4 C8 Sm2 172.0(6) . 45
C4' C8 Sm2 177.3(4) . 45
N1 C9 C10 119.7(5) . .
N1 C9 C6 119.2(8) . .
C10 C9 C6 121.1(8) . .
C11 C10 C9 120.1(5) . .
C11 C10 H10 120.0 . .
C9 C10 H10 120.0 . .
C10 C11 C10 119.8(7) 28_655 .
C10 C11 H11 120.1 28_655 .
C10 C11 H11 120.1 . .
C10' C9' N1' 120.1(5) . .
C10' C9' C6' 126.3(8) . .
N1' C9' C6' 113.2(9) . .
C9' C10' C11' 120.1(5) . .
C9' C10' H10' 120.0 . .
C11' C10' H10' 120.0 . .
C10' C11' C10' 119.8(7) 28_655 .
C10' C11' H11' 120.1 28_655 .
C10' C11' H11' 120.1 . .
O6 C12 O5 120.6(7) . .
O6 C12 C13 118.8(7) . .
O5 C12 C13 120.6(7) . .
C14 C13 C18 120.0 . .
C14 C13 C12 122.8(5) . .
C18 C13 C12 116.5(5) . .
C13 C14 C15 120.0 . .
C13 C14 H14 120.0 . .
C15 C14 H14 120.0 . .
C16 C15 C14 120.0 . .
C16 C15 C19 123.5(5) . .
C14 C15 C19 116.3(5) . .
C15 C16 C17 120.0 . .
C15 C16 H16 120.0 . .
C17 C16 H16 120.0 . .
C18 C17 C16 120.0 . .
C18 C17 C20 122.2(6) . .
C16 C17 C20 117.7(6) . .
C17 C18 C13 120.0 . .
C17 C18 H18 120.0 . .
C13 C18 H18 120.0 . .
O8 C19 O7 124.8(8) . .
O8 C19 C15 114.5(8) . .
O7 C19 C15 120.7(8) . .
N2 C20 C21 121.0(4) . .
N2 C20 C17 113.8(6) . .
C21 C20 C17 125.1(6) . .
C20 C21 C22 119.4(5) . .
C20 C21 H21 120.3 . .
C22 C21 H21 120.3 . .
C21 C22 C21 120.3(7) 27 .
C21 C22 H22 119.9 27 .
C21 C22 H22 119.9 . .
N3 C23 O9 129.5(10) . .
N3 C23 H23 115.3 . .
O9 C23 H23 115.3 . .
N3 C24 H24A 109.5 . .
N3 C24 H24B 109.5 . .
H24A C24 H24B 109.5 . .
N3 C24 H24C 109.5 . .
H24A C24 H24C 109.5 . .
H24B C24 H24C 109.5 . .
N3 C25 H25A 109.5 . .
N3 C25 H25B 109.5 . .
H25A C25 H25B 109.5 . .
N3 C25 H25C 109.5 . .
H25A C25 H25C 109.5 . .
H25B C25 H25C 109.5 . .
O10 C26 O10 121.4(9) 27 .
O10 C26 H26 119.3 27 .
O10 C26 H26 119.3 . .
O11 C27 O12 120.7(14) . .
O11 C27 H27 119.7 . .
O12 C27 H27 119.7 . .
loop_
_geom_bond_atom_site_label_1
_geom_bond_atom_site_label_2
_geom_bond_distance
_geom_bond_site_symmetry_2
Sm1 O1 2.330(8) .
Sm1 O1 2.330(8) 27
Sm1 O8 2.331(8) 32
Sm1 O8 2.331(8) 5
Sm1 O1W 2.520(18) .
Sm1 O10 2.579(6) .
Sm1 O10 2.579(6) 27
Sm1 O12 2.59(2) .
Sm1 O11 2.61(2) .
Sm2 O7 2.351(7) 5
Sm2 O2 2.371(7) .
Sm2 O10 2.413(4) .
Sm2 O6 2.423(7) .
Sm2 O9 2.433(6) .
Sm2 O5 2.433(7) .
Sm2 O3 2.444(7) 41
Sm2 O4 2.459(8) 41
O1 C1 1.268(7) .
O2 C1 1.243(7) .
O3 C8 1.257(7) .
O3 Sm2 2.444(7) 45
O4 C8 1.240(7) .
O4 Sm2 2.459(8) 45
O5 C12 1.244(7) .
O6 C12 1.241(7) .
O7 C19 1.243(8) .
O7 Sm2 2.351(7) 9
O8 C19 1.234(8) .
O8 Sm1 2.331(8) 9
O9 C23 1.275(12) .
O10 C26 1.245(6) .
O11 C27 1.239(10) .
O12 C27 1.250(10) .
O1W H1 0.8401 .
N1 C9 1.385(6) .
N1 C9 1.385(6) 28_655
N1' C9' 1.390(6) .
N1' C9' 1.390(6) 28_655
N2 C20 1.391(6) .
N2 C20 1.391(6) 27
N3 C23 1.267(12) .
N3 C25 1.344(14) .
N3 C24 1.541(16) .
C1 C2 1.505(8) .
C1 C2' 1.520(8) .
C2 C3 1.3900 .
C2 C7 1.3900 .
C3 C4 1.3900 .
C3 H3 0.9300 .
C4 C5 1.3900 .
C4 C8 1.468(8) .
C5 C6 1.3900 .
C5 H5 0.9300 .
C6 C7 1.3900 .
C6 C9 1.487(8) .
C7 H7 0.9300 .
C2' C3' 1.3900 .
C2' C7' 1.3900 .
C3' C4' 1.3900 .
C3' H3' 0.9300 .
C4' C5' 1.3900 .
C4' C8 1.526(8) .
C5' C6' 1.3900 .
C5' H5' 0.9300 .
C6' C7' 1.3900 .
C6' C9' 1.463(14) .
C7' H7' 0.9300 .
C8 Sm2 2.808(6) 45
C9 C10 1.396(7) .
C10 C11 1.393(6) .
C10 H10 0.9300 .
C11 C10 1.393(6) 28_655
C11 H11 0.9300 .
C9' C10' 1.389(7) .
C10' C11' 1.394(6) .
C10' H10' 0.9300 .
C11' C10' 1.394(6) 28_655
C11' H11' 0.9300 .
C12 C13 1.495(7) .
C13 C14 1.3900 .
C13 C18 1.3900 .
C14 C15 1.3900 .
C14 H14 0.9300 .
C15 C16 1.3900 .
C15 C19 1.491(8) .
C16 C17 1.3900 .
C16 H16 0.9300 .
C17 C18 1.3900 .
C17 C20 1.473(7) .
C18 H18 0.9300 .
C20 C21 1.391(7) .
C21 C22 1.394(6) .
C21 H21 0.9300 .
C22 C21 1.394(6) 27
C22 H22 0.9300 .
C23 H23 0.9300 .
C24 H24A 0.9600 .
C24 H24B 0.9600 .
C24 H24C 0.9600 .
C25 H25A 0.9600 .
C25 H25B 0.9600 .
C25 H25C 0.9600 .
C26 O10 1.245(6) 27
C26 H26 0.9300 .
C27 H27 0.9300 .
loop_
_geom_torsion_atom_site_label_1
_geom_torsion_atom_site_label_2
_geom_torsion_atom_site_label_3
_geom_torsion_atom_site_label_4
_geom_torsion
_geom_torsion_site_symmetry_1
_geom_torsion_site_symmetry_4
Sm2 O2 C1 O1 -20.5(7) . .
Sm2 O2 C1 C2 157.2(7) . .
Sm2 O2 C1 C2' 161.5(7) . .
Sm1 O1 C1 O2 54.6(9) . .
Sm1 O1 C1 C2 -123.0(9) . .
Sm1 O1 C1 C2' -127.6(8) . .
O2 C1 C2 C3 5.0(4) . .
O1 C1 C2 C3 -177.3(4) . .
O2 C1 C2 C7 -175.1(4) . .
O1 C1 C2 C7 2.7(4) . .
C7 C2 C3 C4 0.0 . .
C1 C2 C3 C4 179.92(8) . .
C2 C3 C4 C5 0.0 . .
C2 C3 C4 C8 178.8(3) . .
C3 C4 C5 C6 0.0 . .
C8 C4 C5 C6 -179.0(2) . .
C4 C5 C6 C7 0.0 . .
C4 C5 C6 C9 179.5(3) . .
C5 C6 C7 C2 0.0 . .
C9 C6 C7 C2 -179.5(4) . .
C3 C2 C7 C6 0.0 . .
C1 C2 C7 C6 -179.92(8) . .
O2 C1 C2' C3' -4.8(4) . .
O1 C1 C2' C3' 177.3(4) . .
O2 C1 C2' C7' 175.2(4) . .
O1 C1 C2' C7' -2.7(4) . .
C7' C2' C3' C4' 0.0 . .
C1 C2' C3' C4' 179.98(9) . .
C2' C3' C4' C5' 0.0 . .
C2' C3' C4' C8 -179.9(2) . .
C3' C4' C5' C6' 0.0 . .
C8 C4' C5' C6' 179.9(3) . .
C4' C5' C6' C7' 0.0 . .
C4' C5' C6' C9' 180.0(4) . .
C5' C6' C7' C2' 0.0 . .
C9' C6' C7' C2' -180.0(3) . .
C3' C2' C7' C6' 0.0 . .
C1 C2' C7' C6' -179.98(8) . .
Sm2 O4 C8 O3 -3.9(3) 45 .
Sm2 O4 C8 C4 174.5(3) 45 .
Sm2 O4 C8 C4' 177.0(3) 45 .
Sm2 O3 C8 O4 3.9(3) 45 .
Sm2 O3 C8 C4 -174.6(3) 45 .
Sm2 O3 C8 C4' -177.0(3) 45 .
C5 C4 C8 O4 -13.6(4) . .
C3 C4 C8 O4 167.6(4) . .
C5 C4 C8 O3 164.9(4) . .
C3 C4 C8 O3 -13.9(4) . .
C3' C4' C8 O4 173.1(4) . .
C5' C4' C8 O4 -6.7(4) . .
C3' C4' C8 O3 -6.0(4) . .
C5' C4' C8 O3 174.2(4) . .
C9 N1 C9 C10 -0.1(2) 28_655 .
C9 N1 C9 C6 177.6(10) 28_655 .
C5 C6 C9 N1 39.7(6) . .
C7 C6 C9 N1 -140.8(6) . .
C5 C6 C9 C10 -142.7(12) . .
C7 C6 C9 C10 36.8(13) . .
N1 C9 C10 C11 0.0(3) . .
C6 C9 C10 C11 -177.7(10) . .
C9 C10 C11 C10 0.1(6) . 28_655
C9' N1' C9' C10' 0.0(2) 28_655 .
C9' N1' C9' C6' -173.5(9) 28_655 .
C5' C6' C9' C10' -146.5(12) . .
C7' C6' C9' C10' 33.5(13) . .
C5' C6' C9' N1' 26.5(5) . .
C7' C6' C9' N1' -153.6(5) . .
N1' C9' C10' C11' 0.0(3) . .
C6' C9' C10' C11' 172.5(11) . .
C9' C10' C11' C10' 0.0(6) . 28_655
Sm2 O6 C12 O5 -8.5(4) . .
Sm2 O6 C12 C13 171.4(4) . .
Sm2 O5 C12 O6 8.5(4) . .
Sm2 O5 C12 C13 -171.4(4) . .
O6 C12 C13 C14 1.9(7) . .
O5 C12 C13 C14 -178.2(6) . .
O6 C12 C13 C18 -168.3(5) . .
O5 C12 C13 C18 11.6(6) . .
C18 C13 C14 C15 0.0 . .
C12 C13 C14 C15 -169.9(7) . .
C13 C14 C15 C16 0.0 . .
C13 C14 C15 C19 174.0(7) . .
C14 C15 C16 C17 0.0 . .
C19 C15 C16 C17 -173.6(8) . .
C15 C16 C17 C18 0.0 . .
C15 C16 C17 C20 -178.0(10) . .
C16 C17 C18 C13 0.0 . .
C20 C17 C18 C13 177.9(10) . .
C14 C13 C18 C17 0.0 . .
C12 C13 C18 C17 170.5(7) . .
Sm1 O8 C19 O7 34.2(13) 9 .
Sm1 O8 C19 C15 -146.0(13) 9 .
Sm2 O7 C19 O8 28.3(7) 9 .
Sm2 O7 C19 C15 -151.5(7) 9 .
C16 C15 C19 O8 15.9(6) . .
C14 C15 C19 O8 -157.9(7) . .
C16 C15 C19 O7 -164.3(6) . .
C14 C15 C19 O7 21.9(7) . .
C20 N2 C20 C17 175.8(9) 27 .
C18 C17 C20 N2 -25.0(9) . .
C16 C17 C20 N2 152.9(6) . .
C18 C17 C20 C21 150.6(9) . .
C16 C17 C20 C21 -31.5(14) . .
N2 C20 C21 C22 0.0(3) . .
C17 C20 C21 C22 -175.4(10) . .
C20 C21 C22 C21 0.0(6) . 27
C25 N3 C23 O9 -179.9(13) . .
C24 N3 C23 O9 -3.1(19) . .
Sm2 O9 C23 N3 172.9(10) . .
Sm2 O10 C26 O10 -178.7(6) . 27
Sm1 O10 C26 O10 -0.7(17) . 27
Sm1 O11 C27 O12 0.000(1) . .
Sm1 O12 C27 O11 0.000(1) . .
