#------------------------------------------------------------------------------
#$Date: 2015-12-09 14:36:34 +0200 (Wed, 09 Dec 2015) $
#$Revision: 171036 $
#$URL: svn://www.crystallography.net/cod/cif/7/03/68/7036840.cif $
#------------------------------------------------------------------------------
#
# This file is available in the Crystallography Open Database (COD),
# http://www.crystallography.net/
#
# All data on this site have been placed in the public domain by the
# contributors.
#
data_7036840
loop_
_publ_author_name
'Liu, Jian-Qiang'
'Li, X. F.'
'Gu, C. Y.'
'da Silva, J\'ulio C. S.'
'Barros, Amanda L.'
'J\'unior, Severino Alves'
'Li, B. H.'
'Ren, Fei'
'Batten, Stuart R.'
'Soares, Thereza A.'
_publ_section_title
;
 Combined Experimental and Simulation Study of Large Nanocage-based
 Metal-Organic Frameworks for Drug Delivery
;
_journal_issue                   44
_journal_name_full               'Dalton Trans.'
_journal_page_first              19370
_journal_page_last               19382
_journal_paper_doi               10.1039/C5DT02171E
_journal_volume                  44
_journal_year                    2015
_chemical_formula_moiety
'[Zn2 (C4 H9 N O) (C21 H9 N O8)], 1.75(C4 H9 N O)'
_chemical_formula_sum            'C32 H33.75 N3.75 O10.75 Zn2'
_chemical_formula_weight         773.62
_chemical_name_systematic        ?
_space_group_crystal_system      tetragonal
_space_group_IT_number           85
_space_group_name_Hall           '-P 4a'
_space_group_name_H-M_alt        'P 4/n'
_symmetry_space_group_name_Hall  '-P 4a'
_symmetry_space_group_name_H-M   'P 4/n :2'
_atom_sites_solution_hydrogens   mixed
_audit_creation_method           SHELXL-97
_audit_update_record
;
2015-10-08 deposited with the CCDC.
2015-10-09 downloaded from the CCDC.
;
_cell_angle_alpha                90
_cell_angle_beta                 90
_cell_angle_gamma                90
_cell_formula_units_Z            8
_cell_length_a                   27.4541(15)
_cell_length_b                   27.4541
_cell_length_c                   9.7375(5)
_cell_measurement_reflns_used    9925
_cell_measurement_temperature    100(2)
_cell_measurement_theta_max      26.4575
_cell_measurement_theta_min      2.2192
_cell_volume                     7339.4(6)
_computing_structure_refinement  'SHELXL-2014/7 (Sheldrick, 2014)'
_diffrn_ambient_temperature      100(2)
_diffrn_measured_fraction_theta_full 0.997
_diffrn_measured_fraction_theta_max 0.998
_diffrn_measurement_device_type  'Bruker SMART APEX'
_diffrn_radiation_type           MoK\a
_diffrn_radiation_wavelength     0.71073
_diffrn_reflns_av_R_equivalents  0.0651
_diffrn_reflns_av_unetI/netI     0.0394
_diffrn_reflns_laue_measured_fraction_full 0.997
_diffrn_reflns_laue_measured_fraction_max 0.998
_diffrn_reflns_limit_h_max       35
_diffrn_reflns_limit_h_min       -35
_diffrn_reflns_limit_k_max       35
_diffrn_reflns_limit_k_min       -34
_diffrn_reflns_limit_l_max       12
_diffrn_reflns_limit_l_min       -12
_diffrn_reflns_number            69414
_diffrn_reflns_point_group_measured_fraction_full 0.997
_diffrn_reflns_point_group_measured_fraction_max 0.998
_diffrn_reflns_theta_full        25.242
_diffrn_reflns_theta_max         27.500
_diffrn_reflns_theta_min         2.219
_exptl_absorpt_coefficient_mu    1.366
_exptl_crystal_colour            colorless
_exptl_crystal_density_diffrn    1.400
_exptl_crystal_description       prism
_exptl_crystal_F_000             3184
_exptl_crystal_size_max          0.250
_exptl_crystal_size_mid          0.150
_exptl_crystal_size_min          0.100
_refine_diff_density_max         0.889
_refine_diff_density_min         -0.952
_refine_diff_density_rms         0.096
_refine_ls_extinction_method     none
_refine_ls_goodness_of_fit_ref   1.056
_refine_ls_hydrogen_treatment    constr
_refine_ls_matrix_type           full
_refine_ls_number_parameters     337
_refine_ls_number_reflns         8429
_refine_ls_number_restraints     61
_refine_ls_restrained_S_all      1.064
_refine_ls_R_factor_all          0.0775
_refine_ls_R_factor_gt           0.0586
_refine_ls_shift/su_max          0.001
_refine_ls_shift/su_mean         0.001
_refine_ls_structure_factor_coef Fsqd
_refine_ls_weighting_details
'w=1/[\s^2^(Fo^2^)+(0.0742P)^2^+11.1633P] where P=(Fo^2^+2Fc^2^)/3'
_refine_ls_weighting_scheme      calc
_refine_ls_wR_factor_gt          0.1397
_refine_ls_wR_factor_ref         0.1499
_reflns_number_gt                6482
_reflns_number_total             8429
_reflns_threshold_expression     'I > 2\s(I)'
_cod_data_source_file            c5dt02171e2.cif
_cod_data_source_block           zn_sq
_cod_original_cell_volume        7339.4(9)
_cod_database_code               7036840
#BEGIN Tags that were not found in dictionaries:
_shelx_estimated_absorpt_t_min   0.726
_shelx_estimated_absorpt_t_max   0.875
_shelx_res_file
;

    zn_sq.res created by SHELXL-2014/7

TITL  P4/n: Origin choice 2
rem   10 DMA squeezed
rem   One DMA at each of the two Wyckoff 2c sites
rem   Four DMA at each of the two Wyckoff 2a sites
rem  '[Zn2 (C4 H9 N O) (C21 H9 N O8)], 1.75(C4 H9 N O)'
CELL  0.71073 27.4541 27.4541 9.7375 90.000 90.000 90.000
ZERR  8        0.0015  0.0000 0.0005  0.000  0.000  0.000
LATT  1
SYMM  0.5-X,0.5-Y,Z
SYMM  0.5-Y,X, Z
SYMM  Y,0.5-X, Z
SFAC  C H N O Zn
UNIT  256 270 30 86 16
ACTA
OMIT -3 55
OMIT  0   4   0
OMIT -1   5   0
OMIT  1   5   0
OMIT  0   1   2
OMIT  1   3   2
OMIT  2   3   2
OMIT  2   6   0
OMIT -1   3   1
OMIT -2   6   1
OMIT  0   6   1
OMIT  3   3   0
OMIT  2   2   0
TEMP -173
SIZE  0.25 0.15 0.10
L.S.  25 0 39
FMAP  2
PLAN -1
SADI  0.01 Zn2 O9 Zn2 O9'
DFIX  1.25 0.01 O9 C22 O9' C22'
DFIX  1.35 0.01 C22 N2 C22' N2'
DFIX  1.50 0.01 C22 C23 C22' C23'
DFIX  1.45 0.01 N2 C24 N2 C25 N2' C24' N2' C25'
DFIX  2.39 0.01 O9 C23 O9' C23'
DFIX  2.83 0.01 C23 C25 C23' C25'
DFIX  2.51 0.01 C25 C24 C25' C24'
DFIX  2.71 0.01 C24 O9 C24' O9'
FLAT  0.01 O9 N2 C22 C23 C24 C25
FLAT  0.01 O9' N2' C22' C23' C24' C25'
EADP  O9 O9'
EADP  N2 N2'
EADP  C22 C22'
EADP  C23 C23'
EADP  C24 C24'
EADP  C25 C25'
ISOR  0.01 O9 N2 C22 C23 C24 C25
ABIN
WGHT    0.074200   11.163302
FVAR       0.21104
ZN1   5    0.432247    0.030890    0.944049    11.00000    0.03206    0.02328 =
         0.01375    0.00458    0.00271    0.00533
ZN2   5    0.375398    0.092987    0.689985    11.00000    0.03007    0.03231 =
         0.02283    0.00371    0.00267    0.00400
O1    4    0.420956    0.102392    0.970885    11.00000    0.05715    0.02378 =
         0.04846    0.00446    0.00639    0.00377
O2    4    0.412390    0.144642    0.776304    11.00000    0.06225    0.03273 =
         0.03629    0.00228   -0.00045   -0.00731
O3    4    0.429438    0.321000    0.796028    11.00000    0.08885    0.02654 =
         0.03461    0.00664   -0.02505    0.00101
O4    4    0.477125    0.355251    0.955142    11.00000    0.05807    0.02569 =
         0.04489    0.00947   -0.01648   -0.00321
O5    4    0.563819    0.010906    1.223701    11.00000    0.04566    0.03754 =
         0.01688   -0.00130    0.00228    0.00425
O6    4    0.587412   -0.040947    1.387050    11.00000    0.07135    0.03507 =
         0.03048    0.00496    0.01503    0.02251
O7    4    0.565461   -0.002654    1.871983    11.00000    0.04208    0.04245 =
         0.01986    0.01412    0.00561    0.01118
O8    4    0.506123    0.050315    1.920594    11.00000    0.03971    0.04145 =
         0.01761    0.00022    0.00718   -0.00023
N1    3    0.503512    0.173261    1.360915    11.00000    0.05890    0.02979 =
         0.02443    0.00597   -0.00337    0.00835
C1    1    0.424700    0.140597    0.901546    11.00000    0.03073    0.03040 =
         0.04054    0.00135    0.00848    0.00566
AFIX  66
C2    1    0.443688    0.185103    0.970781    11.00000    0.04221    0.02588 =
         0.03515    0.00158   -0.00161    0.00485
C3    1    0.442527    0.230007    0.904925    11.00000    0.04708    0.02824 =
         0.02733    0.00423   -0.00485    0.00260
AFIX  43
H3    2    0.430571    0.232359    0.813613    11.00000   -1.20000
AFIX  65
C4    1    0.458859    0.271471    0.972672    11.00000    0.05145    0.02389 =
         0.02901    0.00730   -0.00498    0.00199
C5    1    0.476353    0.268031    1.106275    11.00000    0.05497    0.02734 =
         0.03105    0.00285   -0.00645    0.00279
AFIX  43
H5    2    0.487515    0.296370    1.152577    11.00000   -1.20000
AFIX  65
C6    1    0.477514    0.223127    1.172133    11.00000    0.05719    0.02851 =
         0.03044    0.00820   -0.00509    0.00854
C7    1    0.461182    0.181662    1.104388    11.00000    0.05828    0.02465 =
         0.03626    0.00826   -0.00353    0.00480
AFIX  43
H7    2    0.461976    0.150972    1.149399    11.00000   -1.20000
AFIX   0
C8    1    0.455466    0.320355    0.902953    11.00000    0.04854    0.02515 =
         0.03008    0.00556   -0.00089    0.00199
C9    1    0.491839    0.218412    1.321579    11.00000    0.06581    0.03192 =
         0.03173    0.00533   -0.00601    0.01020
C10   1    0.490832    0.257202    1.411515    11.00000    0.12476    0.03335 =
         0.03824    0.00260   -0.00980    0.02660
AFIX  43
H10   2    0.482600    0.288978    1.380640    11.00000   -1.20000
AFIX   0
C11   1    0.502192    0.248592    1.548726    11.00000    0.16517    0.03962 =
         0.03367   -0.00540   -0.00807    0.02825
AFIX  43
H11   2    0.501581    0.274494    1.613394    11.00000   -1.20000
AFIX   0
C12   1    0.514323    0.202153    1.589751    11.00000    0.12353    0.04405 =
         0.02503    0.00071   -0.00428    0.02110
AFIX  43
H12   2    0.522201    0.195631    1.682953    11.00000   -1.20000
AFIX   0
C13   1    0.514886    0.165002    1.493104    11.00000    0.06704    0.02773 =
         0.02374    0.00347    0.00191    0.01336
AFIX  66
C14   1    0.526741    0.112984    1.528396    11.00000    0.04704    0.03073 =
         0.01997    0.00168   -0.00042    0.00996
C15   1    0.525889    0.097108    1.663921    11.00000    0.04503    0.03415 =
         0.01794    0.00404    0.00331    0.00797
AFIX  43
H15   2    0.515516    0.118532    1.734733    11.00000   -1.20000
AFIX  65
C16   1    0.540215    0.049885    1.695839    11.00000    0.02973    0.03506 =
         0.01528    0.00517    0.00331    0.00392
C17   1    0.555393    0.018538    1.592231    11.00000    0.03585    0.02632 =
         0.01964    0.00507    0.00264    0.00705
AFIX  43
H17   2    0.565184   -0.013736    1.614046    11.00000   -1.20000
AFIX  65
C18   1    0.556245    0.034414    1.456705    11.00000    0.03113    0.02798 =
         0.01799    0.00096    0.00255    0.00310
C19   1    0.541919    0.081637    1.424786    11.00000    0.04869    0.03514 =
         0.01136    0.00656   -0.00013    0.00512
AFIX  43
H19   2    0.542501    0.092487    1.332160    11.00000   -1.20000
AFIX   0
C20   1    0.536415    0.031206    1.841238    11.00000    0.03073    0.03094 =
         0.01566    0.00382    0.00089   -0.00704
C21   1    0.570377   -0.001244    1.346682    11.00000    0.03441    0.03381 =
         0.01852    0.00103    0.00471   -0.00067
PART   1
O9    4    0.335848    0.119650    0.538965    10.50000    0.06692    0.10486 =
         0.04498    0.02305   -0.01199    0.02071
N2    3    0.308675    0.139450    0.329065    10.50000    0.14570    0.13489 =
         0.08078    0.02851   -0.03412    0.01675
C22   1    0.344700    0.124917    0.414104    10.50000    0.08473    0.08862 =
         0.06522    0.02683    0.00466    0.01343
C23   1    0.393075    0.115912    0.352351    10.50000    0.14418    0.14926 =
         0.13698    0.05428    0.05982    0.02430
AFIX  33
H23A  2    0.391629    0.122317    0.253426    10.50000   -1.50000
H23B  2    0.417165    0.137525    0.394805    10.50000   -1.50000
H23C  2    0.402492    0.081924    0.367893    10.50000   -1.50000
AFIX   0
C24   1    0.259750    0.148725    0.384063    10.50000    0.09135    0.22596 =
         0.13691   -0.00839    0.01148   -0.00670
AFIX  33
H24A  2    0.238108    0.158906    0.309351    10.50000   -1.50000
H24B  2    0.247047    0.118901    0.426199    10.50000   -1.50000
H24C  2    0.261439    0.174561    0.453347    10.50000   -1.50000
AFIX   0
C25   1    0.315812    0.146586    0.179948    10.50000    0.17523    0.17662 =
         0.09372    0.01519   -0.05681    0.02260
AFIX  33
H25A  2    0.285102    0.157124    0.138122    10.50000   -1.50000
H25B  2    0.340794    0.171510    0.164782    10.50000   -1.50000
H25C  2    0.326271    0.115856    0.138084    10.50000   -1.50000
AFIX   0
PART   2
O9'   4    0.350249    0.122118    0.521299    10.50000    0.06692    0.10486 =
         0.04498    0.02305   -0.01199    0.02071
N2'   3    0.308167    0.133028    0.330260    10.50000    0.14570    0.13489 =
         0.08078    0.02851   -0.03412    0.01675
C22'  1    0.311517    0.132078    0.467764    10.50000    0.08473    0.08862 =
         0.06522    0.02683    0.00466    0.01343
C23'  1    0.266855    0.143300    0.553195    10.50000    0.14418    0.14926 =
         0.13698    0.05428    0.05982    0.02430
AFIX  33
H23D  2    0.239321    0.150421    0.492371    10.50000   -1.50000
H23E  2    0.258968    0.115130    0.610868    10.50000   -1.50000
H23F  2    0.273354    0.171617    0.611667    10.50000   -1.50000
AFIX   0
C24'  1    0.349958    0.122200    0.243451    10.50000    0.09135    0.22596 =
         0.13691   -0.00839    0.01148   -0.00670
AFIX   3
H24D  2    0.372575    0.149372    0.257361    10.50000   -1.50000
H24E  2    0.339235    0.121675    0.147468    10.50000   -1.50000
H24F  2    0.366388    0.091480    0.265376    10.50000   -1.50000
AFIX   0
C25'  1    0.261928    0.145070    0.262417    10.50000    0.17523    0.17662 =
         0.09372    0.01519   -0.05681    0.02260
AFIX  33
H25D  2    0.266308    0.143992    0.162582    10.50000   -1.50000
H25E  2    0.236990    0.121415    0.289568    10.50000   -1.50000
H25F  2    0.251634    0.177837    0.289832    10.50000   -1.50000
PART  0
AFIX   0
HKLF  4

REM   P4/n: Origin choice 2
REM R1 =  0.0586 for    6482 Fo > 4sig(Fo)  and  0.0775 for all    8429 data
REM    337 parameters refined using     61 restraints

END

WGHT      0.0744     10.3725

REM Highest difference peak  0.889,  deepest hole -0.952,  1-sigma level  0.096
Q1    1   0.4310  0.0006  0.9379  11.00000  0.05    0.89
;
_shelx_res_checksum              4694
_shelx_fab_file
;
   -1    3    0   -269.37      0.00
    1    3    0    222.50      0.00
   -2    4    0     60.58      0.00
    2    4    0     -6.57      0.00
    4    4    0    115.04      0.00
   -3    5    0     33.14      0.00
    3    5    0    -46.01      0.00
    5    5    0      7.16      0.00
   -4    6    0    -43.85      0.00
   -2    6    0     56.55      0.00
    0    6    0     -3.82      0.00
    4    6    0    -29.66      0.00
    6    6    0    -12.59      0.00
   -5    7    0     -8.40      0.00
   -3    7    0    -36.91      0.00
   -1    7    0     46.73      0.00
    1    7    0    -12.63      0.00
    3    7    0     -0.41      0.00
    5    7    0     18.57      0.00
    7    7    0    -14.33      0.00
   -6    8    0     -3.42      0.00
   -4    8    0      6.80      0.00
   -2    8    0    -40.43      0.00
    0    8    0     31.85      0.00
    2    8    0     -1.34      0.00
    4    8    0     17.32      0.00
    6    8    0     -6.87      0.00
    8    8    0      9.42      0.00
   -7    9    0      4.73      0.00
   -5    9    0      4.12      0.00
   -3    9    0      2.74      0.00
   -1    9    0    -17.91      0.00
    1    9    0    -13.19      0.00
    3    9    0      5.19      0.00
    5    9    0     10.49      0.00
    7    9    0      3.67      0.00
    9    9    0      4.59      0.00
   -8   10    0    -18.76      0.00
   -6   10    0      5.14      0.00
   -4   10    0      9.56      0.00
   -2   10    0     -0.11      0.00
    0   10    0     -0.87      0.00
    2   10    0     -4.35      0.00
    4   10    0    -17.48      0.00
    6   10    0     15.49      0.00
    8   10    0     -9.20      0.00
   10   10    0      7.08      0.00
   -9   11    0      1.48      0.00
   -7   11    0     -2.97      0.00
   -5   11    0    -10.12      0.00
   -3   11    0     10.33      0.00
   -1   11    0     -0.91      0.00
    1   11    0      2.44      0.00
    3   11    0     -4.29      0.00
    5   11    0     -0.40      0.00
    7   11    0     -2.95      0.00
    9   11    0      8.42      0.00
   11   11    0     -5.38      0.00
  -10   12    0     -2.64      0.00
   -8   12    0      5.14      0.00
   -6   12    0      0.10      0.00
   -4   12    0     -7.30      0.00
   -2   12    0      2.74      0.00
    0   12    0      7.14      0.00
    2   12    0     -8.18      0.00
    4   12    0      4.41      0.00
    6   12    0     -5.62      0.00
    8   12    0      0.47      0.00
   10   12    0     -0.61      0.00
   12   12    0      4.41      0.00
  -11   13    0     -0.94      0.00
   -9   13    0      9.82      0.00
   -7   13    0     -6.98      0.00
   -5   13    0      2.57      0.00
   -3   13    0     -2.61      0.00
   -1   13    0     -0.19      0.00
    1   13    0      2.40      0.00
    3   13    0      3.84      0.00
    5   13    0     -7.85      0.00
    7   13    0      6.35      0.00
    9   13    0     -3.98      0.00
   11   13    0      1.98      0.00
   13   13    0      0.62      0.00
  -12   14    0     -4.36      0.00
  -10   14    0     -1.74      0.00
   -8   14    0      8.87      0.00
   -6   14    0      6.27      0.00
   -4   14    0    -11.76      0.00
   -2   14    0      5.36      0.00
    0   14    0     -4.53      0.00
    2   14    0      5.44      0.00
    4   14    0     -2.77      0.00
    6   14    0      1.67      0.00
    8   14    0     -5.85      0.00
   10   14    0      2.43      0.00
   12   14    0      0.81      0.00
   14   14    0      2.14      0.00
  -13   15    0      1.64      0.00
  -11   15    0     -2.27      0.00
   -9   15    0     -9.35      0.00
   -7   15    0      5.42      0.00
   -5   15    0     14.39      0.00
   -3   15    0     -6.84      0.00
   -1   15    0     -5.55      0.00
    1   15    0      6.95      0.00
    3   15    0     -3.55      0.00
    5   15    0      2.87      0.00
    7   15    0      0.77      0.00
    9   15    0     -0.49      0.00
   11   15    0     -4.63      0.00
   13   15    0     -1.38      0.00
   15   15    0      1.68      0.00
  -14   16    0      0.86      0.00
  -12   16    0      1.09      0.00
  -10   16    0     -4.08      0.00
   -8   16    0     -2.90      0.00
   -6   16    0     -7.03      0.00
   -4   16    0     12.84      0.00
   -2   16    0     -0.57      0.00
    0   16    0     -1.17      0.00
    2   16    0     -3.17      0.00
    4   16    0      5.72      0.00
    6   16    0     -3.79      0.00
    8   16    0      2.36      0.00
   10   16    0      1.70      0.00
   12   16    0      1.24      0.00
   14   16    0     -1.88      0.00
   16   16    0     -0.43      0.00
  -15   17    0      0.67      0.00
  -13   17    0      2.03      0.00
  -11   17    0      2.42      0.00
   -9   17    0     -3.94      0.00
   -7   17    0     -2.73      0.00
   -5   17    0      0.04      0.00
   -3   17    0     -1.03      0.00
   -1   17    0      2.58      0.00
    1   17    0      0.19      0.00
    3   17    0      0.07      0.00
    5   17    0     -1.62      0.00
    7   17    0      3.97      0.00
    9   17    0     -0.22      0.00
   11   17    0     -4.25      0.00
   13   17    0      3.63      0.00
   15   17    0      0.23      0.00
   17   17    0      1.09      0.00
  -16   18    0     -2.19      0.00
  -14   18    0     -0.23      0.00
  -12   18    0      2.34      0.00
  -10   18    0      2.14      0.00
   -8   18    0     -3.25      0.00
   -6   18    0     -4.13      0.00
   -4   18    0      2.29      0.00
   -2   18    0      4.29      0.00
    0   18    0     -8.45      0.00
    2   18    0      5.11      0.00
    4   18    0     -0.06      0.00
    6   18    0     -5.46      0.00
    8   18    0      3.23      0.00
   10   18    0      5.25      0.00
   12   18    0     -1.96      0.00
   14   18    0     -1.10      0.00
   16   18    0     -1.12      0.00
   18   18    0      1.51      0.00
  -17   19    0      2.19      0.00
  -15   19    0     -1.73      0.00
  -13   19    0     -0.25      0.00
  -11   19    0      3.01      0.00
   -9   19    0     -0.53      0.00
   -7   19    0      0.27      0.00
   -5   19    0     -5.63      0.00
   -3   19    0     -0.70      0.00
   -1   19    0      5.18      0.00
    1   19    0     -1.33      0.00
    3   19    0     -2.01      0.00
    5   19    0      3.08      0.00
    7   19    0     -3.60      0.00
    9   19    0     -4.88      0.00
   11   19    0      4.34      0.00
   13   19    0      0.70      0.00
   15   19    0      2.58      0.00
   17   19    0     -2.97      0.00
   19   19    0      0.17      0.00
  -18   20    0      1.01      0.00
  -16   20    0      1.97      0.00
  -14   20    0     -2.02      0.00
  -12   20    0      1.05      0.00
  -10   20    0      3.09      0.00
   -8   20    0      1.19      0.00
   -6   20    0     -1.33      0.00
   -4   20    0     -0.23      0.00
   -2   20    0     -4.67      0.00
    0   20    0      0.47      0.00
    2   20    0      3.36      0.00
    4   20    0     -1.85      0.00
    6   20    0      2.04      0.00
    8   20    0     -1.04      0.00
   10   20    0      0.33      0.00
   12   20    0     -2.96      0.00
   14   20    0     -0.61      0.00
   16   20    0      2.25      0.00
   18   20    0     -1.23      0.00
   20   20    0     -2.12      0.00
  -19   21    0     -0.65      0.00
  -17   21    0     -0.71      0.00
  -15   21    0      0.63      0.00
  -13   21    0     -0.61      0.00
  -11   21    0      0.00      0.00
   -9   21    0      1.74      0.00
   -7   21    0      2.08      0.00
   -5   21    0     -0.52      0.00
   -3   21    0      1.18      0.00
   -1   21    0     -0.57      0.00
    1   21    0     -3.21      0.00
    3   21    0     -0.60      0.00
    5   21    0      4.53      0.00
    7   21    0     -4.49      0.00
    9   21    0     -0.30      0.00
   11   21    0      1.77      0.00
   13   21    0      2.50      0.00
   15   21    0     -0.92      0.00
   17   21    0     -1.48      0.00
   19   21    0      1.93      0.00
   21   21    0     -0.13      0.00
  -20   22    0     -0.40      0.00
  -18   22    0     -2.35      0.00
  -16   22    0      1.61      0.00
  -14   22    0     -0.03      0.00
  -12   22    0     -0.98      0.00
  -10   22    0      1.18      0.00
   -8   22    0      0.28      0.00
   -6   22    0      1.50      0.00
   -4   22    0     -0.13      0.00
   -2   22    0     -0.58      0.00
    0   22    0      3.05      0.00
    2   22    0     -2.28      0.00
    4   22    0      0.10      0.00
    6   22    0      2.23      0.00
    8   22    0     -0.64      0.00
   10   22    0     -4.19      0.00
   12   22    0      0.06      0.00
   14   22    0      0.70      0.00
   16   22    0      3.24      0.00
   18   22    0     -2.47      0.00
   20   22    0     -1.07      0.00
   22   22    0      4.39      0.00
  -21   23    0      0.35      0.00
  -19   23    0     -3.20      0.00
  -17   23    0     -0.10      0.00
  -15   23    0      1.60      0.00
  -13   23    0     -3.04      0.00
  -11   23    0      0.25      0.00
   -9   23    0      0.33      0.00
   -7   23    0      1.26      0.00
   -5   23    0      0.64      0.00
   -3   23    0      1.38      0.00
   -1   23    0     -1.44      0.00
    1   23    0     -0.45      0.00
    3   23    0      2.68      0.00
    5   23    0     -3.35      0.00
    7   23    0      4.93      0.00
    9   23    0     -0.33      0.00
   11   23    0     -2.99      0.00
   13   23    0      0.31      0.00
   15   23    0     -0.42      0.00
   17   23    0      3.59      0.00
   19   23    0     -3.55      0.00
   21   23    0     -0.96      0.00
   23   23    0      0.16      0.00
  -22   24    0      0.24      0.00
  -20   24    0     -2.00      0.00
  -18   24    0     -1.46      0.00
  -16   24    0     -2.55      0.00
  -14   24    0      3.38      0.00
  -12   24    0     -3.31      0.00
  -10   24    0     -1.25      0.00
   -8   24    0     -0.16      0.00
   -6   24    0     -0.16      0.00
   -4   24    0     -1.19      0.00
   -2   24    0      3.56      0.00
    0   24    0     -0.71      0.00
    2   24    0      0.87      0.00
    4   24    0     -1.60      0.00
    6   24    0      0.61      0.00
    8   24    0      2.82      0.00
   10   24    0     -0.45      0.00
   12   24    0     -2.29      0.00
   14   24    0      0.14      0.00
   16   24    0      1.18      0.00
   18   24    0      0.74      0.00
   20   24    0      5.02      0.00
   22   24    0     -4.57      0.00
   24   24    0      6.00      0.00
  -23   25    0      1.77      0.00
  -21   25    0      8.49      0.00
  -19   25    0      2.56      0.00
  -17   25    0     -5.52      0.00
  -15   25    0     -0.30      0.00
  -13   25    0      2.13      0.00
  -11   25    0     -0.24      0.00
   -9   25    0     -2.14      0.00
   -7   25    0     -0.14      0.00
   -5   25    0      1.61      0.00
   -3   25    0     -4.35      0.00
   -1   25    0     -1.09      0.00
    1   25    0      2.60      0.00
    3   25    0     -0.48      0.00
    5   25    0      0.33      0.00
    7   25    0      0.09      0.00
    9   25    0     -0.60      0.00
   11   25    0      3.85      0.00
   13   25    0     -2.17      0.00
   15   25    0     -1.88      0.00
   17   25    0     -0.87      0.00
   19   25    0      1.05      0.00
   21   25    0     -0.79      0.00
   23   25    0      6.74      0.00
   25   25    0      1.46      0.00
  -24   26    0     -9.66      0.00
  -22   26    0     -1.60      0.00
  -20   26    0      6.30      0.00
  -18   26    0      3.46      0.00
  -16   26    0     -0.61      0.00
  -14   26    0      0.01      0.00
  -12   26    0     -0.88      0.00
  -10   26    0      1.01      0.00
   -8   26    0     -0.91      0.00
   -6   26    0      0.35      0.00
   -4   26    0      1.23      0.00
   -2   26    0      1.89      0.00
    0   26    0     -5.78      0.00
    2   26    0      0.54      0.00
    4   26    0      0.19      0.00
    6   26    0      0.45      0.00
    8   26    0     -1.22      0.00
   10   26    0      1.08      0.00
   12   26    0     -1.40      0.00
   14   26    0      0.54      0.00
   16   26    0      2.10      0.00
   18   26    0     -1.11      0.00
   20   26    0     -5.02      0.00
   22   26    0     -0.92      0.00
   24   26    0      3.69      0.00
  -23   27    0     -1.60      0.00
  -21   27    0     -6.29      0.00
  -19   27    0      1.46      0.00
  -17   27    0      3.49      0.00
  -15   27    0     -1.78      0.00
  -13   27    0      3.51      0.00
  -11   27    0     -0.36      0.00
   -9   27    0     -1.35      0.00
   -7   27    0      0.90      0.00
   -5   27    0     -0.26      0.00
   -3   27    0     -0.53      0.00
   -1   27    0      3.56      0.00
    1   27    0     -2.22      0.00
    3   27    0      0.45      0.00
    5   27    0     -1.98      0.00
    7   27    0      0.90      0.00
    9   27    0      2.87      0.00
   11   27    0     -3.12      0.00
   13   27    0      1.83      0.00
   15   27    0     -2.83      0.00
   17   27    0      2.03      0.00
   19   27    0      0.60      0.00
   21   27    0      1.09      0.00
   23   27    0     -9.01      0.00
  -22   28    0     -1.87      0.00
  -20   28    0     -4.57      0.00
  -18   28    0      2.63      0.00
  -16   28    0     -0.99      0.00
  -14   28    0     -2.19      0.00
  -12   28    0      2.59      0.00
  -10   28    0      1.16      0.00
   -8   28    0     -2.29      0.00
   -6   28    0      0.50      0.00
   -4   28    0      2.94      0.00
   -2   28    0     -2.97      0.00
    0   28    0      2.55      0.00
    2   28    0     -1.52      0.00
    4   28    0      0.09      0.00
    6   28    0     -1.22      0.00
    8   28    0      1.25      0.00
   10   28    0     -2.45      0.00
   12   28    0      1.43      0.00
   14   28    0      3.61      0.00
   16   28    0     -1.55      0.00
   18   28    0     -1.79      0.00
   20   28    0      3.27      0.00
   22   28    0     -0.69      0.00
  -19   29    0     -4.69      0.00
  -17   29    0      0.45      0.00
  -15   29    0     -0.92      0.00
  -13   29    0      2.22      0.00
  -11   29    0     -2.50      0.00
   -9   29    0      1.79      0.00
   -7   29    0     -2.25      0.00
   -5   29    0      0.24      0.00
   -3   29    0     -1.05      0.00
   -1   29    0      2.56      0.00
    1   29    0      0.90      0.00
    3   29    0      0.27      0.00
    5   29    0     -2.44      0.00
    7   29    0      4.14      0.00
    9   29    0     -2.37      0.00
   11   29    0     -1.76      0.00
   13   29    0     -3.95      0.00
   15   29    0      0.13      0.00
   17   29    0      7.09      0.00
   19   29    0     -3.84      0.00
  -18   30    0     -1.22      0.00
  -16   30    0     -0.62      0.00
  -14   30    0     -2.59      0.00
  -12   30    0      0.59      0.00
  -10   30    0      2.36      0.00
   -8   30    0      0.78      0.00
   -6   30    0     -2.19      0.00
   -4   30    0      0.50      0.00
   -2   30    0     -0.62      0.00
    0   30    0     -2.22      0.00
    2   30    0      0.33      0.00
    4   30    0      5.74      0.00
    6   30    0     -8.39      0.00
    8   30    0      7.64      0.00
   10   30    0      4.87      0.00
   12   30    0     -5.30      0.00
   14   30    0     -0.16      0.00
   16   30    0     -5.69      0.00
   18   30    0      3.86      0.00
  -17   31    0      2.78      0.00
  -15   31    0      2.95      0.00
  -13   31    0     -7.11      0.00
  -11   31    0      1.72      0.00
   -9   31    0      0.24      0.00
   -7   31    0     -0.41      0.00
   -5   31    0      0.77      0.00
   -3   31    0      0.94      0.00
   -1   31    0     -1.60      0.00
    1   31    0      1.46      0.00
    3   31    0     -2.82      0.00
    5   31    0      2.74      0.00
    7   31    0     -5.75      0.00
    9   31    0      3.28      0.00
   11   31    0      2.60      0.00
   13   31    0      0.13      0.00
   15   31    0      3.44      0.00
   17   31    0     -4.28      0.00
  -14   32    0      2.34      0.00
  -12   32    0      1.32      0.00
  -10   32    0     -2.29      0.00
   -8   32    0      0.81      0.00
   -6   32    0     -1.34      0.00
   -4   32    0      3.02      0.00
   -2   32    0     -4.07      0.00
    0   32    0     -1.91      0.00
    2   32    0      3.86      0.00
    4   32    0     -2.28      0.00
    6   32    0      0.91      0.00
    8   32    0     -0.88      0.00
   10   32    0      3.08      0.00
   12   32    0     -1.95      0.00
   14   32    0     -3.44      0.00
  -13   33    0      2.99      0.00
  -11   33    0     -2.42      0.00
   -9   33    0      1.27      0.00
   -7   33    0      3.28      0.00
   -5   33    0     -2.16      0.00
   -3   33    0      3.74      0.00
   -1   33    0      4.36      0.00
    1   33    0     -6.64      0.00
    3   33    0     -4.71      0.00
    5   33    0      8.05      0.00
    7   33    0    -11.67      0.00
    9   33    0      1.24      0.00
   11   33    0     12.02      0.00
   13   33    0     -3.73      0.00
  -10   34    0     -1.05      0.00
   -8   34    0     -2.06      0.00
   -6   34    0      0.53      0.00
   -4   34    0     -2.97      0.00
   -2   34    0      3.48      0.00
    0   34    0      5.57      0.00
    2   34    0      2.76      0.00
    4   34    0     -4.25      0.00
    6   34    0      4.83      0.00
    8   34    0     -6.90      0.00
   10   34    0     -9.40      0.00
   -5   35    0     -0.91      0.00
   -3   35    0     -0.07      0.00
   -1   35    0     -6.71      0.00
    1   35    0      0.94      0.00
    3   35    0      8.58      0.00
    5   35    0     -5.27      0.00
    0    1    1     38.38      0.00
    1    1    1     -6.05      0.00
   -1    2    1     34.50      0.00
    0    2    1    -33.38      0.00
    1    2    1    -41.93      0.00
    2    2    1     26.94      0.00
   -2    3    1     26.60      0.00
    0    3    1    -25.80      0.00
    1    3    1    130.25      0.00
    2    3    1      9.37      0.00
    3    3    1     10.38      0.00
   -3    4    1     13.71      0.00
   -2    4    1    -82.31      0.00
   -1    4    1     -6.88      0.00
    0    4    1    -35.74      0.00
    1    4    1     20.79      0.00
    2    4    1      9.33      0.00
    3    4    1    -21.27      0.00
    4    4    1     65.68      0.00
   -4    5    1     -8.34      0.00
   -3    5    1     42.26      0.00
   -2    5    1     -5.58      0.00
   -1    5    1     -3.61      0.00
    0    5    1     23.61      0.00
    1    5    1    -38.17      0.00
    2    5    1     -1.55      0.00
    3    5    1     14.51      0.00
    4    5    1      2.92      0.00
    5    5    1     -2.18      0.00
   -5    6    1      1.30      0.00
   -4    6    1     -9.67      0.00
   -3    6    1     -7.62      0.00
   -1    6    1     -0.15      0.00
    1    6    1      5.55      0.00
    2    6    1     23.38      0.00
    3    6    1      0.54      0.00
    4    6    1      8.83      0.00
    5    6    1      2.99      0.00
    6    6    1     -0.05      0.00
   -6    7    1      1.01      0.00
   -5    7    1    -10.97      0.00
   -4    7    1      0.51      0.00
   -3    7    1     24.23      0.00
   -2    7    1    -11.42      0.00
   -1    7    1      6.68      0.00
    0    7    1      4.66      0.00
    1    7    1    -31.74      0.00
    2    7    1     11.40      0.00
    3    7    1    -13.50      0.00
    4    7    1     -3.92      0.00
    5    7    1     15.10      0.00
    6    7    1     -4.34      0.00
    7    7    1     -0.62      0.00
   -7    8    1     -2.82      0.00
   -6    8    1      0.13      0.00
   -5    8    1     12.40      0.00
   -4    8    1    -17.02      0.00
   -3    8    1     -8.90      0.00
   -2    8    1     19.73      0.00
   -1    8    1     -9.35      0.00
    0    8    1     10.89      0.00
    1    8    1     -6.09      0.00
    2    8    1    -11.50      0.00
    3    8    1     14.11      0.00
    4    8    1      0.34      0.00
    5    8    1      0.52      0.00
    6    8    1     -6.92      0.00
    7    8    1     -1.27      0.00
    8    8    1     11.78      0.00
   -8    9    1     -3.77      0.00
   -7    9    1      4.96      0.00
   -6    9    1     -2.13      0.00
   -5    9    1      7.65      0.00
   -4    9    1      6.49      0.00
   -3    9    1    -11.52      0.00
   -2    9    1      8.64      0.00
   -1    9    1     13.73      0.00
    0    9    1    -13.48      0.00
    1    9    1     -7.75      0.00
    2    9    1     -5.12      0.00
    3    9    1     -1.61      0.00
    4    9    1      1.39      0.00
    5    9    1      0.82      0.00
    6    9    1      3.81      0.00
    7    9    1     -0.51      0.00
    8    9    1      3.25      0.00
    9    9    1      5.65      0.00
   -9   10    1      2.45      0.00
   -8   10    1    -13.28      0.00
   -7   10    1      0.17      0.00
   -6   10    1      4.72      0.00
   -5   10    1     -9.29      0.00
   -4   10    1      3.00      0.00
   -3   10    1      7.92      0.00
   -2   10    1     -6.93      0.00
   -1   10    1      1.59      0.00
    0   10    1     16.54      0.00
    1   10    1      1.77      0.00
    2   10    1      0.35      0.00
    3   10    1     -4.87      0.00
    4   10    1     -9.90      0.00
    5   10    1     -2.24      0.00
    6   10    1      2.33      0.00
    7   10    1     -0.78      0.00
    8   10    1     -5.34      0.00
    9   10    1      2.75      0.00
   10   10    1      6.12      0.00
  -10   11    1      3.07      0.00
   -9   11    1      0.79      0.00
   -8   11    1     -1.85      0.00
   -7   11    1     -2.38      0.00
   -6   11    1      1.79      0.00
   -5   11    1      1.65      0.00
   -4   11    1      0.11      0.00
   -3   11    1     -2.44      0.00
   -2   11    1     -5.62      0.00
   -1   11    1     -7.36      0.00
    0   11    1      5.58      0.00
    1   11    1      8.02      0.00
    2   11    1     -0.84      0.00
    3   11    1      3.88      0.00
    4   11    1      1.23      0.00
    5   11    1      4.05      0.00
    6   11    1     -1.00      0.00
    7   11    1     -6.15      0.00
    8   11    1     -3.59      0.00
    9   11    1      3.64      0.00
   10   11    1      1.57      0.00
   11   11    1     -0.02      0.00
  -11   12    1      1.73      0.00
  -10   12    1     -4.82      0.00
   -9   12    1      3.90      0.00
   -8   12    1     -0.90      0.00
   -7   12    1     -2.29      0.00
   -6   12    1     -3.86      0.00
   -5   12    1     -0.24      0.00
   -4   12    1     10.07      0.00
   -3   12    1      2.60      0.00
   -2   12    1     -4.25      0.00
   -1   12    1     -1.82      0.00
    0   12    1     -3.32      0.00
    1   12    1      1.09      0.00
    2   12    1     -4.22      0.00
    3   12    1     -2.23      0.00
    4   12    1      5.12      0.00
    5   12    1      3.65      0.00
    6   12    1     -0.07      0.00
    7   12    1     -0.38      0.00
    8   12    1      0.65      0.00
    9   12    1     -0.64      0.00
   10   12    1     -1.77      0.00
   11   12    1      2.01      0.00
   12   12    1      1.72      0.00
  -12   13    1     -2.89      0.00
  -11   13    1      0.43      0.00
  -10   13    1     -0.58      0.00
   -9   13    1      4.61      0.00
   -8   13    1      4.70      0.00
   -7   13    1     -7.80      0.00
   -6   13    1      0.71      0.00
   -5   13    1     -9.08      0.00
   -4   13    1     -5.07      0.00
   -3   13    1     13.16      0.00
   -2   13    1      3.10      0.00
   -1   13    1     -1.44      0.00
    0   13    1     -0.62      0.00
    1   13    1     -1.44      0.00
    2   13    1      1.67      0.00
    3   13    1     -2.43      0.00
    4   13    1     -2.72      0.00
    5   13    1      0.02      0.00
    6   13    1      0.32      0.00
    7   13    1      2.38      0.00
    8   13    1      0.96      0.00
    9   13    1     -2.20      0.00
   10   13    1     -2.63      0.00
   11   13    1      3.62      0.00
   12   13    1      3.19      0.00
   13   13    1     -0.60      0.00
  -13   14    1     -1.84      0.00
  -12   14    1     -1.53      0.00
  -11   14    1     -2.81      0.00
  -10   14    1      1.26      0.00
   -9   14    1      1.15      0.00
   -8   14    1      5.21      0.00
   -7   14    1      1.01      0.00
   -6   14    1      0.96      0.00
   -5   14    1      2.93      0.00
   -4   14    1    -15.50      0.00
   -3   14    1     -1.18      0.00
   -2   14    1      9.22      0.00
   -1   14    1     -2.39      0.00
    0   14    1     -0.91      0.00
    1   14    1      0.60      0.00
    2   14    1      3.77      0.00
    3   14    1      3.51      0.00
    4   14    1     -6.41      0.00
    5   14    1     -2.50      0.00
    6   14    1      3.45      0.00
    7   14    1      1.53      0.00
    8   14    1     -2.18      0.00
    9   14    1     -0.55      0.00
   10   14    1     -0.20      0.00
   11   14    1     -2.85      0.00
   12   14    1      0.52      0.00
   13   14    1     -0.12      0.00
   14   14    1      3.43      0.00
  -14   15    1      0.65      0.00
  -13   15    1      3.13      0.00
  -12   15    1      0.31      0.00
  -11   15    1     -0.53      0.00
  -10   15    1     -3.17      0.00
   -9   15    1     -1.31      0.00
   -8   15    1      0.18      0.00
   -7   15    1      5.23      0.00
   -6   15    1      1.69      0.00
   -5   15    1      2.08      0.00
   -4   15    1     -0.01      0.00
   -3   15    1     -6.52      0.00
   -2   15    1      3.88      0.00
   -1   15    1     -0.64      0.00
    0   15    1     -6.44      0.00
    1   15    1      2.73      0.00
    2   15    1      3.28      0.00
    3   15    1     -0.25      0.00
    4   15    1     -1.18      0.00
    5   15    1     -0.22      0.00
    6   15    1      1.14      0.00
    7   15    1     -0.67      0.00
    8   15    1      1.21      0.00
    9   15    1      1.21      0.00
   10   15    1      0.15      0.00
   11   15    1     -0.70      0.00
   12   15    1      1.09      0.00
   13   15    1     -2.08      0.00
   14   15    1     -3.03      0.00
   15   15    1     -0.74      0.00
  -15   16    1     -2.00      0.00
  -14   16    1      1.14      0.00
  -13   16    1      1.46      0.00
  -12   16    1      0.81      0.00
  -11   16    1     -0.89      0.00
  -10   16    1     -1.54      0.00
   -9   16    1     -1.96      0.00
   -8   16    1      1.43      0.00
   -7   16    1     -0.02      0.00
   -6   16    1      3.77      0.00
   -5   16    1      0.60      0.00
   -4   16    1     -2.64      0.00
   -3   16    1     -0.16      0.00
   -2   16    1     -1.04      0.00
   -1   16    1      4.36      0.00
    0   16    1      1.85      0.00
    1   16    1     -3.73      0.00
    2   16    1     -1.12      0.00
    3   16    1     -0.26      0.00
    4   16    1      0.50      0.00
    5   16    1      0.27      0.00
    6   16    1     -1.30      0.00
    7   16    1      0.01      0.00
    8   16    1      0.32      0.00
    9   16    1      0.32      0.00
   10   16    1     -1.73      0.00
   11   16    1      0.02      0.00
   12   16    1      3.23      0.00
   13   16    1     -0.73      0.00
   14   16    1      1.77      0.00
   15   16    1      1.25      0.00
   16   16    1     -2.40      0.00
  -16   17    1      0.18      0.00
  -15   17    1     -2.65      0.00
  -14   17    1      1.14      0.00
  -13   17    1      1.56      0.00
  -12   17    1     -1.45      0.00
  -11   17    1      0.08      0.00
  -10   17    1     -0.41      0.00
   -9   17    1     -2.32      0.00
   -8   17    1     -1.81      0.00
   -7   17    1      1.27      0.00
   -6   17    1      0.03      0.00
   -5   17    1      8.10      0.00
   -4   17    1     -0.46      0.00
   -3   17    1     -7.37      0.00
   -2   17    1     -0.89      0.00
   -1   17    1     -0.34      0.00
    0   17    1      4.08      0.00
    1   17    1      1.20      0.00
    2   17    1     -1.24      0.00
    3   17    1      2.48      0.00
    4   17    1     -0.10      0.00
    5   17    1     -1.83      0.00
    6   17    1     -1.59      0.00
    7   17    1      1.25      0.00
    8   17    1      1.09      0.00
    9   17    1     -0.14      0.00
   10   17    1      3.31      0.00
   11   17    1     -3.91      0.00
   12   17    1     -2.38      0.00
   13   17    1     -0.74      0.00
   14   17    1     -0.02      0.00
   15   17    1      1.60      0.00
   16   17    1     -1.08      0.00
   17   17    1      1.53      0.00
  -17   18    1     -1.20      0.00
  -16   18    1     -0.25      0.00
  -15   18    1      1.36      0.00
  -14   18    1     -2.68      0.00
  -13   18    1      0.34      0.00
  -12   18    1      1.32      0.00
  -11   18    1      1.30      0.00
  -10   18    1     -1.09      0.00
   -9   18    1     -0.86      0.00
   -8   18    1     -3.27      0.00
   -7   18    1     -3.46      0.00
   -6   18    1      1.56      0.00
   -5   18    1      1.01      0.00
   -4   18    1      6.71      0.00
   -3   18    1     -0.94      0.00
   -2   18    1     -0.50      0.00
   -1   18    1     -0.63      0.00
    0   18    1     -7.26      0.00
    1   18    1     -0.35      0.00
    2   18    1      4.36      0.00
    3   18    1      1.98      0.00
    4   18    1     -0.22      0.00
    5   18    1      0.12      0.00
    6   18    1     -0.87      0.00
    7   18    1     -4.08      0.00
    8   18    1      1.15      0.00
    9   18    1      1.69      0.00
   10   18    1      2.08      0.00
   11   18    1     -0.09      0.00
   12   18    1     -0.26      0.00
   13   18    1      3.44      0.00
   14   18    1     -0.43      0.00
   15   18    1     -2.23      0.00
   16   18    1     -4.68      0.00
   17   18    1      0.30      0.00
   18   18    1      0.47      0.00
  -18   19    1     -2.22      0.00
  -17   19    1     -0.54      0.00
  -16   19    1      2.02      0.00
  -15   19    1     -0.14      0.00
  -14   19    1      0.08      0.00
  -13   19    1     -0.07      0.00
  -12   19    1      0.73      0.00
  -11   19    1      0.94      0.00
  -10   19    1      1.01      0.00
   -9   19    1     -2.87      0.00
   -8   19    1      2.07      0.00
   -7   19    1     -3.40      0.00
   -6   19    1     -2.48      0.00
   -5   19    1      1.46      0.00
   -4   19    1     -1.59      0.00
   -3   19    1      3.37      0.00
   -2   19    1      0.24      0.00
   -1   19    1      1.74      0.00
    0   19    1      0.47      0.00
    1   19    1     -2.91      0.00
    2   19    1     -1.22      0.00
    3   19    1      0.50      0.00
    4   19    1      0.97      0.00
    5   19    1      0.80      0.00
    6   19    1      0.48      0.00
    7   19    1     -0.01      0.00
    8   19    1     -1.00      0.00
    9   19    1     -1.59      0.00
   10   19    1     -1.95      0.00
   11   19    1      0.53      0.00
   12   19    1      0.29      0.00
   13   19    1      0.59      0.00
   14   19    1     -0.98      0.00
   15   19    1      3.79      0.00
   16   19    1      1.63      0.00
   17   19    1     -2.44      0.00
   18   19    1     -2.01      0.00
   19   19    1     -1.79      0.00
  -19   20    1      2.09      0.00
  -18   20    1      2.60      0.00
  -17   20    1     -3.33      0.00
  -16   20    1     -0.04      0.00
  -15   20    1      0.69      0.00
  -14   20    1     -2.84      0.00
  -13   20    1      2.31      0.00
  -12   20    1      2.83      0.00
  -11   20    1     -1.86      0.00
  -10   20    1      1.48      0.00
   -9   20    1      1.15      0.00
   -8   20    1     -2.13      0.00
   -7   20    1      2.05      0.00
   -6   20    1     -4.49      0.00
   -5   20    1      1.77      0.00
   -4   20    1      3.33      0.00
   -3   20    1     -3.81      0.00
   -2   20    1     -2.00      0.00
   -1   20    1      1.10      0.00
    0   20    1      2.22      0.00
    1   20    1     -1.21      0.00
    2   20    1      0.17      0.00
    3   20    1      1.60      0.00
    4   20    1     -1.36      0.00
    5   20    1     -1.49      0.00
    6   20    1     -0.25      0.00
    7   20    1      2.53      0.00
    8   20    1      2.88      0.00
    9   20    1     -3.08      0.00
   10   20    1      0.18      0.00
   11   20    1      3.80      0.00
   12   20    1     -1.06      0.00
   13   20    1     -2.53      0.00
   14   20    1     -0.72      0.00
   15   20    1      0.34      0.00
   16   20    1      2.11      0.00
   17   20    1     -0.31      0.00
   18   20    1     -1.16      0.00
   19   20    1      0.73      0.00
   20   20    1     -0.35      0.00
  -20   21    1     -3.54      0.00
  -19   21    1      0.19      0.00
  -18   21    1      6.59      0.00
  -17   21    1      2.19      0.00
  -16   21    1     -4.15      0.00
  -15   21    1      1.29      0.00
  -14   21    1     -0.99      0.00
  -13   21    1     -3.17      0.00
  -12   21    1      2.42      0.00
  -11   21    1      0.85      0.00
  -10   21    1      0.19      0.00
   -9   21    1      1.71      0.00
   -8   21    1     -1.50      0.00
   -7   21    1     -1.18      0.00
   -6   21    1      0.40      0.00
   -5   21    1     -3.34      0.00
   -4   21    1      2.86      0.00
   -3   21    1      2.68      0.00
   -2   21    1     -0.44      0.00
   -1   21    1      0.05      0.00
    0   21    1     -1.33      0.00
    1   21    1     -2.80      0.00
    2   21    1      0.75      0.00
    3   21    1      2.07      0.00
    4   21    1     -1.07      0.00
    5   21    1      1.32      0.00
    6   21    1      1.48      0.00
    7   21    1     -5.83      0.00
    8   21    1     -1.50      0.00
    9   21    1      2.49      0.00
   10   21    1      0.24      0.00
   11   21    1      0.76      0.00
   12   21    1      0.02      0.00
   13   21    1      0.64      0.00
   14   21    1      1.60      0.00
   15   21    1      3.21      0.00
   16   21    1     -1.28      0.00
   17   21    1     -0.54      0.00
   18   21    1      2.32      0.00
   19   21    1      0.21      0.00
   20   21    1     -0.69      0.00
   21   21    1      1.07      0.00
  -21   22    1     -0.25      0.00
  -20   22    1     -0.50      0.00
  -19   22    1     -0.61      0.00
  -18   22    1     -2.33      0.00
  -17   22    1      2.02      0.00
  -16   22    1      2.64      0.00
  -15   22    1     -0.12      0.00
  -14   22    1      3.85      0.00
  -13   22    1     -1.49      0.00
  -12   22    1     -2.57      0.00
  -11   22    1      0.84      0.00
  -10   22    1      2.54      0.00
   -9   22    1      1.85      0.00
   -8   22    1     -0.78      0.00
   -7   22    1     -0.03      0.00
   -6   22    1     -0.99      0.00
   -5   22    1     -1.69      0.00
   -4   22    1     -2.57      0.00
   -3   22    1      1.82      0.00
   -2   22    1      1.90      0.00
   -1   22    1     -0.38      0.00
    0   22    1      0.89      0.00
    1   22    1      0.59      0.00
    2   22    1     -2.11      0.00
    3   22    1     -1.09      0.00
    4   22    1      0.75      0.00
    5   22    1      2.37      0.00
    6   22    1      2.06      0.00
    7   22    1     -1.04      0.00
    8   22    1     -3.01      0.00
    9   22    1      0.39      0.00
   10   22    1     -0.35      0.00
   11   22    1     -1.64      0.00
   12   22    1     -1.70      0.00
   13   22    1      2.22      0.00
   14   22    1     -1.60      0.00
   15   22    1     -1.61      0.00
   16   22    1      1.43      0.00
   17   22    1      0.56      0.00
   18   22    1      2.83      0.00
   19   22    1      2.50      0.00
   20   22    1     -0.60      0.00
   21   22    1     -0.15      0.00
   22   22    1      1.67      0.00
  -22   23    1      0.55      0.00
  -21   23    1     -0.89      0.00
  -20   23    1     -3.12      0.00
  -19   23    1     -2.12      0.00
  -18   23    1     -1.24      0.00
  -17   23    1     -2.17      0.00
  -16   23    1      0.88      0.00
  -15   23    1      1.30      0.00
  -14   23    1     -1.61      0.00
  -13   23    1      1.57      0.00
  -12   23    1      0.71      0.00
  -11   23    1     -0.99      0.00
  -10   23    1     -2.24      0.00
   -9   23    1      4.36      0.00
   -8   23    1      2.09      0.00
   -7   23    1      1.01      0.00
   -6   23    1      0.71      0.00
   -5   23    1     -2.12      0.00
   -4   23    1      0.53      0.00
   -3   23    1     -0.72      0.00
   -2   23    1     -0.74      0.00
   -1   23    1     -0.01      0.00
    0   23    1      1.81      0.00
    1   23    1     -0.09      0.00
    2   23    1     -2.64      0.00
    3   23    1      1.51      0.00
    4   23    1      1.05      0.00
    5   23    1     -1.56      0.00
    6   23    1     -0.72      0.00
    7   23    1     -0.15      0.00
    8   23    1      2.56      0.00
    9   23    1      0.33      0.00
   10   23    1     -1.92      0.00
   11   23    1      0.30      0.00
   12   23    1      0.26      0.00
   13   23    1      0.14      0.00
   14   23    1     -0.36      0.00
   15   23    1     -1.93      0.00
   16   23    1      1.06      0.00
   17   23    1     -1.83      0.00
   18   23    1     -2.36      0.00
   19   23    1     -1.97      0.00
   20   23    1      4.34      0.00
   21   23    1      1.41      0.00
   22   23    1      1.99      0.00
   23   23    1     -0.46      0.00
  -23   24    1      1.97      0.00
  -22   24    1      4.67      0.00
  -21   24    1      2.43      0.00
  -20   24    1     -2.45      0.00
  -19   24    1     -3.80      0.00
  -18   24    1     -1.08      0.00
  -17   24    1      2.92      0.00
  -16   24    1     -2.82      0.00
  -15   24    1     -1.44      0.00
  -14   24    1      0.08      0.00
  -13   24    1     -2.06      0.00
  -12   24    1      1.23      0.00
  -11   24    1     -0.67      0.00
  -10   24    1     -3.58      0.00
   -9   24    1      0.25      0.00
   -8   24    1      2.16      0.00
   -7   24    1     -0.89      0.00
   -6   24    1      4.37      0.00
   -5   24    1     -0.38      0.00
   -4   24    1     -1.93      0.00
   -3   24    1     -0.48      0.00
   -2   24    1     -0.74      0.00
   -1   24    1      1.98      0.00
    0   24    1      1.60      0.00
    1   24    1      0.62      0.00
    2   24    1     -0.92      0.00
    3   24    1     -0.22      0.00
    4   24    1      0.61      0.00
    5   24    1     -1.47      0.00
    6   24    1      3.08      0.00
    7   24    1      1.35      0.00
    8   24    1     -1.83      0.00
    9   24    1     -0.57      0.00
   10   24    1     -2.58      0.00
   11   24    1     -0.17      0.00
   12   24    1      0.30      0.00
   13   24    1     -0.94      0.00
   14   24    1      1.47      0.00
   15   24    1      0.53      0.00
   16   24    1      4.08      0.00
   17   24    1     -1.46      0.00
   18   24    1     -4.91      0.00
   19   24    1     -3.08      0.00
   20   24    1     -0.12      0.00
   21   24    1      4.74      0.00
   22   24    1     -1.46      0.00
   23   24    1     -0.39      0.00
   24   24    1      2.75      0.00
  -24   25    1      2.91      0.00
  -23   25    1     -1.52      0.00
  -22   25    1     -0.68      0.00
  -21   25    1      5.31      0.00
  -20   25    1      0.28      0.00
  -19   25    1      2.53      0.00
  -18   25    1      0.09      0.00
  -17   25    1     -2.80      0.00
  -16   25    1      1.37      0.00
  -15   25    1     -1.98      0.00
  -14   25    1      2.00      0.00
  -13   25    1      0.84      0.00
  -12   25    1     -2.23      0.00
  -11   25    1      1.64      0.00
  -10   25    1     -2.13      0.00
   -9   25    1     -2.73      0.00
   -8   25    1      1.59      0.00
   -7   25    1     -3.10      0.00
   -6   25    1      0.78      0.00
   -5   25    1      5.71      0.00
   -4   25    1     -0.95      0.00
   -3   25    1     -1.66      0.00
   -2   25    1     -2.14      0.00
   -1   25    1     -1.24      0.00
    0   25    1     -1.13      0.00
    1   25    1      0.75      0.00
    2   25    1      3.09      0.00
    3   25    1     -0.57      0.00
    4   25    1     -1.78      0.00
    5   25    1     -0.30      0.00
    6   25    1      0.62      0.00
    7   25    1      3.95      0.00
    8   25    1      2.24      0.00
    9   25    1     -2.33      0.00
   10   25    1      0.00      0.00
   11   25    1      3.48      0.00
   12   25    1     -1.29      0.00
   13   25    1     -5.93      0.00
   14   25    1      0.58      0.00
   15   25    1      0.68      0.00
   16   25    1     -1.31      0.00
   17   25    1      4.39      0.00
   18   25    1     -0.03      0.00
   19   25    1      1.29      0.00
   20   25    1     -3.33      0.00
   21   25    1     -5.80      0.00
   22   25    1      1.54      0.00
   23   25    1      0.87      0.00
   24   25    1      0.79      0.00
   25   25    1      3.61      0.00
  -24   26    1     -3.93      0.00
  -23   26    1     -2.79      0.00
  -22   26    1     -2.54      0.00
  -21   26    1      5.65      0.00
  -20   26    1      2.60      0.00
  -19   26    1     -1.69      0.00
  -18   26    1      2.85      0.00
  -17   26    1     -3.07      0.00
  -16   26    1     -0.90      0.00
  -15   26    1      2.60      0.00
  -14   26    1     -2.95      0.00
  -13   26    1      2.36      0.00
  -12   26    1      1.04      0.00
  -11   26    1      0.14      0.00
  -10   26    1      1.17      0.00
   -9   26    1     -4.92      0.00
   -8   26    1      1.13      0.00
   -7   26    1      1.36      0.00
   -6   26    1     -4.94      0.00
   -5   26    1      2.83      0.00
   -4   26    1      2.19      0.00
   -3   26    1     -0.18      0.00
   -2   26    1      2.61      0.00
   -1   26    1      1.23      0.00
    0   26    1     -2.22      0.00
    1   26    1     -4.22      0.00
    2   26    1      0.57      0.00
    3   26    1      0.13      0.00
    4   26    1     -0.89      0.00
    5   26    1     -0.01      0.00
    6   26    1      1.86      0.00
    7   26    1     -1.45      0.00
    8   26    1     -1.47      0.00
    9   26    1      1.02      0.00
   10   26    1     -1.66      0.00
   11   26    1      3.07      0.00
   12   26    1      4.50      0.00
   13   26    1      1.75      0.00
   14   26    1     -3.27      0.00
   15   26    1     -2.66      0.00
   16   26    1     -2.59      0.00
   17   26    1      0.56      0.00
   18   26    1      3.26      0.00
   19   26    1     -2.69      0.00
   20   26    1      2.52      0.00
   21   26    1     -1.13      0.00
   22   26    1     -2.31      0.00
   23   26    1      2.02      0.00
   24   26    1     -4.07      0.00
  -23   27    1     -1.60      0.00
  -22   27    1     -3.18      0.00
  -21   27    1     -1.87      0.00
  -20   27    1      3.00      0.00
  -19   27    1     -0.23      0.00
  -18   27    1      1.30      0.00
  -17   27    1      3.65      0.00
  -16   27    1     -1.15      0.00
  -15   27    1      0.17      0.00
  -14   27    1     -2.38      0.00
  -13   27    1     -3.31      0.00
  -12   27    1      4.56      0.00
  -11   27    1      0.02      0.00
  -10   27    1      0.60      0.00
   -9   27    1      0.49      0.00
   -8   27    1     -3.71      0.00
   -7   27    1      2.76      0.00
   -6   27    1     -2.30      0.00
   -5   27    1     -3.76      0.00
   -4   27    1      3.19      0.00
   -3   27    1     -0.55      0.00
   -2   27    1     -0.67      0.00
   -1   27    1      0.41      0.00
    0   27    1      5.20      0.00
    1   27    1      0.30      0.00
    2   27    1     -2.00      0.00
    3   27    1      0.27      0.00
    4   27    1     -2.08      0.00
    5   27    1     -0.43      0.00
    6   27    1     -2.91      0.00
    7   27    1      3.28      0.00
    8   27    1      2.76      0.00
    9   27    1      4.08      0.00
   10   27    1     -3.44      0.00
   11   27    1     -8.10      0.00
   12   27    1     -0.02      0.00
   13   27    1      3.96      0.00
   14   27    1      5.32      0.00
   15   27    1      1.09      0.00
   16   27    1      2.71      0.00
   17   27    1     -1.50      0.00
   18   27    1     -0.96      0.00
   19   27    1     -5.52      0.00
   20   27    1     -6.76      0.00
   21   27    1      8.72      0.00
   22   27    1      1.57      0.00
   23   27    1     -2.29      0.00
  -21   28    1     -3.72      0.00
  -20   28    1     -2.76      0.00
  -19   28    1     -1.94      0.00
  -18   28    1      1.32      0.00
  -17   28    1      2.50      0.00
  -16   28    1      0.75      0.00
  -15   28    1      2.98      0.00
  -14   28    1      1.77      0.00
  -13   28    1     -4.44      0.00
  -12   28    1     -0.56      0.00
  -11   28    1      2.21      0.00
  -10   28    1     -1.68      0.00
   -9   28    1      3.60      0.00
   -8   28    1     -0.41      0.00
   -7   28    1     -2.31      0.00
   -6   28    1      1.59      0.00
   -5   28    1     -4.73      0.00
   -4   28    1      1.79      0.00
   -3   28    1      1.10      0.00
   -2   28    1     -3.77      0.00
   -1   28    1     -0.10      0.00
    0   28    1      0.88      0.00
    1   28    1      4.39      0.00
    2   28    1     -2.24      0.00
    3   28    1      3.03      0.00
    4   28    1     -1.57      0.00
    5   28    1     -2.07      0.00
    6   28    1     -2.85      0.00
    7   28    1     -5.65      0.00
    8   28    1      6.20      0.00
    9   28    1      4.38      0.00
   10   28    1     -0.98      0.00
   11   28    1     -1.81      0.00
   12   28    1      2.11      0.00
   13   28    1     -4.87      0.00
   14   28    1     -2.47      0.00
   15   28    1      3.62      0.00
   16   28    1      2.36      0.00
   17   28    1      3.20      0.00
   18   28    1      4.11      0.00
   19   28    1      7.28      0.00
   20   28    1     -6.97      0.00
   21   28    1     -7.88      0.00
  -20   29    1      3.14      0.00
  -19   29    1     -2.67      0.00
  -18   29    1     -4.30      0.00
  -17   29    1      0.73      0.00
  -16   29    1     -2.54      0.00
  -15   29    1      0.49      0.00
  -14   29    1      4.05      0.00
  -13   29    1      0.55      0.00
  -12   29    1      1.20      0.00
  -11   29    1      0.50      0.00
  -10   29    1     -1.47      0.00
   -9   29    1      0.42      0.00
   -8   29    1      0.41      0.00
   -7   29    1      0.09      0.00
   -6   29    1      3.92      0.00
   -5   29    1     -0.89      0.00
   -4   29    1     -3.29      0.00
   -3   29    1      0.31      0.00
   -2   29    1     -7.35      0.00
   -1   29    1      1.71      0.00
    0   29    1      2.66      0.00
    1   29    1     -0.30      0.00
    2   29    1      3.21      0.00
    3   29    1      0.84      0.00
    4   29    1      2.45      0.00
    5   29    1     -4.22      0.00
    6   29    1      2.59      0.00
    7   29    1     -0.83      0.00
    8   29    1     -4.50      0.00
    9   29    1      2.24      0.00
   10   29    1     -1.13      0.00
   11   29    1     -4.79      0.00
   12   29    1      1.95      0.00
   13   29    1      3.38      0.00
   14   29    1     -2.40      0.00
   15   29    1     -3.49      0.00
   16   29    1     -2.45      0.00
   17   29    1      0.54      0.00
   18   29    1      0.40      0.00
   19   29    1      7.20      0.00
   20   29    1      7.97      0.00
  -19   30    1      1.99      0.00
  -18   30    1     -4.85      0.00
  -17   30    1      0.97      0.00
  -16   30    1      2.36      0.00
  -15   30    1     -5.27      0.00
  -14   30    1      2.16      0.00
  -13   30    1     -0.82      0.00
  -12   30    1     -3.13      0.00
  -11   30    1      5.64      0.00
  -10   30    1      0.28      0.00
   -9   30    1     -0.64      0.00
   -8   30    1      0.48      0.00
   -7   30    1     -0.33      0.00
   -6   30    1      4.20      0.00
   -5   30    1      0.50      0.00
   -4   30    1     -1.11      0.00
   -3   30    1      4.75      0.00
   -2   30    1     -0.77      0.00
   -1   30    1     -9.96      0.00
    0   30    1     -0.77      0.00
    1   30    1     -0.13      0.00
    2   30    1      0.84      0.00
    3   30    1      1.43      0.00
    4   30    1      1.18      0.00
    5   30    1      4.28      0.00
    6   30    1     -2.55      0.00
    7   30    1     -3.14      0.00
    8   30    1     -0.88      0.00
    9   30    1      5.00      0.00
   10   30    1      8.88      0.00
   11   30    1     -2.65      0.00
   12   30    1     -6.74      0.00
   13   30    1     -3.78      0.00
   14   30    1     -0.66      0.00
   15   30    1      2.03      0.00
   16   30    1     -0.84      0.00
   17   30    1      1.53      0.00
   18   30    1     -2.67      0.00
   19   30    1     -4.55      0.00
  -17   31    1     -3.33      0.00
  -16   31    1      0.60      0.00
  -15   31    1      0.23      0.00
  -14   31    1      1.15      0.00
  -13   31    1      0.31      0.00
  -12   31    1     -7.00      0.00
  -11   31    1      3.12      0.00
  -10   31    1      3.73      0.00
   -9   31    1     -4.35      0.00
   -8   31    1      4.57      0.00
   -7   31    1     -4.09      0.00
   -6   31    1      0.09      0.00
   -5   31    1      4.12      0.00
   -4   31    1     -1.85      0.00
   -3   31    1      5.76      0.00
   -2   31    1      3.67      0.00
   -1   31    1     -3.52      0.00
    0   31    1     -6.07      0.00
    1   31    1      1.36      0.00
    2   31    1     -0.19      0.00
    3   31    1      2.68      0.00
    4   31    1      1.42      0.00
    5   31    1     -2.94      0.00
    6   31    1      4.07      0.00
    7   31    1     -4.84      0.00
    8   31    1     -6.80      0.00
    9   31    1      0.63      0.00
   10   31    1      5.59      0.00
   11   31    1      2.46      0.00
   12   31    1      1.76      0.00
   13   31    1      3.96      0.00
   14   31    1     -6.63      0.00
   15   31    1     -1.10      0.00
   16   31    1     -0.58      0.00
   17   31    1     -2.84      0.00
  -15   32    1     -0.38      0.00
  -14   32    1     -1.25      0.00
  -13   32    1     -0.35      0.00
  -12   32    1      0.59      0.00
  -11   32    1     -4.13      0.00
  -10   32    1      1.51      0.00
   -9   32    1      1.73      0.00
   -8   32    1      1.40      0.00
   -7   32    1     -0.97      0.00
   -6   32    1     -5.01      0.00
   -5   32    1      7.05      0.00
   -4   32    1     -2.27      0.00
   -3   32    1      3.79      0.00
   -2   32    1      2.49      0.00
   -1   32    1     -3.91      0.00
    0   32    1      0.91      0.00
    1   32    1     -7.14      0.00
    2   32    1     -0.96      0.00
    3   32    1      1.95      0.00
    4   32    1      5.93      0.00
    5   32    1     -0.40      0.00
    6   32    1      2.09      0.00
    7   32    1      7.65      0.00
    8   32    1     -5.29      0.00
    9   32    1     -4.33      0.00
   10   32    1      1.69      0.00
   11   32    1     -0.97      0.00
   12   32    1     -7.34      0.00
   13   32    1      7.62      0.00
   14   32    1      5.39      0.00
   15   32    1     -6.76      0.00
  -13   33    1      2.42      0.00
  -12   33    1     -2.03      0.00
  -11   33    1     -3.91      0.00
  -10   33    1     -5.07      0.00
   -9   33    1     -0.40      0.00
   -8   33    1     -0.79      0.00
   -7   33    1      3.06      0.00
   -6   33    1     -1.09      0.00
   -5   33    1      1.52      0.00
   -4   33    1      1.16      0.00
   -3   33    1     -3.72      0.00
   -2   33    1     11.18      0.00
   -1   33    1      1.06      0.00
    0   33    1      1.45      0.00
    1   33    1      0.09      0.00
    2   33    1     -7.50      0.00
    3   33    1     -6.03      0.00
    4   33    1     -6.56      0.00
    5   33    1      4.34      0.00
    6   33    1      2.92      0.00
    7   33    1      2.62      0.00
    8   33    1      0.83      0.00
    9   33    1     -1.00      0.00
   10   33    1      3.10      0.00
   11   33    1      7.40      0.00
   12   33    1     -0.30      0.00
   13   33    1     -7.59      0.00
  -10   34    1      2.96      0.00
   -9   34    1     -6.01      0.00
   -8   34    1     -4.37      0.00
   -7   34    1     -2.41      0.00
   -6   34    1     -3.41      0.00
   -5   34    1     -2.61      0.00
   -4   34    1      1.56      0.00
   -3   34    1     -3.35      0.00
   -2   34    1      3.37      0.00
   -1   34    1      8.34      0.00
    0   34    1     -2.82      0.00
    1   34    1      4.20      0.00
    2   34    1      3.18      0.00
    3   34    1      1.57      0.00
    4   34    1      0.13      0.00
    5   34    1     -6.91      0.00
    6   34    1     -4.33      0.00
    7   34    1      0.04      0.00
    8   34    1      0.33      0.00
    9   34    1     -4.57      0.00
   10   34    1     -1.02      0.00
   -6   35    1     -5.27      0.00
   -5   35    1     -3.25      0.00
   -4   35    1     -4.67      0.00
   -3   35    1     -2.21      0.00
   -2   35    1      0.02      0.00
   -1   35    1     -0.57      0.00
    0   35    1      2.20      0.00
    1   35    1     -2.44      0.00
    2   35    1     -1.70      0.00
    3   35    1      1.75      0.00
    4   35    1      6.99      0.00
    5   35    1      0.53      0.00
    6   35    1     -3.28      0.00
    0    0    2     66.86      0.00
    1    1    2     15.85      0.00
   -1    2    2     43.74      0.00
    0    2    2     -1.41      0.00
    1    2    2     -3.46      0.00
    2    2    2      6.01      0.00
   -2    3    2      2.77      0.00
   -1    3    2    -12.96      0.00
    0    3    2    -28.57      0.00
    3    3    2     18.27      0.00
   -3    4    2     12.21      0.00
   -2    4    2    -33.31      0.00
   -1    4    2      0.60      0.00
    0    4    2    -28.72      0.00
    1    4    2      6.10      0.00
    2    4    2     12.85      0.00
    3    4    2     -6.26      0.00
    4    4    2     24.84      0.00
   -4    5    2    -15.24      0.00
   -3    5    2     16.78      0.00
   -2    5    2     -9.61      0.00
   -1    5    2     -1.74      0.00
    0    5    2     16.04      0.00
    1    5    2    -16.52      0.00
    2    5    2      8.00      0.00
    3    5    2      5.08      0.00
    4    5    2      3.51      0.00
    5    5    2     -7.26      0.00
   -5    6    2      3.40      0.00
   -4    6    2      4.43      0.00
   -3    6    2      1.07      0.00
   -2    6    2      4.70      0.00
   -1    6    2    -11.77      0.00
    0    6    2    -18.69      0.00
    1    6    2     -3.44      0.00
    2    6    2      8.74      0.00
    3    6    2      3.37      0.00
    4    6    2      7.88      0.00
    5    6    2      8.12      0.00
    6    6    2     -3.74      0.00
   -6    7    2     -3.73      0.00
   -5    7    2    -11.05      0.00
   -4    7    2      3.81      0.00
   -3    7    2     16.66      0.00
   -2    7    2     -3.25      0.00
   -1    7    2      6.01      0.00
    0    7    2     10.42      0.00
    1    7    2    -19.93      0.00
    2    7    2     -9.44      0.00
    3    7    2     -5.64      0.00
    4    7    2      4.05      0.00
    5    7    2      8.70      0.00
    6    7    2     -4.81      0.00
    7    7    2     -0.01      0.00
   -7    8    2     -2.38      0.00
   -6    8    2     -3.43      0.00
   -5    8    2      8.91      0.00
   -4    8    2     -7.85      0.00
   -3    8    2    -13.18      0.00
   -2    8    2      3.34      0.00
   -1    8    2      0.49      0.00
    0    8    2     14.86      0.00
    1    8    2      1.00      0.00
    2    8    2     -8.26      0.00
    3    8    2      4.99      0.00
    4    8    2      0.12      0.00
    5    8    2     -3.22      0.00
    6    8    2     -5.04      0.00
    7    8    2      1.22      0.00
    8    8    2      6.46      0.00
   -8    9    2     -1.23      0.00
   -7    9    2      3.11      0.00
   -6    9    2      2.97      0.00
   -5    9    2      1.46      0.00
   -4    9    2      2.38      0.00
   -3    9    2     -3.24      0.00
   -2    9    2      5.50      0.00
   -1    9    2     -1.99      0.00
    0    9    2    -13.06      0.00
    1    9    2     -0.15      0.00
    2    9    2      7.32      0.00
    3    9    2      2.19      0.00
    4    9    2     -3.02      0.00
    5    9    2      0.54      0.00
    6    9    2      1.58      0.00
    7    9    2     -1.24      0.00
    8    9    2     -1.04      0.00
    9    9    2     -0.57      0.00
   -9   10    2     -2.59      0.00
   -8   10    2     -2.67      0.00
   -7   10    2      0.10      0.00
   -6   10    2      4.40      0.00
   -5   10    2     -4.21      0.00
   -4   10    2     -5.40      0.00
   -3   10    2      6.98      0.00
   -2   10    2      6.92      0.00
   -1   10    2     -4.37      0.00
    0   10    2      1.33      0.00
    1   10    2      3.74      0.00
    2   10    2     -4.54      0.00
    3   10    2     -3.43      0.00
    4   10    2     -0.96      0.00
    5   10    2      3.97      0.00
    6   10    2      3.25      0.00
    7   10    2     -3.42      0.00
    8   10    2     -2.25      0.00
    9   10    2     -0.81      0.00
   10   10    2      0.52      0.00
  -10   11    2      5.27      0.00
   -9   11    2     -0.01      0.00
   -8   11    2     -2.91      0.00
   -7   11    2      3.19      0.00
   -6   11    2     -0.21      0.00
   -5   11    2      1.73      0.00
   -4   11    2      2.87      0.00
   -3   11    2     -8.62      0.00
   -2   11    2     -4.10      0.00
   -1   11    2      1.78      0.00
    0   11    2      2.60      0.00
    1   11    2      8.30      0.00
    2   11    2     -3.10      0.00
    3   11    2     -4.16      0.00
    4   11    2      2.15      0.00
    5   11    2      0.12      0.00
    6   11    2      1.24      0.00
    7   11    2      1.13      0.00
    8   11    2     -1.84      0.00
    9   11    2      1.44      0.00
   10   11    2     -2.19      0.00
   11   11    2     -0.15      0.00
  -11   12    2     -0.79      0.00
  -10   12    2     -4.70      0.00
   -9   12    2      3.31      0.00
   -8   12    2      0.35      0.00
   -7   12    2     -2.96      0.00
   -6   12    2      3.10      0.00
   -5   12    2      0.87      0.00
   -4   12    2      6.89      0.00
   -3   12    2      1.56      0.00
   -2   12    2     -7.04      0.00
   -1   12    2      1.82      0.00
    0   12    2     -4.15      0.00
    1   12    2     -2.49      0.00
    2   12    2      2.97      0.00
    3   12    2      0.60      0.00
    4   12    2      2.58      0.00
    5   12    2     -0.40      0.00
    6   12    2     -2.87      0.00
    7   12    2      1.62      0.00
    8   12    2      1.85      0.00
    9   12    2      1.59      0.00
   10   12    2      0.05      0.00
   11   12    2     -0.39      0.00
   12   12    2     -1.44      0.00
  -12   13    2     -2.05      0.00
  -11   13    2      0.29      0.00
  -10   13    2      0.56      0.00
   -9   13    2     -3.64      0.00
   -8   13    2      1.49      0.00
   -7   13    2     -3.44      0.00
   -6   13    2     -2.21      0.00
   -5   13    2      2.76      0.00
   -4   13    2     -2.94      0.00
   -3   13    2      3.63      0.00
   -2   13    2      3.88      0.00
   -1   13    2      2.19      0.00
    0   13    2     -0.98      0.00
    1   13    2     -1.55      0.00
    2   13    2      1.00      0.00
    3   13    2     -5.94      0.00
    4   13    2     -1.58      0.00
    5   13    2      4.08      0.00
    6   13    2      0.43      0.00
    7   13    2     -0.81      0.00
    8   13    2     -1.43      0.00
    9   13    2      0.15      0.00
   10   13    2     -0.30      0.00
   11   13    2      3.27      0.00
   12   13    2      2.85      0.00
   13   13    2     -2.67      0.00
  -13   14    2     -1.37      0.00
  -12   14    2     -0.43      0.00
  -11   14    2     -2.32      0.00
  -10   14    2      1.72      0.00
   -9   14    2      4.19      0.00
   -8   14    2     -1.64      0.00
   -7   14    2     -0.14      0.00
   -6   14    2     -3.16      0.00
   -5   14    2     -1.31      0.00
   -4   14    2      2.23      0.00
   -3   14    2     -2.00      0.00
   -2   14    2     -2.56      0.00
   -1   14    2      0.16      0.00
    0   14    2      2.50      0.00
    1   14    2      2.14      0.00
    2   14    2      5.24      0.00
    3   14    2     -0.51      0.00
    4   14    2     -4.55      0.00
    5   14    2     -0.56      0.00
    6   14    2     -0.04      0.00
    7   14    2      2.63      0.00
    8   14    2     -0.34      0.00
    9   14    2     -1.54      0.00
   10   14    2     -0.57      0.00
   11   14    2     -3.46      0.00
   12   14    2      1.55      0.00
   13   14    2      1.96      0.00
   14   14    2      1.27      0.00
  -14   15    2     -1.56      0.00
  -13   15    2      1.41      0.00
  -12   15    2      2.26      0.00
  -11   15    2     -0.74      0.00
  -10   15    2     -4.79      0.00
   -9   15    2     -0.83      0.00
   -8   15    2      4.02      0.00
   -7   15    2     -0.23      0.00
   -6   15    2      1.23      0.00
   -5   15    2     -1.43      0.00
   -4   15    2     -1.35      0.00
   -3   15    2      3.40      0.00
   -2   15    2     -1.48      0.00
   -1   15    2     -3.99      0.00
    0   15    2     -2.24      0.00
    1   15    2     -1.18      0.00
    2   15    2      2.77      0.00
    3   15    2      2.14      0.00
    4   15    2     -1.52      0.00
    5   15    2      0.12      0.00
    6   15    2     -0.18      0.00
    7   15    2      0.94      0.00
    8   15    2      0.63      0.00
    9   15    2      0.30      0.00
   10   15    2      1.56      0.00
   11   15    2     -0.57      0.00
   12   15    2     -0.57      0.00
   13   15    2     -0.45      0.00
   14   15    2     -1.09      0.00
   15   15    2     -1.69      0.00
  -15   16    2     -1.40      0.00
  -14   16    2      0.35      0.00
  -13   16    2      0.29      0.00
  -12   16    2      2.86      0.00
  -11   16    2     -0.68      0.00
  -10   16    2     -1.07      0.00
   -9   16    2     -1.12      0.00
   -8   16    2     -1.21      0.00
   -7   16    2      1.62      0.00
   -6   16    2     -2.00      0.00
   -5   16    2      1.50      0.00
   -4   16    2     -0.10      0.00
   -3   16    2      0.55      0.00
   -2   16    2      2.99      0.00
   -1   16    2     -0.58      0.00
    0   16    2     -0.83      0.00
    1   16    2     -1.87      0.00
    2   16    2      1.28      0.00
    3   16    2     -0.16      0.00
    4   16    2     -4.05      0.00
    5   16    2      0.39      0.00
    6   16    2     -0.85      0.00
    7   16    2      0.68      0.00
    8   16    2      1.29      0.00
    9   16    2     -3.01      0.00
   10   16    2     -1.45      0.00
   11   16    2      0.78      0.00
   12   16    2      4.11      0.00
   13   16    2     -2.79      0.00
   14   16    2      0.44      0.00
   15   16    2      0.84      0.00
   16   16    2     -1.91      0.00
  -16   17    2      0.89      0.00
  -15   17    2     -1.28      0.00
  -14   17    2      3.05      0.00
  -13   17    2      1.10      0.00
  -12   17    2     -1.63      0.00
  -11   17    2      2.63      0.00
  -10   17    2     -0.53      0.00
   -9   17    2     -0.91      0.00
   -8   17    2     -0.32      0.00
   -7   17    2      1.52      0.00
   -6   17    2      0.90      0.00
   -5   17    2     -4.57      0.00
   -4   17    2      0.58      0.00
   -3   17    2     -0.67      0.00
   -2   17    2      0.33      0.00
   -1   17    2      1.87      0.00
    0   17    2      0.88      0.00
    1   17    2     -0.26      0.00
    2   17    2      1.13      0.00
    3   17    2      3.35      0.00
    4   17    2     -1.72      0.00
    5   17    2     -0.92      0.00
    6   17    2     -1.14      0.00
    7   17    2     -2.03      0.00
    8   17    2      3.89      0.00
    9   17    2     -0.12      0.00
   10   17    2      1.38      0.00
   11   17    2     -2.77      0.00
   12   17    2     -2.41      0.00
   13   17    2      0.11      0.00
   14   17    2     -0.28      0.00
   15   17    2      2.90      0.00
   16   17    2     -4.46      0.00
   17   17    2      0.83      0.00
  -17   18    2     -2.55      0.00
  -16   18    2     -0.33      0.00
  -15   18    2      0.90      0.00
  -14   18    2     -1.84      0.00
  -13   18    2     -1.09      0.00
  -12   18    2      0.45      0.00
  -11   18    2      1.99      0.00
  -10   18    2      3.89      0.00
   -9   18    2     -2.06      0.00
   -8   18    2     -1.38      0.00
   -7   18    2      0.28      0.00
   -6   18    2      2.08      0.00
   -5   18    2      0.58      0.00
   -4   18    2     -2.69      0.00
   -3   18    2      0.91      0.00
   -2   18    2      0.23      0.00
   -1   18    2     -0.85      0.00
    0   18    2     -2.96      0.00
    1   18    2     -1.81      0.00
    2   18    2      2.37      0.00
    3   18    2      3.75      0.00
    4   18    2      0.85      0.00
    5   18    2     -0.61      0.00
    6   18    2     -0.05      0.00
    7   18    2     -4.10      0.00
    8   18    2     -0.41      0.00
    9   18    2      2.58      0.00
   10   18    2      1.69      0.00
   11   18    2      0.93      0.00
   12   18    2     -1.33      0.00
   13   18    2      2.55      0.00
   14   18    2     -0.46      0.00
   15   18    2      0.11      0.00
   16   18    2     -1.53      0.00
   17   18    2     -2.02      0.00
   18   18    2      2.69      0.00
  -18   19    2     -0.88      0.00
  -17   19    2      1.25      0.00
  -16   19    2     -0.39      0.00
  -15   19    2      1.02      0.00
  -14   19    2     -0.01      0.00
  -13   19    2     -1.30      0.00
  -12   19    2      0.29      0.00
  -11   19    2      0.10      0.00
  -10   19    2     -1.38      0.00
   -9   19    2      2.50      0.00
   -8   19    2      0.02      0.00
   -7   19    2      0.62      0.00
   -6   19    2      0.06      0.00
   -5   19    2      0.68      0.00
   -4   19    2     -1.17      0.00
   -3   19    2     -0.99      0.00
   -2   19    2      2.89      0.00
   -1   19    2     -0.18      0.00
    0   19    2      0.16      0.00
    1   19    2     -1.08      0.00
    2   19    2     -2.44      0.00
    3   19    2      0.67      0.00
    4   19    2      1.00      0.00
    5   19    2      1.61      0.00
    6   19    2      1.93      0.00
    7   19    2     -1.09      0.00
    8   19    2     -0.13      0.00
    9   19    2      0.61      0.00
   10   19    2     -3.24      0.00
   11   19    2     -2.30      0.00
   12   19    2      2.01      0.00
   13   19    2      1.91      0.00
   14   19    2     -0.86      0.00
   15   19    2      1.68      0.00
   16   19    2      1.50      0.00
   17   19    2     -2.46      0.00
   18   19    2     -1.15      0.00
   19   19    2      1.58      0.00
  -19   20    2     -0.07      0.00
  -18   20    2      0.60      0.00
  -17   20    2      1.44      0.00
  -16   20    2     -3.04      0.00
  -15   20    2     -2.04      0.00
  -14   20    2      0.61      0.00
  -13   20    2     -0.37      0.00
  -12   20    2      0.17      0.00
  -11   20    2      0.54      0.00
  -10   20    2     -0.36      0.00
   -9   20    2     -0.34      0.00
   -8   20    2      0.66      0.00
   -7   20    2     -0.93      0.00
   -6   20    2      2.69      0.00
   -5   20    2      0.72      0.00
   -4   20    2      1.65      0.00
   -3   20    2     -2.32      0.00
   -2   20    2     -3.77      0.00
   -1   20    2      0.96      0.00
    0   20    2      1.82      0.00
    1   20    2      0.73      0.00
    2   20    2     -1.60      0.00
    3   20    2      0.74      0.00
    4   20    2      0.03      0.00
    5   20    2     -2.62      0.00
    6   20    2      0.49      0.00
    7   20    2      1.70      0.00
    8   20    2      1.34      0.00
    9   20    2      0.65      0.00
   10   20    2      1.15      0.00
   11   20    2      2.01      0.00
   12   20    2     -2.20      0.00
   13   20    2     -1.17      0.00
   14   20    2     -1.11      0.00
   15   20    2      1.09      0.00
   16   20    2      2.63      0.00
   17   20    2     -0.25      0.00
   18   20    2     -2.14      0.00
   19   20    2      1.72      0.00
   20   20    2     -1.32      0.00
  -20   21    2     -2.09      0.00
  -19   21    2     -2.36      0.00
  -18   21    2      2.41      0.00
  -17   21    2      1.56      0.00
  -16   21    2      1.97      0.00
  -15   21    2     -1.45      0.00
  -14   21    2     -0.66      0.00
  -13   21    2     -2.31      0.00
  -12   21    2     -0.95      0.00
  -11   21    2     -1.89      0.00
  -10   21    2     -0.76      0.00
   -9   21    2      1.07      0.00
   -8   21    2     -1.08      0.00
   -7   21    2     -1.25      0.00
   -6   21    2      2.10      0.00
   -5   21    2      2.45      0.00
   -4   21    2     -1.85      0.00
   -3   21    2      1.89      0.00
   -2   21    2      0.64      0.00
   -1   21    2      0.11      0.00
    0   21    2     -0.95      0.00
    1   21    2     -1.79      0.00
    2   21    2     -0.65      0.00
    3   21    2      0.64      0.00
    4   21    2      0.12      0.00
    5   21    2     -0.04      0.00
    6   21    2      0.58      0.00
    7   21    2     -1.29      0.00
    8   21    2     -3.34      0.00
    9   21    2     -0.59      0.00
   10   21    2      1.47      0.00
   11   21    2      1.96      0.00
   12   21    2     -0.53      0.00
   13   21    2     -0.11      0.00
   14   21    2      1.30      0.00
   15   21    2     -0.15      0.00
   16   21    2      0.17      0.00
   17   21    2      0.89      0.00
   18   21    2      0.37      0.00
   19   21    2     -0.53      0.00
   20   21    2      2.25      0.00
   21   21    2      0.95      0.00
  -21   22    2     -0.93      0.00
  -20   22    2      3.15      0.00
  -19   22    2      0.98      0.00
  -18   22    2     -1.64      0.00
  -17   22    2     -0.31      0.00
  -16   22    2      0.35      0.00
  -15   22    2      2.79      0.00
  -14   22    2      2.15      0.00
  -13   22    2      2.09      0.00
  -12   22    2     -0.82      0.00
  -11   22    2      0.59      0.00
  -10   22    2     -3.23      0.00
   -9   22    2     -0.44      0.00
   -8   22    2      0.16      0.00
   -7   22    2     -2.68      0.00
   -6   22    2     -2.03      0.00
   -5   22    2      3.35      0.00
   -4   22    2      0.14      0.00
   -3   22    2     -1.98      0.00
   -2   22    2      3.58      0.00
   -1   22    2      0.25      0.00
    0   22    2     -2.52      0.00
    1   22    2      1.13      0.00
    2   22    2      2.07      0.00
    3   22    2     -1.28      0.00
    4   22    2     -1.27      0.00
    5   22    2     -0.70      0.00
    6   22    2      1.63      0.00
    7   22    2      1.08      0.00
    8   22    2     -1.18      0.00
    9   22    2     -0.34      0.00
   10   22    2      0.51      0.00
   11   22    2     -1.94      0.00
   12   22    2     -1.40      0.00
   13   22    2      0.56      0.00
   14   22    2     -0.05      0.00
   15   22    2     -0.74      0.00
   16   22    2     -1.56      0.00
   17   22    2      0.51      0.00
   18   22    2      2.77      0.00
   19   22    2     -3.40      0.00
   20   22    2     -2.86      0.00
   21   22    2      5.29      0.00
   22   22    2      3.61      0.00
  -22   23    2      0.02      0.00
  -21   23    2      2.74      0.00
  -20   23    2     -0.23      0.00
  -19   23    2     -1.24      0.00
  -18   23    2     -1.69      0.00
  -17   23    2      2.59      0.00
  -16   23    2     -1.60      0.00
  -15   23    2     -2.71      0.00
  -14   23    2      1.08      0.00
  -13   23    2      1.53      0.00
  -12   23    2      1.24      0.00
  -11   23    2      2.96      0.00
  -10   23    2      0.10      0.00
   -9   23    2     -2.22      0.00
   -8   23    2      2.80      0.00
   -7   23    2      0.52      0.00
   -6   23    2     -3.35      0.00
   -5   23    2     -1.64      0.00
   -4   23    2      3.32      0.00
   -3   23    2     -1.29      0.00
   -2   23    2      0.22      0.00
   -1   23    2      2.13      0.00
    0   23    2     -0.93      0.00
    1   23    2     -1.06      0.00
    2   23    2      1.17      0.00
    3   23    2      1.42      0.00
    4   23    2      0.13      0.00
    5   23    2     -0.78      0.00
    6   23    2     -3.28      0.00
    7   23    2     -1.07      0.00
    8   23    2      2.44      0.00
    9   23    2      0.60      0.00
   10   23    2     -1.23      0.00
   11   23    2      1.55      0.00
   12   23    2      0.59      0.00
   13   23    2     -0.68      0.00
   14   23    2     -0.36      0.00
   15   23    2      0.46      0.00
   16   23    2     -0.78      0.00
   17   23    2     -2.45      0.00
   18   23    2      1.26      0.00
   19   23    2      0.37      0.00
   20   23    2     -3.66      0.00
   21   23    2     -4.96      0.00
   22   23    2      0.84      0.00
   23   23    2      3.50      0.00
  -23   24    2     -4.44      0.00
  -22   24    2      2.32      0.00
  -21   24    2     -0.36      0.00
  -20   24    2      0.27      0.00
  -19   24    2     -0.49      0.00
  -18   24    2     -2.37      0.00
  -17   24    2      0.30      0.00
  -16   24    2      3.24      0.00
  -15   24    2     -0.03      0.00
  -14   24    2     -2.19      0.00
  -13   24    2     -2.31      0.00
  -12   24    2     -2.12      0.00
  -11   24    2      1.24      0.00
  -10   24    2      2.04      0.00
   -9   24    2     -0.51      0.00
   -8   24    2     -0.56      0.00
   -7   24    2     -1.05      0.00
   -6   24    2      0.98      0.00
   -5   24    2     -0.60      0.00
   -4   24    2      0.63      0.00
   -3   24    2      0.36      0.00
   -2   24    2     -3.33      0.00
   -1   24    2      1.90      0.00
    0   24    2      0.45      0.00
    1   24    2      0.32      0.00
    2   24    2      0.83      0.00
    3   24    2      3.28      0.00
    4   24    2      1.85      0.00
    5   24    2     -0.71      0.00
    6   24    2      1.03      0.00
    7   24    2     -2.22      0.00
    8   24    2     -0.87      0.00
    9   24    2      0.85      0.00
   10   24    2     -1.92      0.00
   11   24    2     -0.62      0.00
   12   24    2      1.56      0.00
   13   24    2     -1.93      0.00
   14   24    2      0.41      0.00
   15   24    2      2.82      0.00
   16   24    2      3.13      0.00
   17   24    2     -2.43      0.00
   18   24    2     -2.70      0.00
   19   24    2      1.05      0.00
   20   24    2      0.47      0.00
   21   24    2     -1.83      0.00
   22   24    2     -1.04      0.00
   23   24    2     -4.25      0.00
   24   24    2     -3.46      0.00
  -24   25    2      5.70      0.00
  -23   25    2     -0.56      0.00
  -22   25    2     -0.05      0.00
  -21   25    2     -1.05      0.00
  -20   25    2     -2.53      0.00
  -19   25    2      2.18      0.00
  -18   25    2      0.42      0.00
  -17   25    2     -0.25      0.00
  -16   25    2     -2.21      0.00
  -15   25    2      1.09      0.00
  -14   25    2      3.24      0.00
  -13   25    2      1.56      0.00
  -12   25    2     -1.50      0.00
  -11   25    2     -1.21      0.00
  -10   25    2      0.79      0.00
   -9   25    2     -2.77      0.00
   -8   25    2      1.57      0.00
   -7   25    2      1.73      0.00
   -6   25    2     -2.39      0.00
   -5   25    2     -1.09      0.00
   -4   25    2     -1.48      0.00
   -3   25    2      1.69      0.00
   -2   25    2     -1.70      0.00
   -1   25    2      0.64      0.00
    0   25    2      0.97      0.00
    1   25    2     -6.09      0.00
    2   25    2     -2.12      0.00
    3   25    2     -0.75      0.00
    4   25    2      4.56      0.00
    5   25    2      1.70      0.00
    6   25    2      2.14      0.00
    7   25    2      2.94      0.00
    8   25    2     -0.55      0.00
    9   25    2     -1.60      0.00
   10   25    2      0.37      0.00
   11   25    2      0.13      0.00
   12   25    2      0.14      0.00
   13   25    2     -0.70      0.00
   14   25    2     -1.87      0.00
   15   25    2      2.40      0.00
   16   25    2      0.26      0.00
   17   25    2      0.20      0.00
   18   25    2      1.58      0.00
   19   25    2      3.45      0.00
   20   25    2     -0.85      0.00
   21   25    2     -4.86      0.00
   22   25    2      1.95      0.00
   23   25    2      2.04      0.00
   24   25    2     -6.21      0.00
  -23   26    2      0.82      0.00
  -22   26    2     -4.94      0.00
  -21   26    2      3.01      0.00
  -20   26    2      2.57      0.00
  -19   26    2     -2.82      0.00
  -18   26    2     -1.33      0.00
  -17   26    2      2.83      0.00
  -16   26    2      0.72      0.00
  -15   26    2     -4.96      0.00
  -14   26    2     -1.20      0.00
  -13   26    2      0.67      0.00
  -12   26    2      3.18      0.00
  -11   26    2      2.66      0.00
  -10   26    2      2.10      0.00
   -9   26    2     -3.01      0.00
   -8   26    2     -3.06      0.00
   -7   26    2      4.16      0.00
   -6   26    2      0.97      0.00
   -5   26    2      0.47      0.00
   -4   26    2     -0.29      0.00
   -3   26    2     -3.37      0.00
   -2   26    2      0.47      0.00
   -1   26    2      0.67      0.00
    0   26    2      5.71      0.00
    1   26    2     -0.90      0.00
    2   26    2     -3.93      0.00
    3   26    2     -3.38      0.00
    4   26    2     -4.38      0.00
    5   26    2     -0.23      0.00
    6   26    2      1.15      0.00
    7   26    2      1.70      0.00
    8   26    2     -0.81      0.00
    9   26    2      2.44      0.00
   10   26    2     -0.55      0.00
   11   26    2      0.53      0.00
   12   26    2     -0.80      0.00
   13   26    2      1.75      0.00
   14   26    2     -3.03      0.00
   15   26    2     -1.27      0.00
   16   26    2      3.10      0.00
   17   26    2     -2.30      0.00
   18   26    2      0.99      0.00
   19   26    2      0.33      0.00
   20   26    2      4.20      0.00
   21   26    2      1.40      0.00
   22   26    2     -4.84      0.00
   23   26    2      2.15      0.00
  -22   27    2      1.93      0.00
  -21   27    2     -1.10      0.00
  -20   27    2      0.62      0.00
  -19   27    2     -0.88      0.00
  -18   27    2     -2.55      0.00
  -17   27    2      1.05      0.00
  -16   27    2      3.48      0.00
  -15   27    2      0.81      0.00
  -14   27    2     -0.58      0.00
  -13   27    2     -2.75      0.00
  -12   27    2     -3.26      0.00
  -11   27    2     -0.14      0.00
  -10   27    2      1.16      0.00
   -9   27    2      2.69      0.00
   -8   27    2      0.18      0.00
   -7   27    2     -0.78      0.00
   -6   27    2      0.63      0.00
   -5   27    2      0.10      0.00
   -4   27    2      1.07      0.00
   -3   27    2     -0.57      0.00
   -2   27    2      0.08      0.00
   -1   27    2     -1.78      0.00
    0   27    2     -0.82      0.00
    1   27    2      5.31      0.00
    2   27    2      0.75      0.00
    3   27    2      0.91      0.00
    4   27    2     -0.80      0.00
    5   27    2     -1.12      0.00
    6   27    2     -2.82      0.00
    7   27    2      0.47      0.00
    8   27    2     -3.56      0.00
    9   27    2      2.25      0.00
   10   27    2      3.73      0.00
   11   27    2     -2.18      0.00
   12   27    2      1.11      0.00
   13   27    2     -0.67      0.00
   14   27    2     -1.41      0.00
   15   27    2     -4.51      0.00
   16   27    2      7.27      0.00
   17   27    2      1.48      0.00
   18   27    2     -4.63      0.00
   19   27    2     -1.76      0.00
   20   27    2     -3.97      0.00
   21   27    2      6.28      0.00
   22   27    2      2.07      0.00
  -21   28    2      1.43      0.00
  -20   28    2     -0.63      0.00
  -19   28    2      2.31      0.00
  -18   28    2     -3.53      0.00
  -17   28    2     -2.51      0.00
  -16   28    2      1.61      0.00
  -15   28    2     -0.18      0.00
  -14   28    2      3.29      0.00
  -13   28    2      3.12      0.00
  -12   28    2     -2.07      0.00
  -11   28    2     -2.01      0.00
  -10   28    2      0.90      0.00
   -9   28    2      0.66      0.00
   -8   28    2     -2.68      0.00
   -7   28    2     -1.60      0.00
   -6   28    2      2.00      0.00
   -5   28    2      1.69      0.00
   -4   28    2      0.42      0.00
   -3   28    2      0.42      0.00
   -2   28    2     -0.72      0.00
   -1   28    2     -0.80      0.00
    0   28    2     -1.65      0.00
    1   28    2      3.00      0.00
    2   28    2      1.41      0.00
    3   28    2     -0.89      0.00
    4   28    2     -0.96      0.00
    5   28    2      0.53      0.00
    6   28    2     -2.55      0.00
    7   28    2     -0.31      0.00
    8   28    2      4.57      0.00
    9   28    2     -4.50      0.00
   10   28    2     -0.53      0.00
   11   28    2      0.55      0.00
   12   28    2      2.21      0.00
   13   28    2     -0.01      0.00
   14   28    2      0.50      0.00
   15   28    2     -1.75      0.00
   16   28    2     -1.53      0.00
   17   28    2      5.31      0.00
   18   28    2     -2.94      0.00
   19   28    2      3.43      0.00
   20   28    2      0.97      0.00
   21   28    2     -4.81      0.00
  -19   29    2      5.67      0.00
  -18   29    2     -0.03      0.00
  -17   29    2     -6.40      0.00
  -16   29    2      1.42      0.00
  -15   29    2      0.70      0.00
  -14   29    2     -3.61      0.00
  -13   29    2      0.91      0.00
  -12   29    2      1.06      0.00
  -11   29    2      0.00      0.00
  -10   29    2      1.24      0.00
   -9   29    2      3.33      0.00
   -8   29    2      0.06      0.00
   -7   29    2     -3.64      0.00
   -6   29    2     -0.36      0.00
   -5   29    2      0.84      0.00
   -4   29    2      0.51      0.00
   -3   29    2     -0.38      0.00
   -2   29    2     -2.24      0.00
   -1   29    2      1.30      0.00
    0   29    2     -0.44      0.00
    1   29    2      0.78      0.00
    2   29    2      3.39      0.00
    3   29    2      2.96      0.00
    4   29    2      1.43      0.00
    5   29    2     -2.28      0.00
    6   29    2     -1.05      0.00
    7   29    2     -2.08      0.00
    8   29    2      2.05      0.00
    9   29    2      1.00      0.00
   10   29    2     -3.05      0.00
   11   29    2     -2.48      0.00
   12   29    2      0.50      0.00
   13   29    2      2.22      0.00
   14   29    2     -0.13      0.00
   15   29    2     -1.62      0.00
   16   29    2     -5.23      0.00
   17   29    2      3.06      0.00
   18   29    2      2.66      0.00
   19   29    2     -3.30      0.00
  -18   30    2      0.77      0.00
  -17   30    2      0.70      0.00
  -16   30    2      0.61      0.00
  -15   30    2     -0.55      0.00
  -14   30    2     -1.67      0.00
  -13   30    2      1.18      0.00
  -12   30    2     -1.35      0.00
  -11   30    2     -2.73      0.00
  -10   30    2      0.99      0.00
   -9   30    2     -2.79      0.00
   -8   30    2      1.44      0.00
   -7   30    2      3.40      0.00
   -6   30    2     -2.02      0.00
   -5   30    2      2.72      0.00
   -4   30    2      0.71      0.00
   -3   30    2     -2.61      0.00
   -2   30    2     -2.33      0.00
   -1   30    2      0.12      0.00
    0   30    2     -1.91      0.00
    1   30    2     -2.20      0.00
    2   30    2      1.96      0.00
    3   30    2     -0.71      0.00
    4   30    2      1.95      0.00
    5   30    2      4.02      0.00
    6   30    2      3.22      0.00
    7   30    2     -1.07      0.00
    8   30    2     -3.41      0.00
    9   30    2     -0.31      0.00
   10   30    2      5.34      0.00
   11   30    2     -0.93      0.00
   12   30    2     -0.12      0.00
   13   30    2      4.70      0.00
   14   30    2     -2.95      0.00
   15   30    2     -3.18      0.00
   16   30    2     -1.36      0.00
   17   30    2      0.00      0.00
   18   30    2      3.20      0.00
  -16   31    2      1.85      0.00
  -15   31    2     -0.85      0.00
  -14   31    2      0.00      0.00
  -13   31    2      1.31      0.00
  -12   31    2      1.02      0.00
  -11   31    2     -2.75      0.00
  -10   31    2     -0.34      0.00
   -9   31    2      1.75      0.00
   -8   31    2     -0.98      0.00
   -7   31    2      2.91      0.00
   -6   31    2     -6.50      0.00
   -5   31    2     -2.06      0.00
   -4   31    2      7.79      0.00
   -3   31    2     -0.54      0.00
   -2   31    2     -1.09      0.00
   -1   31    2     -0.72      0.00
    0   31    2     -2.17      0.00
    1   31    2     -3.53      0.00
    2   31    2      1.87      0.00
    3   31    2      0.72      0.00
    4   31    2     -1.18      0.00
    5   31    2     -0.32      0.00
    6   31    2      1.82      0.00
    7   31    2     -0.44      0.00
    8   31    2      0.71      0.00
    9   31    2     -3.23      0.00
   10   31    2     -3.40      0.00
   11   31    2      3.19      0.00
   12   31    2     -2.94      0.00
   13   31    2      4.61      0.00
   14   31    2      4.79      0.00
   15   31    2      1.14      0.00
   16   31    2     -0.77      0.00
  -14   32    2      0.58      0.00
  -13   32    2     -2.85      0.00
  -12   32    2      1.63      0.00
  -11   32    2      3.84      0.00
  -10   32    2     -4.50      0.00
   -9   32    2     -0.32      0.00
   -8   32    2     -1.37      0.00
   -7   32    2      2.10      0.00
   -6   32    2      6.10      0.00
   -5   32    2     -4.98      0.00
   -4   32    2      5.12      0.00
   -3   32    2      3.00      0.00
   -2   32    2     -5.72      0.00
   -1   32    2     -0.84      0.00
    0   32    2     -1.23      0.00
    1   32    2     -4.50      0.00
    2   32    2     -1.04      0.00
    3   32    2      3.05      0.00
    4   32    2     -0.58      0.00
    5   32    2     -0.43      0.00
    6   32    2      3.94      0.00
    7   32    2      1.47      0.00
    8   32    2      0.53      0.00
    9   32    2      6.54      0.00
   10   32    2     -5.62      0.00
   11   32    2     -4.26      0.00
   12   32    2     -6.41      0.00
   13   32    2     -5.05      0.00
   14   32    2      7.68      0.00
  -12   33    2     -0.81      0.00
  -11   33    2     -0.13      0.00
  -10   33    2      2.02      0.00
   -9   33    2      1.70      0.00
   -8   33    2     -3.84      0.00
   -7   33    2     -8.56      0.00
   -6   33    2      3.46      0.00
   -5   33    2     -1.73      0.00
   -4   33    2      2.32      0.00
   -3   33    2     15.32      0.00
   -2   33    2     -1.61      0.00
   -1   33    2      0.59      0.00
    0   33    2      2.96      0.00
    1   33    2     -6.39      0.00
    2   33    2     -4.03      0.00
    3   33    2     -2.42      0.00
    4   33    2     -2.80      0.00
    5   33    2     -5.80      0.00
    6   33    2      0.47      0.00
    7   33    2      6.36      0.00
    8   33    2     -3.17      0.00
    9   33    2      6.69      0.00
   10   33    2      9.10      0.00
   11   33    2     -3.45      0.00
   12   33    2      0.35      0.00
   -9   34    2      1.52      0.00
   -8   34    2      6.22      0.00
   -7   34    2      0.53      0.00
   -6   34    2     -4.84      0.00
   -5   34    2     -7.32      0.00
   -4   34    2    -12.57      0.00
   -3   34    2      6.08      0.00
   -2   34    2      8.53      0.00
   -1   34    2     -0.09      0.00
    0   34    2     11.92      0.00
    1   34    2      1.85      0.00
    2   34    2     -1.64      0.00
    3   34    2      0.17      0.00
    4   34    2      0.68      0.00
    5   34    2     -0.69      0.00
    6   34    2    -12.76      0.00
    7   34    2     -0.24      0.00
    8   34    2      0.84      0.00
    9   34    2     -6.59      0.00
   -3   35    2    -10.07      0.00
   -2   35    2      4.81      0.00
   -1   35    2     -5.65      0.00
    0   35    2     -2.54      0.00
    1   35    2      7.04      0.00
    2   35    2     -0.66      0.00
    3   35    2      7.41      0.00
    0    0    3      0.17      0.00
    0    1    3      7.33      0.00
    1    1    3      6.37      0.00
   -1    2    3     33.17      0.00
    0    2    3     11.98      0.00
    1    2    3      8.69      0.00
    2    2    3     -4.61      0.00
   -2    3    3    -14.91      0.00
   -1    3    3      2.65      0.00
    0    3    3      2.20      0.00
    1    3    3      8.53      0.00
    2    3    3     13.01      0.00
    3    3    3     12.48      0.00
   -3    4    3      8.15      0.00
   -2    4    3    -10.82      0.00
   -1    4    3     -5.37      0.00
    0    4    3    -10.77      0.00
    1    4    3      9.01      0.00
    2    4    3      5.02      0.00
    3    4    3     -6.42      0.00
    4    4    3      6.17      0.00
   -4    5    3    -10.38      0.00
   -3    5    3      7.72      0.00
   -2    5    3     -4.17      0.00
   -1    5    3     -5.75      0.00
    0    5    3      4.35      0.00
    1    5    3     -0.94      0.00
    2    5    3     14.08      0.00
    3    5    3      1.40      0.00
    4    5    3     -3.11      0.00
    5    5    3     -5.19      0.00
   -5    6    3      5.59      0.00
   -4    6    3      3.20      0.00
   -3    6    3     -2.37      0.00
   -2    6    3      1.48      0.00
   -1    6    3    -12.33      0.00
    0    6    3     -7.70      0.00
    1    6    3     -1.75      0.00
    2    6    3      3.80      0.00
    3    6    3      8.07      0.00
    4    6    3      5.79      0.00
    5    6    3     -3.17      0.00
    6    6    3     -0.77      0.00
   -6    7    3     -0.08      0.00
   -5    7    3     -3.09      0.00
   -4    7    3      2.91      0.00
   -3    7    3      7.29      0.00
   -2    7    3      3.62      0.00
   -1    7    3      1.94      0.00
    0    7    3     -1.16      0.00
    1    7    3     -9.64      0.00
    2    7    3     -2.58      0.00
    3    7    3     -3.19      0.00
    4    7    3      5.59      0.00
    5    7    3      5.89      0.00
    6    7    3     -6.67      0.00
    7    7    3      1.79      0.00
   -7    8    3      3.39      0.00
   -6    8    3     -4.33      0.00
   -5    8    3      0.55      0.00
   -4    8    3     -1.17      0.00
   -3    8    3     -5.17      0.00
   -2    8    3      3.05      0.00
   -1    8    3      2.12      0.00
    0    8    3      6.96      0.00
    1    8    3     -3.12      0.00
    2    8    3     -6.48      0.00
    3    8    3      4.87      0.00
    4    8    3     -0.55      0.00
    5    8    3      3.87      0.00
    6    8    3     -3.20      0.00
    7    8    3     -2.91      0.00
    8    8    3      1.16      0.00
   -8    9    3     -2.91      0.00
   -7    9    3     -0.63      0.00
   -6    9    3      4.15      0.00
   -5    9    3     -3.34      0.00
   -4    9    3      3.50      0.00
   -3    9    3     -0.49      0.00
   -2    9    3      0.09      0.00
   -1    9    3      1.59      0.00
    0    9    3     -1.72      0.00
    1    9    3      0.17      0.00
    2    9    3     -2.05      0.00
    3    9    3      1.33      0.00
    4    9    3      1.83      0.00
    5    9    3     -0.77      0.00
    6    9    3      1.38      0.00
    7    9    3      0.92      0.00
    8    9    3      1.87      0.00
    9    9    3     -4.48      0.00
   -9   10    3     -1.37      0.00
   -8   10    3      3.23      0.00
   -7   10    3     -7.97      0.00
   -6   10    3      1.75      0.00
   -5   10    3      3.66      0.00
   -4   10    3     -5.33      0.00
   -3   10    3      1.07      0.00
   -2   10    3      2.88      0.00
   -1   10    3     -2.94      0.00
    0   10    3      0.94      0.00
    1   10    3      4.51      0.00
    2   10    3     -1.54      0.00
    3   10    3     -2.21      0.00
    4   10    3     -1.56      0.00
    5   10    3      2.47      0.00
    6   10    3      0.66      0.00
    7   10    3     -2.23      0.00
    8   10    3      3.09      0.00
    9   10    3     -1.80      0.00
   10   10    3     -1.11      0.00
  -10   11    3      6.88      0.00
   -9   11    3      1.53      0.00
   -8   11    3     -0.54      0.00
   -7   11    3      1.88      0.00
   -6   11    3     -4.78      0.00
   -5   11    3      1.00      0.00
   -4   11    3      1.43      0.00
   -3   11    3     -4.16      0.00
   -2   11    3      0.66      0.00
   -1   11    3      1.91      0.00
    0   11    3     -4.07      0.00
    1   11    3      4.39      0.00
    2   11    3     -1.14      0.00
    3   11    3     -2.19      0.00
    4   11    3      1.73      0.00
    5   11    3      0.24      0.00
    6   11    3      3.85      0.00
    7   11    3     -1.88      0.00
    8   11    3     -2.29      0.00
    9   11    3      0.64      0.00
   10   11    3     -3.06      0.00
   11   11    3      2.45      0.00
  -11   12    3     -0.09      0.00
  -10   12    3     -3.87      0.00
   -9   12    3      3.18      0.00
   -8   12    3      2.22      0.00
   -7   12    3      1.14      0.00
   -6   12    3      2.74      0.00
   -5   12    3     -2.44      0.00
   -4   12    3     -1.33      0.00
   -3   12    3      2.39      0.00
   -2   12    3     -3.65      0.00
   -1   12    3      1.02      0.00
    0   12    3      0.44      0.00
    1   12    3     -2.41      0.00
    2   12    3      2.07      0.00
    3   12    3     -2.98      0.00
    4   12    3     -0.31      0.00
    5   12    3     -0.70      0.00
    6   12    3      1.90      0.00
    7   12    3      1.63      0.00
    8   12    3     -0.36      0.00
    9   12    3      2.35      0.00
   10   12    3     -0.72      0.00
   11   12    3      0.56      0.00
   12   12    3     -1.13      0.00
  -12   13    3     -3.01      0.00
  -11   13    3     -0.25      0.00
  -10   13    3      0.62      0.00
   -9   13    3     -4.08      0.00
   -8   13    3      3.97      0.00
   -7   13    3      1.11      0.00
   -6   13    3     -3.89      0.00
   -5   13    3      4.03      0.00
   -4   13    3      0.25      0.00
   -3   13    3     -0.72      0.00
   -2   13    3      2.95      0.00
   -1   13    3     -1.73      0.00
    0   13    3      0.10      0.00
    1   13    3      0.13      0.00
    2   13    3      0.03      0.00
    3   13    3     -1.57      0.00
    4   13    3     -2.14      0.00
    5   13    3      0.34      0.00
    6   13    3     -0.38      0.00
    7   13    3     -1.75      0.00
    8   13    3     -2.96      0.00
    9   13    3      3.87      0.00
   10   13    3     -1.81      0.00
   11   13    3      0.29      0.00
   12   13    3      3.48      0.00
   13   13    3     -1.43      0.00
  -13   14    3     -0.89      0.00
  -12   14    3     -0.42      0.00
  -11   14    3     -3.13      0.00
  -10   14    3     -0.23      0.00
   -9   14    3      0.54      0.00
   -8   14    3     -1.02      0.00
   -7   14    3      4.01      0.00
   -6   14    3     -2.16      0.00
   -5   14    3     -2.49      0.00
   -4   14    3      3.59      0.00
   -3   14    3     -1.75      0.00
   -2   14    3     -1.61      0.00
   -1   14    3      2.89      0.00
    0   14    3      1.26      0.00
    1   14    3      2.20      0.00
    2   14    3      0.79      0.00
    3   14    3     -1.33      0.00
    4   14    3      0.66      0.00
    5   14    3     -0.03      0.00
    6   14    3     -1.40      0.00
    7   14    3      3.25      0.00
    8   14    3     -1.97      0.00
    9   14    3     -1.78      0.00
   10   14    3      1.42      0.00
   11   14    3     -3.51      0.00
   12   14    3     -0.08      0.00
   13   14    3     -0.49      0.00
   14   14    3      1.57      0.00
  -14   15    3     -1.05      0.00
  -13   15    3      0.25      0.00
  -12   15    3      0.22      0.00
  -11   15    3      0.55      0.00
  -10   15    3     -2.50      0.00
   -9   15    3     -2.08      0.00
   -8   15    3     -0.05      0.00
   -7   15    3      0.68      0.00
   -6   15    3      1.83      0.00
   -5   15    3      0.62      0.00
   -4   15    3     -2.24      0.00
   -3   15    3     -0.25      0.00
   -2   15    3     -0.36      0.00
   -1   15    3     -1.93      0.00
    0   15    3      0.44      0.00
    1   15    3     -0.01      0.00
    2   15    3      1.82      0.00
    3   15    3      1.12      0.00
    4   15    3     -0.84      0.00
    5   15    3     -1.13      0.00
    6   15    3     -0.67      0.00
    7   15    3      3.31      0.00
    8   15    3      1.48      0.00
    9   15    3     -3.00      0.00
   10   15    3      1.05      0.00
   11   15    3      1.91      0.00
   12   15    3      1.71      0.00
   13   15    3     -0.01      0.00
   14   15    3     -1.26      0.00
   15   15    3     -2.15      0.00
  -15   16    3      1.84      0.00
  -14   16    3      0.38      0.00
  -13   16    3      1.56      0.00
  -12   16    3      2.83      0.00
  -11   16    3     -1.58      0.00
  -10   16    3     -1.29      0.00
   -9   16    3     -1.12      0.00
   -8   16    3     -2.31      0.00
   -7   16    3      1.24      0.00
   -6   16    3      0.56      0.00
   -5   16    3      0.46      0.00
   -4   16    3      1.29      0.00
   -3   16    3     -2.02      0.00
   -2   16    3      1.08      0.00
   -1   16    3     -0.72      0.00
    0   16    3     -0.85      0.00
    1   16    3      1.38      0.00
    2   16    3      0.32      0.00
    3   16    3      0.51      0.00
    4   16    3     -1.92      0.00
    5   16    3     -0.48      0.00
    6   16    3      0.32      0.00
    7   16    3      0.95      0.00
    8   16    3     -0.23      0.00
    9   16    3     -1.18      0.00
   10   16    3     -2.07      0.00
   11   16    3     -1.81      0.00
   12   16    3      3.35      0.00
   13   16    3      1.07      0.00
   14   16    3      0.83      0.00
   15   16    3      2.46      0.00
   16   16    3     -0.12      0.00
  -16   17    3     -2.60      0.00
  -15   17    3     -0.95      0.00
  -14   17    3      2.41      0.00
  -13   17    3      2.68      0.00
  -12   17    3      0.47      0.00
  -11   17    3      0.27      0.00
  -10   17    3      0.65      0.00
   -9   17    3      0.25      0.00
   -8   17    3     -1.59      0.00
   -7   17    3     -1.03      0.00
   -6   17    3      1.21      0.00
   -5   17    3     -1.72      0.00
   -4   17    3     -0.37      0.00
   -3   17    3      0.45      0.00
   -2   17    3     -0.48      0.00
   -1   17    3      0.56      0.00
    0   17    3     -2.48      0.00
    1   17    3      0.66      0.00
    2   17    3      2.35      0.00
    3   17    3     -0.19      0.00
    4   17    3     -0.25      0.00
    5   17    3      1.13      0.00
    6   17    3     -0.62      0.00
    7   17    3     -0.55      0.00
    8   17    3      2.66      0.00
    9   17    3     -1.11      0.00
   10   17    3      1.90      0.00
   11   17    3     -1.70      0.00
   12   17    3     -2.43      0.00
   13   17    3     -0.75      0.00
   14   17    3      0.67      0.00
   15   17    3      1.55      0.00
   16   17    3      0.37      0.00
   17   17    3      2.66      0.00
  -17   18    3     -1.09      0.00
  -16   18    3     -2.31      0.00
  -15   18    3     -0.46      0.00
  -14   18    3     -0.49      0.00
  -13   18    3      1.03      0.00
  -12   18    3      1.61      0.00
  -11   18    3      0.14      0.00
  -10   18    3      1.94      0.00
   -9   18    3      0.28      0.00
   -8   18    3     -1.46      0.00
   -7   18    3      1.61      0.00
   -6   18    3     -0.41      0.00
   -5   18    3      1.07      0.00
   -4   18    3      1.06      0.00
   -3   18    3     -2.03      0.00
   -2   18    3     -0.79      0.00
   -1   18    3      1.04      0.00
    0   18    3     -1.38      0.00
    1   18    3     -3.08      0.00
    2   18    3      2.04      0.00
    3   18    3      0.71      0.00
    4   18    3     -1.04      0.00
    5   18    3     -0.46      0.00
    6   18    3     -0.44      0.00
    7   18    3     -1.25      0.00
    8   18    3      1.52      0.00
    9   18    3      0.91      0.00
   10   18    3     -0.32      0.00
   11   18    3     -0.67      0.00
   12   18    3     -1.48      0.00
   13   18    3      2.04      0.00
   14   18    3     -1.01      0.00
   15   18    3      0.79      0.00
   16   18    3     -0.49      0.00
   17   18    3      0.85      0.00
   18   18    3      1.95      0.00
  -18   19    3      1.22      0.00
  -17   19    3      2.86      0.00
  -16   19    3     -0.14      0.00
  -15   19    3     -3.04      0.00
  -14   19    3     -2.40      0.00
  -13   19    3     -1.19      0.00
  -12   19    3      1.51      0.00
  -11   19    3      2.44      0.00
  -10   19    3     -0.98      0.00
   -9   19    3      1.88      0.00
   -8   19    3      0.63      0.00
   -7   19    3     -0.58      0.00
   -6   19    3      0.39      0.00
   -5   19    3     -1.61      0.00
   -4   19    3      2.38      0.00
   -3   19    3      1.79      0.00
   -2   19    3      0.74      0.00
   -1   19    3     -1.66      0.00
    0   19    3     -0.21      0.00
    1   19    3      0.68      0.00
    2   19    3     -0.38      0.00
    3   19    3      1.74      0.00
    4   19    3     -1.26      0.00
    5   19    3     -0.75      0.00
    6   19    3      0.28      0.00
    7   19    3      0.68      0.00
    8   19    3      0.62      0.00
    9   19    3      1.10      0.00
   10   19    3      0.02      0.00
   11   19    3     -2.36      0.00
   12   19    3     -2.59      0.00
   13   19    3      0.49      0.00
   14   19    3     -1.49      0.00
   15   19    3     -0.65      0.00
   16   19    3      2.62      0.00
   17   19    3     -2.37      0.00
   18   19    3     -1.01      0.00
   19   19    3      0.91      0.00
  -19   20    3     -2.19      0.00
  -18   20    3      0.42      0.00
  -17   20    3      2.70      0.00
  -16   20    3      1.25      0.00
  -15   20    3     -0.77      0.00
  -14   20    3     -1.60      0.00
  -13   20    3     -1.28      0.00
  -12   20    3     -0.62      0.00
  -11   20    3      0.99      0.00
  -10   20    3     -1.73      0.00
   -9   20    3     -2.70      0.00
   -8   20    3      3.16      0.00
   -7   20    3      1.23      0.00
   -6   20    3      0.29      0.00
   -5   20    3      1.30      0.00
   -4   20    3      0.60      0.00
   -3   20    3     -1.55      0.00
   -2   20    3     -0.70      0.00
   -1   20    3      1.80      0.00
    0   20    3     -0.85      0.00
    1   20    3      0.88      0.00
    2   20    3     -0.78      0.00
    3   20    3      0.68      0.00
    4   20    3      0.16      0.00
    5   20    3     -1.65      0.00
    6   20    3     -0.18      0.00
    7   20    3     -0.61      0.00
    8   20    3      3.16      0.00
    9   20    3      0.41      0.00
   10   20    3      0.95      0.00
   11   20    3      4.92      0.00
   12   20    3     -1.56      0.00
   13   20    3     -3.10      0.00
   14   20    3      1.64      0.00
   15   20    3     -2.04      0.00
   16   20    3     -1.93      0.00
   17   20    3      1.16      0.00
   18   20    3     -2.44      0.00
   19   20    3      2.62      0.00
   20   20    3     -4.19      0.00
  -20   21    3     -1.85      0.00
  -19   21    3     -3.27      0.00
  -18   21    3      0.99      0.00
  -17   21    3     -0.62      0.00
  -16   21    3      0.14      0.00
  -15   21    3      0.88      0.00
  -14   21    3     -2.33      0.00
  -13   21    3     -2.16      0.00
  -12   21    3      0.38      0.00
  -11   21    3      2.05      0.00
  -10   21    3      0.73      0.00
   -9   21    3     -3.33      0.00
   -8   21    3     -4.42      0.00
   -7   21    3      0.58      0.00
   -6   21    3      0.75      0.00
   -5   21    3     -0.76      0.00
   -4   21    3      2.74      0.00
   -3   21    3      1.27      0.00
   -2   21    3     -2.17      0.00
   -1   21    3      2.84      0.00
    0   21    3      1.36      0.00
    1   21    3     -1.60      0.00
    2   21    3     -0.31      0.00
    3   21    3      0.56      0.00
    4   21    3      1.27      0.00
    5   21    3     -1.22      0.00
    6   21    3     -1.22      0.00
    7   21    3     -2.55      0.00
    8   21    3     -1.21      0.00
    9   21    3      2.06      0.00
   10   21    3     -0.68      0.00
   11   21    3      3.02      0.00
   12   21    3      1.03      0.00
   13   21    3     -0.51      0.00
   14   21    3      1.90      0.00
   15   21    3      1.22      0.00
   16   21    3     -2.45      0.00
   17   21    3      2.72      0.00
   18   21    3     -1.53      0.00
   19   21    3     -1.33      0.00
   20   21    3      3.32      0.00
   21   21    3     -5.72      0.00
  -21   22    3     -2.84      0.00
  -20   22    3      3.31      0.00
  -19   22    3      0.88      0.00
  -18   22    3     -2.14      0.00
  -17   22    3      1.56      0.00
  -16   22    3      2.90      0.00
  -15   22    3      2.65      0.00
  -14   22    3     -1.66      0.00
  -13   22    3     -1.21      0.00
  -12   22    3     -0.68      0.00
  -11   22    3     -1.07      0.00
  -10   22    3      2.02      0.00
   -9   22    3      0.86      0.00
   -8   22    3     -2.05      0.00
   -7   22    3     -1.77      0.00
   -6   22    3      1.35      0.00
   -5   22    3     -2.39      0.00
   -4   22    3     -4.00      0.00
   -3   22    3      0.10      0.00
   -2   22    3     -0.24      0.00
   -1   22    3      0.33      0.00
    0   22    3      0.40      0.00
    1   22    3      0.84      0.00
    2   22    3      0.50      0.00
    3   22    3      0.75      0.00
    4   22    3      2.39      0.00
    5   22    3     -0.36      0.00
    6   22    3     -1.03      0.00
    7   22    3     -0.18      0.00
    8   22    3     -3.05      0.00
    9   22    3      0.96      0.00
   10   22    3      0.63      0.00
   11   22    3     -1.84      0.00
   12   22    3      2.51      0.00
   13   22    3      0.38      0.00
   14   22    3     -0.68      0.00
   15   22    3     -0.35      0.00
   16   22    3      0.72      0.00
   17   22    3      1.32      0.00
   18   22    3      5.03      0.00
   19   22    3     -5.68      0.00
   20   22    3     -0.15      0.00
   21   22    3      4.90      0.00
   22   22    3      0.12      0.00
  -22   23    3     -1.19      0.00
  -21   23    3      4.76      0.00
  -20   23    3     -1.24      0.00
  -19   23    3     -0.05      0.00
  -18   23    3     -1.01      0.00
  -17   23    3     -1.88      0.00
  -16   23    3     -0.41      0.00
  -15   23    3      1.21      0.00
  -14   23    3      2.88      0.00
  -13   23    3      0.37      0.00
  -12   23    3     -0.55      0.00
  -11   23    3      1.09      0.00
  -10   23    3      2.58      0.00
   -9   23    3      0.45      0.00
   -8   23    3     -1.28      0.00
   -7   23    3      0.00      0.00
   -6   23    3     -0.66      0.00
   -5   23    3      0.85      0.00
   -4   23    3      1.59      0.00
   -3   23    3      0.57      0.00
   -2   23    3     -2.10      0.00
   -1   23    3     -1.26      0.00
    0   23    3     -2.42      0.00
    1   23    3     -2.59      0.00
    2   23    3      0.98      0.00
    3   23    3      0.15      0.00
    4   23    3      1.17      0.00
    5   23    3      1.16      0.00
    6   23    3     -0.52      0.00
    7   23    3     -0.91      0.00
    8   23    3     -0.80      0.00
    9   23    3     -2.18      0.00
   10   23    3      0.16      0.00
   11   23    3     -1.41      0.00
   12   23    3      1.82      0.00
   13   23    3     -0.31      0.00
   14   23    3     -1.34      0.00
   15   23    3      3.33      0.00
   16   23    3     -1.51      0.00
   17   23    3     -2.92      0.00
   18   23    3      1.92      0.00
   19   23    3      4.73      0.00
   20   23    3     -2.39      0.00
   21   23    3      0.54      0.00
   22   23    3      0.59      0.00
   23   23    3      1.66      0.00
  -23   24    3     -0.51      0.00
  -22   24    3     -6.29      0.00
  -21   24    3      4.61      0.00
  -20   24    3      3.70      0.00
  -19   24    3     -2.84      0.00
  -18   24    3      2.50      0.00
  -17   24    3     -0.22      0.00
  -16   24    3     -1.83      0.00
  -15   24    3      1.62      0.00
  -14   24    3     -1.14      0.00
  -13   24    3     -0.22      0.00
  -12   24    3     -3.28      0.00
  -11   24    3     -2.60      0.00
  -10   24    3      3.63      0.00
   -9   24    3      4.78      0.00
   -8   24    3      0.94      0.00
   -7   24    3     -1.76      0.00
   -6   24    3     -0.31      0.00
   -5   24    3     -1.03      0.00
   -4   24    3     -0.64      0.00
   -3   24    3      2.31      0.00
   -2   24    3      0.54      0.00
   -1   24    3      0.26      0.00
    0   24    3      2.46      0.00
    1   24    3     -0.38      0.00
    2   24    3     -0.64      0.00
    3   24    3     -1.26      0.00
    4   24    3     -0.22      0.00
    5   24    3      0.54      0.00
    6   24    3      1.96      0.00
    7   24    3      0.01      0.00
    8   24    3      0.28      0.00
    9   24    3     -1.15      0.00
   10   24    3     -2.43      0.00
   11   24    3      1.45      0.00
   12   24    3     -2.46      0.00
   13   24    3     -1.22      0.00
   14   24    3     -2.58      0.00
   15   24    3      2.21      0.00
   16   24    3      3.33      0.00
   17   24    3     -2.80      0.00
   18   24    3     -4.45      0.00
   19   24    3      0.58      0.00
   20   24    3      6.18      0.00
   21   24    3     -4.05      0.00
   22   24    3      1.66      0.00
   23   24    3      5.77      0.00
   24   24    3     -1.11      0.00
  -24   25    3     -5.13      0.00
  -23   25    3      4.25      0.00
  -22   25    3     -0.07      0.00
  -21   25    3     -7.67      0.00
  -20   25    3      2.76      0.00
  -19   25    3      1.85      0.00
  -18   25    3     -2.41      0.00
  -17   25    3      2.65      0.00
  -16   25    3     -0.34      0.00
  -15   25    3      2.33      0.00
  -14   25    3      1.44      0.00
  -13   25    3     -0.89      0.00
  -12   25    3      2.57      0.00
  -11   25    3     -4.84      0.00
  -10   25    3     -2.36      0.00
   -9   25    3      1.16      0.00
   -8   25    3      0.51      0.00
   -7   25    3      1.53      0.00
   -6   25    3      1.52      0.00
   -5   25    3      0.91      0.00
   -4   25    3     -1.02      0.00
   -3   25    3     -0.84      0.00
   -2   25    3     -0.79      0.00
   -1   25    3     -2.84      0.00
    0   25    3      0.47      0.00
    1   25    3      2.23      0.00
    2   25    3      2.07      0.00
    3   25    3     -3.51      0.00
    4   25    3     -0.48      0.00
    5   25    3      2.16      0.00
    6   25    3     -0.49      0.00
    7   25    3      2.71      0.00
    8   25    3      0.54      0.00
    9   25    3      1.16      0.00
   10   25    3     -0.75      0.00
   11   25    3      0.19      0.00
   12   25    3      0.40      0.00
   13   25    3     -1.25      0.00
   14   25    3      1.50      0.00
   15   25    3     -3.97      0.00
   16   25    3      0.28      0.00
   17   25    3      0.81      0.00
   18   25    3      0.54      0.00
   19   25    3     -1.58      0.00
   20   25    3     -1.68      0.00
   21   25    3     -1.29      0.00
   22   25    3     -0.61      0.00
   23   25    3      6.61      0.00
   24   25    3      1.50      0.00
  -22   26    3      1.19      0.00
  -21   26    3     -3.03      0.00
  -20   26    3     -2.20      0.00
  -19   26    3     -2.09      0.00
  -18   26    3     -2.72      0.00
  -17   26    3      2.44      0.00
  -16   26    3      1.21      0.00
  -15   26    3     -3.08      0.00
  -14   26    3      2.14      0.00
  -13   26    3     -0.47      0.00
  -12   26    3      0.55      0.00
  -11   26    3      1.85      0.00
  -10   26    3     -0.79      0.00
   -9   26    3      0.53      0.00
   -8   26    3     -1.54      0.00
   -7   26    3      0.02      0.00
   -6   26    3      2.75      0.00
   -5   26    3     -0.12      0.00
   -4   26    3      0.30      0.00
   -3   26    3      0.29      0.00
   -2   26    3      0.53      0.00
   -1   26    3      0.69      0.00
    0   26    3      0.83      0.00
    1   26    3     -1.94      0.00
    2   26    3      1.90      0.00
    3   26    3      1.87      0.00
    4   26    3     -5.79      0.00
    5   26    3      0.30      0.00
    6   26    3     -0.07      0.00
    7   26    3     -0.43      0.00
    8   26    3      0.80      0.00
    9   26    3      0.73      0.00
   10   26    3      2.05      0.00
   11   26    3     -2.13      0.00
   12   26    3      1.59      0.00
   13   26    3      1.44      0.00
   14   26    3     -1.57      0.00
   15   26    3      0.00      0.00
   16   26    3     -2.86      0.00
   17   26    3      1.24      0.00
   18   26    3      0.08      0.00
   19   26    3     -0.36      0.00
   20   26    3     -1.60      0.00
   21   26    3     -0.20      0.00
   22   26    3     -2.35      0.00
  -21   27    3      3.11      0.00
  -20   27    3      2.26      0.00
  -19   27    3     -1.64      0.00
  -18   27    3     -4.16      0.00
  -17   27    3     -1.72      0.00
  -16   27    3     -0.79      0.00
  -15   27    3      0.98      0.00
  -14   27    3      0.13      0.00
  -13   27    3     -0.64      0.00
  -12   27    3      1.29      0.00
  -11   27    3     -1.47      0.00
  -10   27    3     -4.79      0.00
   -9   27    3     -2.90      0.00
   -8   27    3      3.91      0.00
   -7   27    3      0.95      0.00
   -6   27    3     -2.15      0.00
   -5   27    3      2.45      0.00
   -4   27    3      1.12      0.00
   -3   27    3     -1.04      0.00
   -2   27    3     -0.04      0.00
   -1   27    3     -1.30      0.00
    0   27    3     -0.85      0.00
    1   27    3      0.63      0.00
    2   27    3      0.05      0.00
    3   27    3      6.60      0.00
    4   27    3      0.40      0.00
    5   27    3     -1.91      0.00
    6   27    3      0.67      0.00
    7   27    3     -2.54      0.00
    8   27    3     -0.15      0.00
    9   27    3      1.90      0.00
   10   27    3      0.62      0.00
   11   27    3      0.08      0.00
   12   27    3      0.46      0.00
   13   27    3      4.88      0.00
   14   27    3     -3.11      0.00
   15   27    3     -1.63      0.00
   16   27    3      3.59      0.00
   17   27    3      0.06      0.00
   18   27    3      0.10      0.00
   19   27    3     -5.93      0.00
   20   27    3     -0.07      0.00
   21   27    3      2.24      0.00
  -20   28    3      0.29      0.00
  -19   28    3      8.30      0.00
  -18   28    3      0.55      0.00
  -17   28    3     -2.90      0.00
  -16   28    3     -0.10      0.00
  -15   28    3     -0.91      0.00
  -14   28    3      2.11      0.00
  -13   28    3     -2.03      0.00
  -12   28    3      2.73      0.00
  -11   28    3      3.74      0.00
  -10   28    3     -1.27      0.00
   -9   28    3     -1.58      0.00
   -8   28    3     -5.64      0.00
   -7   28    3     -0.52      0.00
   -6   28    3     -0.09      0.00
   -5   28    3     -2.21      0.00
   -4   28    3      1.50      0.00
   -3   28    3      1.41      0.00
   -2   28    3      1.32      0.00
   -1   28    3      1.55      0.00
    0   28    3     -3.94      0.00
    1   28    3     -2.33      0.00
    2   28    3     -2.69      0.00
    3   28    3      1.66      0.00
    4   28    3      2.83      0.00
    5   28    3     -0.57      0.00
    6   28    3     -0.53      0.00
    7   28    3     -3.10      0.00
    8   28    3     -0.09      0.00
    9   28    3      2.24      0.00
   10   28    3     -0.16      0.00
   11   28    3      2.38      0.00
   12   28    3     -0.58      0.00
   13   28    3     -2.72      0.00
   14   28    3      4.11      0.00
   15   28    3     -0.27      0.00
   16   28    3      4.55      0.00
   17   28    3      0.83      0.00
   18   28    3      1.08      0.00
   19   28    3      2.90      0.00
   20   28    3     -3.74      0.00
  -18   29    3      2.25      0.00
  -17   29    3     -2.78      0.00
  -16   29    3      2.30      0.00
  -15   29    3      2.02      0.00
  -14   29    3      0.00      0.00
  -13   29    3     -0.81      0.00
  -12   29    3     -2.89      0.00
  -11   29    3      1.63      0.00
  -10   29    3      2.37      0.00
   -9   29    3      6.63      0.00
   -8   29    3      0.71      0.00
   -7   29    3     -6.84      0.00
   -6   29    3      2.09      0.00
   -5   29    3      1.12      0.00
   -4   29    3     -3.20      0.00
   -3   29    3      1.43      0.00
   -2   29    3     -3.64      0.00
   -1   29    3      1.09      0.00
    0   29    3      2.87      0.00
    1   29    3     -1.01      0.00
    2   29    3     -0.73      0.00
    3   29    3      0.17      0.00
    4   29    3      2.36      0.00
    5   29    3     -0.74      0.00
    6   29    3      1.80      0.00
    7   29    3     -1.10      0.00
    8   29    3     -5.51      0.00
    9   29    3     -3.02      0.00
   10   29    3      0.26      0.00
   11   29    3      0.16      0.00
   12   29    3      2.28      0.00
   13   29    3     -1.58      0.00
   14   29    3      1.95      0.00
   15   29    3     -2.33      0.00
   16   29    3     -5.68      0.00
   17   29    3      4.67      0.00
   18   29    3      0.92      0.00
  -17   30    3     -0.76      0.00
  -16   30    3     -2.39      0.00
  -15   30    3     -0.63      0.00
  -14   30    3      3.85      0.00
  -13   30    3      0.72      0.00
  -12   30    3     -2.69      0.00
  -11   30    3     -0.06      0.00
  -10   30    3     -0.45      0.00
   -9   30    3     -3.35      0.00
   -8   30    3      1.31      0.00
   -7   30    3      5.31      0.00
   -6   30    3     -2.40      0.00
   -5   30    3      0.49      0.00
   -4   30    3      0.47      0.00
   -3   30    3      2.52      0.00
   -2   30    3      1.76      0.00
   -1   30    3     -4.10      0.00
    0   30    3      0.01      0.00
    1   30    3     -2.46      0.00
    2   30    3     -0.48      0.00
    3   30    3     -0.81      0.00
    4   30    3     -0.69      0.00
    5   30    3      0.09      0.00
    6   30    3      5.54      0.00
    7   30    3      5.93      0.00
    8   30    3     -0.85      0.00
    9   30    3     -3.45      0.00
   10   30    3     -0.95      0.00
   11   30    3     -5.10      0.00
   12   30    3     -3.15      0.00
   13   30    3      6.02      0.00
   14   30    3      3.37      0.00
   15   30    3      0.17      0.00
   16   30    3     -6.67      0.00
   17   30    3     -1.40      0.00
  -15   31    3     -5.37      0.00
  -14   31    3      0.65      0.00
  -13   31    3      6.64      0.00
  -12   31    3     -3.36      0.00
  -11   31    3      0.41      0.00
  -10   31    3      2.03      0.00
   -9   31    3      1.56      0.00
   -8   31    3     -3.55      0.00
   -7   31    3     -0.94      0.00
   -6   31    3      1.43      0.00
   -5   31    3     -3.09      0.00
   -4   31    3     -0.12      0.00
   -3   31    3     -1.36      0.00
   -2   31    3      4.76      0.00
   -1   31    3      1.09      0.00
    0   31    3      2.90      0.00
    1   31    3      1.24      0.00
    2   31    3     -5.75      0.00
    3   31    3     -0.99      0.00
    4   31    3      1.19      0.00
    5   31    3     -3.71      0.00
    6   31    3     -0.76      0.00
    7   31    3      1.69      0.00
    8   31    3     -0.09      0.00
    9   31    3      1.75      0.00
   10   31    3      0.23      0.00
   11   31    3      3.07      0.00
   12   31    3     -1.99      0.00
   13   31    3     -5.90      0.00
   14   31    3     -2.26      0.00
   15   31    3      4.04      0.00
  -13   32    3      1.20      0.00
  -12   32    3      2.11      0.00
  -11   32    3     -1.02      0.00
  -10   32    3     -1.64      0.00
   -9   32    3      1.26      0.00
   -8   32    3      7.48      0.00
   -7   32    3     -3.33      0.00
   -6   32    3     -0.52      0.00
   -5   32    3      1.84      0.00
   -4   32    3     -0.75      0.00
   -3   32    3     -2.99      0.00
   -2   32    3     -0.20      0.00
   -1   32    3      0.10      0.00
    0   32    3     -1.05      0.00
    1   32    3      5.93      0.00
    2   32    3     -0.40      0.00
    3   32    3     -3.03      0.00
    4   32    3      2.61      0.00
    5   32    3     -0.52      0.00
    6   32    3      0.32      0.00
    7   32    3      5.40      0.00
    8   32    3     -1.48      0.00
    9   32    3     -2.75      0.00
   10   32    3     -3.54      0.00
   11   32    3      1.03      0.00
   12   32    3      5.16      0.00
   13   32    3     -3.64      0.00
  -10   33    3     -0.66      0.00
   -9   33    3     -3.74      0.00
   -8   33    3     -2.05      0.00
   -7   33    3      2.50      0.00
   -6   33    3      3.01      0.00
   -5   33    3      1.23      0.00
   -4   33    3     -1.07      0.00
   -3   33    3     -0.60      0.00
   -2   33    3     -0.84      0.00
   -1   33    3      2.60      0.00
    0   33    3     -2.38      0.00
    1   33    3     -1.00      0.00
    2   33    3      5.20      0.00
    3   33    3     -1.54      0.00
    4   33    3     -2.27      0.00
    5   33    3     -3.51      0.00
    6   33    3     -5.68      0.00
    7   33    3      6.14      0.00
    8   33    3      7.21      0.00
    9   33    3      3.54      0.00
   10   33    3      1.75      0.00
   -6   34    3      0.96      0.00
   -5   34    3      1.46      0.00
   -4   34    3     -0.19      0.00
   -3   34    3     -1.04      0.00
   -2   34    3     -1.74      0.00
   -1   34    3     -0.21      0.00
    0   34    3      1.44      0.00
    1   34    3     -0.82      0.00
    2   34    3      1.93      0.00
    3   34    3      1.31      0.00
    4   34    3      1.19      0.00
    5   34    3      4.05      0.00
    6   34    3     -9.00      0.00
    0    0    4     -4.48      0.00
    0    1    4     -1.31      0.00
    1    1    4      3.20      0.00
   -1    2    4     13.17      0.00
    0    2    4      2.58      0.00
    1    2    4      7.77      0.00
    2    2    4     -1.14      0.00
   -2    3    4     -8.06      0.00
   -1    3    4      5.73      0.00
    0    3    4      4.00      0.00
    1    3    4     -2.57      0.00
    2    3    4      2.17      0.00
    3    3    4      4.57      0.00
   -3    4    4      0.81      0.00
   -2    4    4     -1.06      0.00
   -1    4    4      3.79      0.00
    0    4    4     -3.07      0.00
    1    4    4      3.53      0.00
    2    4    4      4.77      0.00
    3    4    4     -2.96      0.00
    4    4    4     -2.57      0.00
   -4    5    4     -8.25      0.00
   -3    5    4      4.25      0.00
   -2    5    4     -5.22      0.00
   -1    5    4     -3.53      0.00
    0    5    4      2.83      0.00
    1    5    4     -1.03      0.00
    2    5    4     10.18      0.00
    3    5    4     -0.20      0.00
    4    5    4      1.99      0.00
    5    5    4      1.55      0.00
   -5    6    4      5.37      0.00
   -4    6    4      1.65      0.00
   -3    6    4      0.01      0.00
   -2    6    4     -2.81      0.00
   -1    6    4     -9.21      0.00
    0    6    4      3.63      0.00
    1    6    4     -0.83      0.00
    2    6    4     -2.99      0.00
    3    6    4      2.55      0.00
    4    6    4      3.14      0.00
    5    6    4      1.72      0.00
    6    6    4     -1.11      0.00
   -6    7    4      2.42      0.00
   -5    7    4      5.71      0.00
   -4    7    4      0.93      0.00
   -3    7    4     -1.88      0.00
   -2    7    4      1.05      0.00
   -1    7    4      0.30      0.00
    0    7    4      0.54      0.00
    1    7    4     -3.35      0.00
    2    7    4     -0.22      0.00
    3    7    4      2.12      0.00
    4    7    4      0.85      0.00
    5    7    4      0.42      0.00
    6    7    4     -4.68      0.00
    7    7    4      1.20      0.00
   -7    8    4      1.01      0.00
   -6    8    4     -2.34      0.00
   -5    8    4      3.26      0.00
   -4    8    4      2.52      0.00
   -3    8    4     -3.67      0.00
   -2    8    4      4.42      0.00
   -1    8    4     -1.24      0.00
    0    8    4     -0.52      0.00
    1    8    4     -0.97      0.00
    2    8    4     -1.68      0.00
    3    8    4      2.05      0.00
    4    8    4     -1.51      0.00
    5    8    4      5.45      0.00
    6    8    4      2.74      0.00
    7    8    4     -2.39      0.00
    8    8    4     -3.58      0.00
   -8    9    4     -4.84      0.00
   -7    9    4     -0.52      0.00
   -6    9    4      1.78      0.00
   -5    9    4     -6.76      0.00
   -4    9    4      3.70      0.00
   -3    9    4      3.14      0.00
   -2    9    4      0.61      0.00
   -1    9    4     -0.02      0.00
    0    9    4     -3.25      0.00
    1    9    4      2.98      0.00
    2    9    4     -1.15      0.00
    3    9    4     -0.85      0.00
    4    9    4     -0.87      0.00
    5    9    4      0.85      0.00
    6    9    4      1.12      0.00
    7    9    4      2.47      0.00
    8    9    4      3.81      0.00
    9    9    4     -2.48      0.00
   -9   10    4     -0.71      0.00
   -8   10    4      3.76      0.00
   -7   10    4     -5.15      0.00
   -6   10    4     -1.15      0.00
   -5   10    4      1.58      0.00
   -4   10    4     -1.43      0.00
   -3   10    4      1.66      0.00
   -2   10    4     -2.36      0.00
   -1   10    4     -0.20      0.00
    0   10    4      0.68      0.00
    1   10    4      0.48      0.00
    2   10    4     -2.31      0.00
    3   10    4     -0.02      0.00
    4   10    4      0.70      0.00
    5   10    4      0.31      0.00
    6   10    4     -0.88      0.00
    7   10    4     -3.88      0.00
    8   10    4      4.96      0.00
    9   10    4      0.18      0.00
   10   10    4     -0.21      0.00
  -10   11    4      2.52      0.00
   -9   11    4      0.92      0.00
   -8   11    4      0.28      0.00
   -7   11    4      1.32      0.00
   -6   11    4     -4.02      0.00
   -5   11    4      0.55      0.00
   -4   11    4      2.63      0.00
   -3   11    4     -0.01      0.00
   -2   11    4     -0.30      0.00
   -1   11    4      1.54      0.00
    0   11    4     -1.03      0.00
    1   11    4     -0.77      0.00
    2   11    4     -0.32      0.00
    3   11    4     -1.53      0.00
    4   11    4      1.05      0.00
    5   11    4     -2.07      0.00
    6   11    4      2.35      0.00
    7   11    4     -0.66      0.00
    8   11    4      0.42      0.00
    9   11    4      0.13      0.00
   10   11    4     -3.65      0.00
   11   11    4      2.80      0.00
  -11   12    4      0.49      0.00
  -10   12    4     -0.82      0.00
   -9   12    4      3.22      0.00
   -8   12    4     -0.60      0.00
   -7   12    4     -1.46      0.00
   -6   12    4      1.11      0.00
   -5   12    4     -1.42      0.00
   -4   12    4     -3.30      0.00
   -3   12    4      1.57      0.00
   -2   12    4      1.61      0.00
   -1   12    4      0.85      0.00
    0   12    4      1.24      0.00
    1   12    4     -1.86      0.00
    2   12    4      0.69      0.00
    3   12    4     -0.51      0.00
    4   12    4     -1.67      0.00
    5   12    4     -1.06      0.00
    6   12    4      0.65      0.00
    7   12    4      0.59      0.00
    8   12    4     -1.80      0.00
    9   12    4      1.96      0.00
   10   12    4      0.08      0.00
   11   12    4      2.34      0.00
   12   12    4     -0.07      0.00
  -12   13    4     -1.53      0.00
  -11   13    4     -0.31      0.00
  -10   13    4      1.40      0.00
   -9   13    4     -0.08      0.00
   -8   13    4      1.44      0.00
   -7   13    4      2.01      0.00
   -6   13    4     -1.51      0.00
   -5   13    4     -1.13      0.00
   -4   13    4     -0.49      0.00
   -3   13    4     -0.80      0.00
   -2   13    4      2.07      0.00
   -1   13    4     -0.21      0.00
    0   13    4     -0.71      0.00
    1   13    4      2.35      0.00
    2   13    4      0.66      0.00
    3   13    4     -2.86      0.00
    4   13    4     -1.42      0.00
    5   13    4      1.79      0.00
    6   13    4      1.60      0.00
    7   13    4     -2.97      0.00
    8   13    4     -4.39      0.00
    9   13    4      1.51      0.00
   10   13    4     -0.34      0.00
   11   13    4     -0.02      0.00
   12   13    4      1.11      0.00
   13   13    4      0.13      0.00
  -13   14    4     -1.58      0.00
  -12   14    4     -1.34      0.00
  -11   14    4     -0.24      0.00
  -10   14    4     -0.81      0.00
   -9   14    4      0.20      0.00
   -8   14    4      0.64      0.00
   -7   14    4      1.60      0.00
   -6   14    4      1.54      0.00
   -5   14    4     -3.32      0.00
   -4   14    4     -0.61      0.00
   -3   14    4      1.47      0.00
   -2   14    4     -1.76      0.00
   -1   14    4      1.21      0.00
    0   14    4      1.04      0.00
    1   14    4      0.18      0.00
    2   14    4      4.00      0.00
    3   14    4     -1.87      0.00
    4   14    4     -2.33      0.00
    5   14    4      2.88      0.00
    6   14    4      0.00      0.00
    7   14    4      0.54      0.00
    8   14    4     -0.40      0.00
    9   14    4      0.56      0.00
   10   14    4     -0.87      0.00
   11   14    4     -1.74      0.00
   12   14    4     -0.75      0.00
   13   14    4     -1.80      0.00
   14   14    4      3.04      0.00
  -14   15    4      0.48      0.00
  -13   15    4      1.56      0.00
  -12   15    4     -1.77      0.00
  -11   15    4      0.47      0.00
  -10   15    4      0.48      0.00
   -9   15    4     -1.95      0.00
   -8   15    4      1.82      0.00
   -7   15    4      0.70      0.00
   -6   15    4     -1.08      0.00
   -5   15    4      2.91      0.00
   -4   15    4     -1.55      0.00
   -3   15    4     -1.23      0.00
   -2   15    4     -0.59      0.00
   -1   15    4     -1.72      0.00
    0   15    4      2.03      0.00
    1   15    4     -1.10      0.00
    2   15    4     -0.50      0.00
    3   15    4      4.46      0.00
    4   15    4     -1.56      0.00
    5   15    4     -2.16      0.00
    6   15    4     -0.19      0.00
    7   15    4      1.74      0.00
    8   15    4      1.35      0.00
    9   15    4     -0.58      0.00
   10   15    4     -0.32      0.00
   11   15    4      0.13      0.00
   12   15    4      2.34      0.00
   13   15    4     -0.67      0.00
   14   15    4      0.03      0.00
   15   15    4      1.54      0.00
  -15   16    4      2.14      0.00
  -14   16    4     -2.44      0.00
  -13   16    4     -0.21      0.00
  -12   16    4      1.87      0.00
  -11   16    4     -1.77      0.00
  -10   16    4     -1.19      0.00
   -9   16    4      1.40      0.00
   -8   16    4     -1.45      0.00
   -7   16    4      1.80      0.00
   -6   16    4      0.38      0.00
   -5   16    4      0.20      0.00
   -4   16    4      1.59      0.00
   -3   16    4     -2.25      0.00
   -2   16    4     -0.28      0.00
   -1   16    4      1.13      0.00
    0   16    4      1.37      0.00
    1   16    4     -0.07      0.00
    2   16    4     -0.75      0.00
    3   16    4      1.81      0.00
    4   16    4     -0.80      0.00
    5   16    4     -2.67      0.00
    6   16    4      2.20      0.00
    7   16    4      2.65      0.00
    8   16    4     -0.90      0.00
    9   16    4     -1.00      0.00
   10   16    4     -0.25      0.00
   11   16    4     -2.35      0.00
   12   16    4      1.13      0.00
   13   16    4      0.48      0.00
   14   16    4     -0.81      0.00
   15   16    4      2.35      0.00
   16   16    4      2.11      0.00
  -16   17    4     -1.98      0.00
  -15   17    4     -0.70      0.00
  -14   17    4      1.46      0.00
  -13   17    4      1.46      0.00
  -12   17    4      0.89      0.00
  -11   17    4     -0.56      0.00
  -10   17    4     -3.65      0.00
   -9   17    4      0.56      0.00
   -8   17    4      0.80      0.00
   -7   17    4     -1.88      0.00
   -6   17    4      2.84      0.00
   -5   17    4     -1.17      0.00
   -4   17    4     -2.04      0.00
   -3   17    4      0.98      0.00
   -2   17    4     -0.13      0.00
   -1   17    4     -1.35      0.00
    0   17    4     -0.20      0.00
    1   17    4     -1.11      0.00
    2   17    4      0.97      0.00
    3   17    4      4.37      0.00
    4   17    4     -0.78      0.00
    5   17    4     -2.05      0.00
    6   17    4     -0.51      0.00
    7   17    4      0.15      0.00
    8   17    4      1.72      0.00
    9   17    4      0.13      0.00
   10   17    4      2.73      0.00
   11   17    4      1.55      0.00
   12   17    4     -0.63      0.00
   13   17    4     -1.87      0.00
   14   17    4     -1.84      0.00
   15   17    4     -0.69      0.00
   16   17    4      1.29      0.00
   17   17    4      1.00      0.00
  -17   18    4     -1.90      0.00
  -16   18    4      3.17      0.00
  -15   18    4     -2.36      0.00
  -14   18    4     -1.90      0.00
  -13   18    4      2.48      0.00
  -12   18    4      0.53      0.00
  -11   18    4      0.51      0.00
  -10   18    4      0.83      0.00
   -9   18    4     -2.30      0.00
   -8   18    4     -0.21      0.00
   -7   18    4      1.10      0.00
   -6   18    4      0.61      0.00
   -5   18    4      0.69      0.00
   -4   18    4     -1.59      0.00
   -3   18    4     -0.66      0.00
   -2   18    4      0.31      0.00
   -1   18    4     -0.13      0.00
    0   18    4     -0.56      0.00
    1   18    4     -0.98      0.00
    2   18    4     -2.90      0.00
    3   18    4      0.05      0.00
    4   18    4      3.57      0.00
    5   18    4      0.07      0.00
    6   18    4     -0.69      0.00
    7   18    4     -2.46      0.00
    8   18    4     -0.77      0.00
    9   18    4     -0.96      0.00
   10   18    4     -0.54      0.00
   11   18    4      1.12      0.00
   12   18    4      1.75      0.00
   13   18    4      2.97      0.00
   14   18    4     -0.08      0.00
   15   18    4     -1.31      0.00
   16   18    4     -1.18      0.00
   17   18    4     -0.44      0.00
   18   18    4     -0.70      0.00
  -18   19    4      1.78      0.00
  -17   19    4     -3.93      0.00
  -16   19    4     -0.20      0.00
  -15   19    4      3.61      0.00
  -14   19    4     -2.20      0.00
  -13   19    4     -0.36      0.00
  -12   19    4     -0.78      0.00
  -11   19    4      1.01      0.00
  -10   19    4      0.96      0.00
   -9   19    4     -0.75      0.00
   -8   19    4     -0.75      0.00
   -7   19    4      0.62      0.00
   -6   19    4      0.62      0.00
   -5   19    4      0.89      0.00
   -4   19    4      1.09      0.00
   -3   19    4      0.52      0.00
   -2   19    4     -1.17      0.00
   -1   19    4     -4.07      0.00
    0   19    4      1.61      0.00
    1   19    4      1.42      0.00
    2   19    4     -0.12      0.00
    3   19    4     -0.43      0.00
    4   19    4     -1.00      0.00
    5   19    4     -0.87      0.00
    6   19    4      0.51      0.00
    7   19    4      2.64      0.00
    8   19    4      0.34      0.00
    9   19    4      0.74      0.00
   10   19    4     -1.89      0.00
   11   19    4     -3.67      0.00
   12   19    4     -2.17      0.00
   13   19    4      1.02      0.00
   14   19    4      0.70      0.00
   15   19    4      1.71      0.00
   16   19    4      2.68      0.00
   17   19    4     -1.24      0.00
   18   19    4     -2.55      0.00
   19   19    4     -0.39      0.00
  -19   20    4      1.01      0.00
  -18   20    4      2.18      0.00
  -17   20    4      3.76      0.00
  -16   20    4     -3.44      0.00
  -15   20    4      0.45      0.00
  -14   20    4      0.46      0.00
  -13   20    4     -0.35      0.00
  -12   20    4     -0.11      0.00
  -11   20    4      1.07      0.00
  -10   20    4      0.88      0.00
   -9   20    4     -2.82      0.00
   -8   20    4     -0.05      0.00
   -7   20    4     -0.17      0.00
   -6   20    4     -0.26      0.00
   -5   20    4      1.84      0.00
   -4   20    4      2.47      0.00
   -3   20    4     -0.09      0.00
   -2   20    4      3.05      0.00
   -1   20    4     -1.47      0.00
    0   20    4     -2.72      0.00
    1   20    4      1.21      0.00
    2   20    4     -5.19      0.00
    3   20    4      1.18      0.00
    4   20    4      1.31      0.00
    5   20    4     -0.85      0.00
    6   20    4     -0.70      0.00
    7   20    4     -1.33      0.00
    8   20    4     -0.68      0.00
    9   20    4      1.92      0.00
   10   20    4      2.73      0.00
   11   20    4      0.99      0.00
   12   20    4     -0.47      0.00
   13   20    4     -3.06      0.00
   14   20    4     -0.49      0.00
   15   20    4     -0.04      0.00
   16   20    4     -1.22      0.00
   17   20    4      1.66      0.00
   18   20    4      0.43      0.00
   19   20    4      2.17      0.00
   20   20    4     -0.55      0.00
  -20   21    4     -3.45      0.00
  -19   21    4     -1.72      0.00
  -18   21    4      0.48      0.00
  -17   21    4     -0.04      0.00
  -16   21    4      0.58      0.00
  -15   21    4     -0.64      0.00
  -14   21    4     -0.13      0.00
  -13   21    4     -0.23      0.00
  -12   21    4      1.63      0.00
  -11   21    4      1.21      0.00
  -10   21    4      1.36      0.00
   -9   21    4     -0.67      0.00
   -8   21    4     -2.05      0.00
   -7   21    4     -2.31      0.00
   -6   21    4     -0.83      0.00
   -5   21    4     -0.69      0.00
   -4   21    4      1.98      0.00
   -3   21    4      1.49      0.00
   -2   21    4     -0.32      0.00
   -1   21    4      6.02      0.00
    0   21    4     -0.06      0.00
    1   21    4      3.23      0.00
    2   21    4      1.00      0.00
    3   21    4     -5.48      0.00
    4   21    4     -0.10      0.00
    5   21    4      0.39      0.00
    6   21    4      0.12      0.00
    7   21    4     -0.69      0.00
    8   21    4     -0.72      0.00
    9   21    4     -3.38      0.00
   10   21    4      0.09      0.00
   11   21    4      0.53      0.00
   12   21    4     -0.30      0.00
   13   21    4      1.60      0.00
   14   21    4      1.10      0.00
   15   21    4      0.64      0.00
   16   21    4     -3.33      0.00
   17   21    4     -0.10      0.00
   18   21    4      1.59      0.00
   19   21    4     -0.11      0.00
   20   21    4      0.94      0.00
   21   21    4     -0.50      0.00
  -21   22    4     -1.54      0.00
  -20   22    4     -0.27      0.00
  -19   22    4     -0.49      0.00
  -18   22    4      1.25      0.00
  -17   22    4      0.33      0.00
  -16   22    4     -0.27      0.00
  -15   22    4     -1.03      0.00
  -14   22    4     -4.71      0.00
  -13   22    4     -0.61      0.00
  -12   22    4      1.39      0.00
  -11   22    4      0.62      0.00
  -10   22    4      1.91      0.00
   -9   22    4      1.03      0.00
   -8   22    4      1.37      0.00
   -7   22    4     -1.51      0.00
   -6   22    4     -1.91      0.00
   -5   22    4     -0.73      0.00
   -4   22    4     -6.46      0.00
   -3   22    4      0.23      0.00
   -2   22    4      0.41      0.00
   -1   22    4     -0.41      0.00
    0   22    4      2.22      0.00
    1   22    4     -0.20      0.00
    2   22    4      3.82      0.00
    3   22    4      2.38      0.00
    4   22    4      2.10      0.00
    5   22    4     -0.07      0.00
    6   22    4     -1.29      0.00
    7   22    4      0.36      0.00
    8   22    4      1.09      0.00
    9   22    4     -0.17      0.00
   10   22    4     -0.45      0.00
   11   22    4      0.23      0.00
   12   22    4     -3.45      0.00
   13   22    4      0.75      0.00
   14   22    4     -1.81      0.00
   15   22    4     -0.88      0.00
   16   22    4      2.88      0.00
   17   22    4     -0.32      0.00
   18   22    4      2.13      0.00
   19   22    4      1.27      0.00
   20   22    4     -3.10      0.00
   21   22    4     -0.72      0.00
   22   22    4      3.30      0.00
  -22   23    4     -0.48      0.00
  -21   23    4     -0.12      0.00
  -20   23    4     -2.15      0.00
  -19   23    4     -1.47      0.00
  -18   23    4     -1.65      0.00
  -17   23    4      2.52      0.00
  -16   23    4      3.16      0.00
  -15   23    4      4.34      0.00
  -14   23    4     -0.94      0.00
  -13   23    4     -4.47      0.00
  -12   23    4     -2.26      0.00
  -11   23    4     -2.17      0.00
  -10   23    4      2.89      0.00
   -9   23    4      1.40      0.00
   -8   23    4      0.20      0.00
   -7   23    4      5.88      0.00
   -6   23    4     -1.01      0.00
   -5   23    4     -0.89      0.00
   -4   23    4     -0.57      0.00
   -3   23    4     -4.75      0.00
   -2   23    4      0.44      0.00
   -1   23    4     -0.86      0.00
    0   23    4     -0.68      0.00
    1   23    4     -0.81      0.00
    2   23    4     -2.93      0.00
    3   23    4     -0.36      0.00
    4   23    4      1.43      0.00
    5   23    4      0.67      0.00
    6   23    4      1.86      0.00
    7   23    4      4.43      0.00
    8   23    4     -0.68      0.00
    9   23    4     -2.15      0.00
   10   23    4      0.11      0.00
   11   23    4      2.18      0.00
   12   23    4      1.12      0.00
   13   23    4     -2.46      0.00
   14   23    4     -1.28      0.00
   15   23    4     -1.66      0.00
   16   23    4     -0.15      0.00
   17   23    4     -2.69      0.00
   18   23    4     -0.28      0.00
   19   23    4      2.98      0.00
   20   23    4      2.42      0.00
   21   23    4      0.41      0.00
   22   23    4      1.16      0.00
   23   23    4     -3.35      0.00
  -23   24    4      1.52      0.00
  -22   24    4      2.57      0.00
  -21   24    4      4.97      0.00
  -20   24    4      0.72      0.00
  -19   24    4     -2.01      0.00
  -18   24    4     -1.90      0.00
  -17   24    4     -3.35      0.00
  -16   24    4     -1.68      0.00
  -15   24    4      2.27      0.00
  -14   24    4      4.01      0.00
  -13   24    4      0.70      0.00
  -12   24    4     -0.67      0.00
  -11   24    4     -2.58      0.00
  -10   24    4     -2.56      0.00
   -9   24    4      0.69      0.00
   -8   24    4     -1.04      0.00
   -7   24    4      1.81      0.00
   -6   24    4      5.47      0.00
   -5   24    4     -1.18      0.00
   -4   24    4      1.11      0.00
   -3   24    4      0.59      0.00
   -2   24    4     -4.19      0.00
   -1   24    4      0.19      0.00
    0   24    4      1.52      0.00
    1   24    4      0.30      0.00
    2   24    4      1.33      0.00
    3   24    4     -0.66      0.00
    4   24    4     -2.70      0.00
    5   24    4     -2.03      0.00
    6   24    4     -2.74      0.00
    7   24    4     -0.29      0.00
    8   24    4      7.38      0.00
    9   24    4      1.66      0.00
   10   24    4     -0.34      0.00
   11   24    4      1.41      0.00
   12   24    4      1.01      0.00
   13   24    4     -1.21      0.00
   14   24    4     -1.10      0.00
   15   24    4      2.21      0.00
   16   24    4      0.54      0.00
   17   24    4     -4.22      0.00
   18   24    4     -5.82      0.00
   19   24    4      0.07      0.00
   20   24    4      3.62      0.00
   21   24    4     -0.67      0.00
   22   24    4     -1.21      0.00
   23   24    4      5.84      0.00
  -22   25    4     -0.43      0.00
  -21   25    4      3.46      0.00
  -20   25    4      4.02      0.00
  -19   25    4      2.61      0.00
  -18   25    4     -0.67      0.00
  -17   25    4     -0.18      0.00
  -16   25    4      0.87      0.00
  -15   25    4     -0.25      0.00
  -14   25    4     -1.90      0.00
  -13   25    4     -0.59      0.00
  -12   25    4      1.62      0.00
  -11   25    4      0.13      0.00
  -10   25    4      0.16      0.00
   -9   25    4     -0.82      0.00
   -8   25    4     -1.26      0.00
   -7   25    4     -4.51      0.00
   -6   25    4      0.20      0.00
   -5   25    4      8.12      0.00
   -4   25    4      0.41      0.00
   -3   25    4     -0.57      0.00
   -2   25    4     -0.44      0.00
   -1   25    4     -5.55      0.00
    0   25    4     -0.07      0.00
    1   25    4      2.27      0.00
    2   25    4      0.70      0.00
    3   25    4     -0.91      0.00
    4   25    4      0.50      0.00
    5   25    4      0.56      0.00
    6   25    4     -1.25      0.00
    7   25    4     -5.81      0.00
    8   25    4     -1.42      0.00
    9   25    4      1.27      0.00
   10   25    4     -0.47      0.00
   11   25    4      6.33      0.00
   12   25    4      0.66      0.00
   13   25    4      2.45      0.00
   14   25    4      1.58      0.00
   15   25    4     -1.04      0.00
   16   25    4      3.66      0.00
   17   25    4      0.68      0.00
   18   25    4     -4.61      0.00
   19   25    4     -0.74      0.00
   20   25    4      0.85      0.00
   21   25    4     -3.61      0.00
   22   25    4     -2.09      0.00
  -21   26    4     -2.91      0.00
  -20   26    4      0.35      0.00
  -19   26    4      1.27      0.00
  -18   26    4      0.54      0.00
  -17   26    4     -0.66      0.00
  -16   26    4     -1.17      0.00
  -15   26    4      1.81      0.00
  -14   26    4      5.46      0.00
  -13   26    4      0.41      0.00
  -12   26    4     -4.13      0.00
  -11   26    4     -2.66      0.00
  -10   26    4      3.57      0.00
   -9   26    4      2.90      0.00
   -8   26    4     -3.32      0.00
   -7   26    4      0.32      0.00
   -6   26    4     -2.02      0.00
   -5   26    4     -1.39      0.00
   -4   26    4      5.55      0.00
   -3   26    4      0.51      0.00
   -2   26    4      2.55      0.00
   -1   26    4     -0.15      0.00
    0   26    4     -2.65      0.00
    1   26    4      1.21      0.00
    2   26    4      1.68      0.00
    3   26    4     -0.50      0.00
    4   26    4     -1.50      0.00
    5   26    4     -0.65      0.00
    6   26    4     -1.24      0.00
    7   26    4      1.88      0.00
    8   26    4     -1.14      0.00
    9   26    4     -2.05      0.00
   10   26    4     -7.31      0.00
   11   26    4     -0.34      0.00
   12   26    4      2.49      0.00
   13   26    4     -1.50      0.00
   14   26    4      3.05      0.00
   15   26    4     -1.55      0.00
   16   26    4      3.29      0.00
   17   26    4      4.43      0.00
   18   26    4      0.73      0.00
   19   26    4     -1.04      0.00
   20   26    4     -1.91      0.00
   21   26    4     -1.08      0.00
  -20   27    4     -1.65      0.00
  -19   27    4     -1.95      0.00
  -18   27    4      2.05      0.00
  -17   27    4      0.73      0.00
  -16   27    4     -4.10      0.00
  -15   27    4     -1.69      0.00
  -14   27    4      2.09      0.00
  -13   27    4      0.90      0.00
  -12   27    4      1.70      0.00
  -11   27    4     -1.14      0.00
  -10   27    4     -2.62      0.00
   -9   27    4     -1.43      0.00
   -8   27    4      0.15      0.00
   -7   27    4      0.41      0.00
   -6   27    4      2.42      0.00
   -5   27    4     -4.29      0.00
   -4   27    4     -2.03      0.00
   -3   27    4      3.28      0.00
   -2   27    4      0.37      0.00
   -1   27    4      0.32      0.00
    0   27    4     -1.01      0.00
    1   27    4      2.69      0.00
    2   27    4      2.05      0.00
    3   27    4      1.81      0.00
    4   27    4      0.00      0.00
    5   27    4      3.93      0.00
    6   27    4     -0.17      0.00
    7   27    4     -5.63      0.00
    8   27    4     -0.27      0.00
    9   27    4      5.16      0.00
   10   27    4     -0.26      0.00
   11   27    4     -6.23      0.00
   12   27    4      3.64      0.00
   13   27    4      0.30      0.00
   14   27    4     -2.41      0.00
   15   27    4     -5.87      0.00
   16   27    4     -1.90      0.00
   17   27    4      7.48      0.00
   18   27    4      0.07      0.00
   19   27    4     -0.59      0.00
   20   27    4      1.09      0.00
  -19   28    4      2.28      0.00
  -18   28    4     -0.91      0.00
  -17   28    4     -2.37      0.00
  -16   28    4      1.93      0.00
  -15   28    4      0.37      0.00
  -14   28    4      1.58      0.00
  -13   28    4     -1.71      0.00
  -12   28    4      2.51      0.00
  -11   28    4      3.59      0.00
  -10   28    4     -3.19      0.00
   -9   28    4     -1.59      0.00
   -8   28    4      1.29      0.00
   -7   28    4     -1.48      0.00
   -6   28    4     -3.88      0.00
   -5   28    4      3.13      0.00
   -4   28    4     -1.76      0.00
   -3   28    4     -1.24      0.00
   -2   28    4      0.01      0.00
   -1   28    4     -0.48      0.00
    0   28    4     -4.70      0.00
    1   28    4     -1.38      0.00
    2   28    4      2.49      0.00
    3   28    4      1.81      0.00
    4   28    4     -0.20      0.00
    5   28    4      1.37      0.00
    6   28    4      6.44      0.00
    7   28    4     -2.44      0.00
    8   28    4     -1.93      0.00
    9   28    4      0.40      0.00
   10   28    4     -2.45      0.00
   11   28    4     -2.24      0.00
   12   28    4      1.58      0.00
   13   28    4      2.92      0.00
   14   28    4      2.12      0.00
   15   28    4      1.48      0.00
   16   28    4     -6.61      0.00
   17   28    4      1.70      0.00
   18   28    4      1.26      0.00
   19   28    4     -3.78      0.00
  -17   29    4     -2.27      0.00
  -16   29    4     -0.60      0.00
  -15   29    4     -4.06      0.00
  -14   29    4     -3.28      0.00
  -13   29    4      8.42      0.00
  -12   29    4      0.44      0.00
  -11   29    4     -2.89      0.00
  -10   29    4      1.42      0.00
   -9   29    4      5.10      0.00
   -8   29    4      0.66      0.00
   -7   29    4     -0.10      0.00
   -6   29    4     -1.76      0.00
   -5   29    4      0.60      0.00
   -4   29    4      1.08      0.00
   -3   29    4      0.51      0.00
   -2   29    4      0.83      0.00
   -1   29    4     -0.42      0.00
    0   29    4     -0.66      0.00
    1   29    4     -7.11      0.00
    2   29    4     -2.36      0.00
    3   29    4      3.34      0.00
    4   29    4      2.99      0.00
    5   29    4     -3.89      0.00
    6   29    4      0.55      0.00
    7   29    4      3.30      0.00
    8   29    4      1.31      0.00
    9   29    4      6.02      0.00
   10   29    4     -1.57      0.00
   11   29    4     -4.77      0.00
   12   29    4     -3.21      0.00
   13   29    4     -3.53      0.00
   14   29    4      0.66      0.00
   15   29    4      4.66      0.00
   16   29    4      0.23      0.00
   17   29    4     -3.85      0.00
  -15   30    4      0.84      0.00
  -14   30    4     -6.62      0.00
  -13   30    4     -1.98      0.00
  -12   30    4      5.54      0.00
  -11   30    4     -4.05      0.00
  -10   30    4     -1.80      0.00
   -9   30    4      1.58      0.00
   -8   30    4     -4.42      0.00
   -7   30    4      2.49      0.00
   -6   30    4      5.27      0.00
   -5   30    4     -1.61      0.00
   -4   30    4     -1.07      0.00
   -3   30    4     -0.52      0.00
   -2   30    4      5.52      0.00
   -1   30    4      2.15      0.00
    0   30    4     -1.23      0.00
    1   30    4     -1.88      0.00
    2   30    4     -1.55      0.00
    3   30    4     -0.75      0.00
    4   30    4     -1.91      0.00
    5   30    4     -1.41      0.00
    6   30    4     -0.11      0.00
    7   30    4      1.36      0.00
    8   30    4     -5.03      0.00
    9   30    4      2.89      0.00
   10   30    4     12.15      0.00
   11   30    4     -0.26      0.00
   12   30    4     -3.59      0.00
   13   30    4     -0.26      0.00
   14   30    4      1.59      0.00
   15   30    4     -2.04      0.00
  -13   31    4     -6.77      0.00
  -12   31    4     -0.08      0.00
  -11   31    4      8.31      0.00
  -10   31    4     -1.93      0.00
   -9   31    4      0.09      0.00
   -8   31    4     -3.01      0.00
   -7   31    4     -5.97      0.00
   -6   31    4      1.01      0.00
   -5   31    4      0.68      0.00
   -4   31    4      1.47      0.00
   -3   31    4     -1.14      0.00
   -2   31    4     -1.27      0.00
   -1   31    4      2.24      0.00
    0   31    4      2.36      0.00
    1   31    4      0.38      0.00
    2   31    4     -1.36      0.00
    3   31    4      1.10      0.00
    4   31    4      0.51      0.00
    5   31    4     -1.27      0.00
    6   31    4      1.75      0.00
    7   31    4     -1.10      0.00
    8   31    4     -6.47      0.00
    9   31    4     -6.29      0.00
   10   31    4      2.26      0.00
   11   31    4      4.17      0.00
   12   31    4      2.38      0.00
   13   31    4      1.50      0.00
  -11   32    4      3.02      0.00
  -10   32    4      1.68      0.00
   -9   32    4      1.84      0.00
   -8   32    4      8.93      0.00
   -7   32    4     -2.94      0.00
   -6   32    4     -6.11      0.00
   -5   32    4     -0.53      0.00
   -4   32    4      0.90      0.00
   -3   32    4     -1.07      0.00
   -2   32    4      3.25      0.00
   -1   32    4     -0.95      0.00
    0   32    4      0.40      0.00
    1   32    4      2.80      0.00
    2   32    4     -5.92      0.00
    3   32    4     -3.28      0.00
    4   32    4      4.86      0.00
    5   32    4      1.34      0.00
    6   32    4      2.96      0.00
    7   32    4      5.76      0.00
    8   32    4     -1.83      0.00
    9   32    4     -4.05      0.00
   10   32    4     -5.45      0.00
   11   32    4     -1.93      0.00
   -7   33    4      1.99      0.00
   -6   33    4      1.58      0.00
   -5   33    4     -0.22      0.00
   -4   33    4      0.65      0.00
   -3   33    4     -6.35      0.00
   -2   33    4     -2.39      0.00
   -1   33    4     10.02      0.00
    0   33    4     -0.90      0.00
    1   33    4      0.18      0.00
    2   33    4      1.84      0.00
    3   33    4     -3.10      0.00
    4   33    4     -2.39      0.00
    5   33    4     -2.81      0.00
    6   33    4     -3.73      0.00
    7   33    4      7.01      0.00
    0    0    5      0.30      0.00
    0    1    5     -1.71      0.00
    1    1    5      1.09      0.00
   -1    2    5      3.38      0.00
    0    2    5     -1.09      0.00
    1    2    5      4.57      0.00
    2    2    5     -0.90      0.00
   -2    3    5     -4.12      0.00
   -1    3    5      0.23      0.00
    0    3    5      2.72      0.00
    1    3    5     -3.03      0.00
    2    3    5     -2.16      0.00
    3    3    5     -1.07      0.00
   -3    4    5     -3.56      0.00
   -2    4    5      2.60      0.00
   -1    4    5      5.52      0.00
    0    4    5      1.43      0.00
    1    4    5     -0.60      0.00
    2    4    5     -0.66      0.00
    3    4    5     -0.66      0.00
    4    4    5     -2.15      0.00
   -4    5    5     -6.16      0.00
   -3    5    5     -0.43      0.00
   -2    5    5     -1.08      0.00
   -1    5    5     -0.54      0.00
    0    5    5     -0.53      0.00
    1    5    5      1.22      0.00
    2    5    5      8.30      0.00
    3    5    5     -1.26      0.00
    4    5    5     -0.94      0.00
    5    5    5     -0.21      0.00
   -5    6    5      1.67      0.00
   -4    6    5      0.75      0.00
   -3    6    5      2.38      0.00
   -2    6    5      0.49      0.00
   -1    6    5     -6.25      0.00
    0    6    5      1.88      0.00
    1    6    5      0.86      0.00
    2    6    5     -1.66      0.00
    3    6    5     -1.12      0.00
    4    6    5      0.89      0.00
    5    6    5      4.45      0.00
    6    6    5     -0.56      0.00
   -6    7    5      0.60      0.00
   -5    7    5      0.46      0.00
   -4    7    5      2.38      0.00
   -3    7    5     -1.47      0.00
   -2    7    5     -2.43      0.00
   -1    7    5     -0.52      0.00
    0    7    5      4.02      0.00
    1    7    5      2.26      0.00
    2    7    5     -2.10      0.00
    3    7    5      0.56      0.00
    4    7    5      0.45      0.00
    5    7    5     -0.85      0.00
    6    7    5     -4.83      0.00
    7    7    5      1.25      0.00
   -7    8    5     -2.04      0.00
   -6    8    5     -1.74      0.00
   -5    8    5      3.94      0.00
   -4    8    5      2.28      0.00
   -3    8    5     -3.68      0.00
   -2    8    5     -1.04      0.00
   -1    8    5     -0.42      0.00
    0    8    5     -1.49      0.00
    1    8    5     -1.69      0.00
    2    8    5      1.20      0.00
    3    8    5      4.39      0.00
    4    8    5      0.06      0.00
    5    8    5      2.20      0.00
    6    8    5     -0.96      0.00
    7    8    5     -2.38      0.00
    8    8    5      1.43      0.00
   -8    9    5     -3.48      0.00
   -7    9    5     -1.04      0.00
   -6    9    5      0.54      0.00
   -5    9    5     -1.04      0.00
   -4    9    5      1.70      0.00
   -3    9    5      0.48      0.00
   -2    9    5      1.76      0.00
   -1    9    5      0.14      0.00
    0    9    5     -3.91      0.00
    1    9    5      0.44      0.00
    2    9    5     -0.99      0.00
    3    9    5     -0.82      0.00
    4    9    5     -1.44      0.00
    5    9    5      1.68      0.00
    6    9    5      3.52      0.00
    7    9    5     -0.80      0.00
    8    9    5      1.49      0.00
    9    9    5     -0.91      0.00
   -9   10    5     -0.53      0.00
   -8   10    5      1.13      0.00
   -7   10    5     -0.15      0.00
   -6   10    5      0.83      0.00
   -5   10    5     -1.50      0.00
   -4   10    5     -1.87      0.00
   -3   10    5      2.47      0.00
   -2   10    5      0.45      0.00
   -1   10    5     -0.78      0.00
    0   10    5     -2.18      0.00
    1   10    5      2.21      0.00
    2   10    5     -0.23      0.00
    3   10    5     -2.46      0.00
    4   10    5      0.10      0.00
    5   10    5      0.37      0.00
    6   10    5      0.79      0.00
    7   10    5     -4.04      0.00
    8   10    5      0.24      0.00
    9   10    5      2.31      0.00
   10   10    5      0.24      0.00
  -10   11    5      0.13      0.00
   -9   11    5     -2.15      0.00
   -8   11    5     -0.43      0.00
   -7   11    5      2.27      0.00
   -6   11    5     -1.17      0.00
   -5   11    5     -0.46      0.00
   -4   11    5      1.99      0.00
   -3   11    5      2.44      0.00
   -2   11    5     -0.48      0.00
   -1   11    5      0.12      0.00
    0   11    5     -0.35      0.00
    1   11    5     -1.26      0.00
    2   11    5      0.60      0.00
    3   11    5     -1.43      0.00
    4   11    5      1.55      0.00
    5   11    5     -0.61      0.00
    6   11    5      1.19      0.00
    7   11    5     -0.87      0.00
    8   11    5     -0.20      0.00
    9   11    5      1.79      0.00
   10   11    5     -2.44      0.00
   11   11    5     -0.44      0.00
  -11   12    5     -0.26      0.00
  -10   12    5     -0.42      0.00
   -9   12    5      2.76      0.00
   -8   12    5     -0.27      0.00
   -7   12    5     -2.69      0.00
   -6   12    5     -1.30      0.00
   -5   12    5     -0.41      0.00
   -4   12    5      0.01      0.00
   -3   12    5      0.26      0.00
   -2   12    5      0.42      0.00
   -1   12    5      1.29      0.00
    0   12    5      2.54      0.00
    1   12    5     -1.67      0.00
    2   12    5     -0.13      0.00
    3   12    5      0.88      0.00
    4   12    5     -1.15      0.00
    5   12    5     -1.73      0.00
    6   12    5      0.11      0.00
    7   12    5      1.63      0.00
    8   12    5     -1.30      0.00
    9   12    5      0.99      0.00
   10   12    5      0.77      0.00
   11   12    5      1.56      0.00
   12   12    5      1.56      0.00
  -12   13    5     -0.66      0.00
  -11   13    5      0.26      0.00
  -10   13    5      0.91      0.00
   -9   13    5      1.13      0.00
   -8   13    5     -0.30      0.00
   -7   13    5      0.44      0.00
   -6   13    5      0.55      0.00
   -5   13    5      0.39      0.00
   -4   13    5     -1.14      0.00
   -3   13    5     -1.85      0.00
   -2   13    5      0.48      0.00
   -1   13    5      0.95      0.00
    0   13    5     -0.67      0.00
    1   13    5      0.73      0.00
    2   13    5      1.01      0.00
    3   13    5      0.53      0.00
    4   13    5     -0.32      0.00
    5   13    5     -0.83      0.00
    6   13    5      2.59      0.00
    7   13    5      0.32      0.00
    8   13    5     -4.61      0.00
    9   13    5     -1.15      0.00
   10   13    5      0.07      0.00
   11   13    5      1.51      0.00
   12   13    5      1.47      0.00
   13   13    5      0.85      0.00
  -13   14    5     -0.71      0.00
  -12   14    5     -1.41      0.00
  -11   14    5     -0.06      0.00
  -10   14    5     -0.15      0.00
   -9   14    5      1.06      0.00
   -8   14    5     -1.21      0.00
   -7   14    5      0.04      0.00
   -6   14    5      0.98      0.00
   -5   14    5     -1.60      0.00
   -4   14    5     -0.27      0.00
   -3   14    5      1.00      0.00
   -2   14    5      0.58      0.00
   -1   14    5      0.18      0.00
    0   14    5     -1.05      0.00
    1   14    5     -1.41      0.00
    2   14    5      1.63      0.00
    3   14    5     -1.84      0.00
    4   14    5      0.30      0.00
    5   14    5      2.86      0.00
    6   14    5     -0.34      0.00
    7   14    5      2.44      0.00
    8   14    5     -1.95      0.00
    9   14    5      0.66      0.00
   10   14    5      0.09      0.00
   11   14    5     -2.14      0.00
   12   14    5      0.30      0.00
   13   14    5     -0.84      0.00
   14   14    5     -0.34      0.00
  -14   15    5      2.30      0.00
  -13   15    5     -0.30      0.00
  -12   15    5     -1.91      0.00
  -11   15    5      1.07      0.00
  -10   15    5     -0.12      0.00
   -9   15    5     -0.50      0.00
   -8   15    5      1.68      0.00
   -7   15    5     -0.87      0.00
   -6   15    5     -0.41      0.00
   -5   15    5     -0.80      0.00
   -4   15    5      0.37      0.00
   -3   15    5      1.34      0.00
   -2   15    5     -0.47      0.00
   -1   15    5     -1.75      0.00
    0   15    5      0.52      0.00
    1   15    5      1.22      0.00
    2   15    5     -0.98      0.00
    3   15    5     -0.32      0.00
    4   15    5     -2.88      0.00
    5   15    5      1.75      0.00
    6   15    5     -0.77      0.00
    7   15    5      0.62      0.00
    8   15    5      1.33      0.00
    9   15    5     -2.08      0.00
   10   15    5      2.26      0.00
   11   15    5     -0.74      0.00
   12   15    5     -0.22      0.00
   13   15    5      0.90      0.00
   14   15    5      0.29      0.00
   15   15    5     -1.43      0.00
  -15   16    5      1.26      0.00
  -14   16    5      0.84      0.00
  -13   16    5      1.21      0.00
  -12   16    5     -1.15      0.00
  -11   16    5     -0.95      0.00
  -10   16    5      0.98      0.00
   -9   16    5      0.21      0.00
   -8   16    5      0.86      0.00
   -7   16    5      0.88      0.00
   -6   16    5     -1.02      0.00
   -5   16    5     -0.14      0.00
   -4   16    5     -0.80      0.00
   -3   16    5      0.36      0.00
   -2   16    5      0.34      0.00
   -1   16    5      1.70      0.00
    0   16    5     -0.07      0.00
    1   16    5      0.48      0.00
    2   16    5     -0.76      0.00
    3   16    5      0.36      0.00
    4   16    5      0.18      0.00
    5   16    5     -3.57      0.00
    6   16    5      1.64      0.00
    7   16    5      2.14      0.00
    8   16    5      2.14      0.00
    9   16    5     -1.36      0.00
   10   16    5     -2.24      0.00
   11   16    5     -1.16      0.00
   12   16    5      0.54      0.00
   13   16    5      0.66      0.00
   14   16    5      1.41      0.00
   15   16    5      1.71      0.00
   16   16    5     -1.19      0.00
  -16   17    5     -1.16      0.00
  -15   17    5      1.94      0.00
  -14   17    5     -0.26      0.00
  -13   17    5     -0.71      0.00
  -12   17    5      3.24      0.00
  -11   17    5     -0.67      0.00
  -10   17    5     -3.77      0.00
   -9   17    5      0.96      0.00
   -8   17    5      0.20      0.00
   -7   17    5      1.09      0.00
   -6   17    5      1.66      0.00
   -5   17    5     -0.47      0.00
   -4   17    5     -1.43      0.00
   -3   17    5     -1.23      0.00
   -2   17    5     -0.62      0.00
   -1   17    5      1.55      0.00
    0   17    5      1.77      0.00
    1   17    5     -1.92      0.00
    2   17    5      1.28      0.00
    3   17    5     -0.94      0.00
    4   17    5     -0.04      0.00
    5   17    5     -1.39      0.00
    6   17    5     -2.84      0.00
    7   17    5      1.70      0.00
    8   17    5      2.02      0.00
    9   17    5      1.40      0.00
   10   17    5      0.99      0.00
   11   17    5     -0.98      0.00
   12   17    5      0.55      0.00
   13   17    5      0.43      0.00
   14   17    5     -2.79      0.00
   15   17    5      1.00      0.00
   16   17    5      1.20      0.00
   17   17    5     -0.39      0.00
  -17   18    5     -4.46      0.00
  -16   18    5     -0.67      0.00
  -15   18    5     -3.62      0.00
  -14   18    5      0.44      0.00
  -13   18    5      1.54      0.00
  -12   18    5      1.13      0.00
  -11   18    5      1.88      0.00
  -10   18    5     -2.10      0.00
   -9   18    5     -0.82      0.00
   -8   18    5      0.75      0.00
   -7   18    5     -0.90      0.00
   -6   18    5      1.24      0.00
   -5   18    5     -0.86      0.00
   -4   18    5     -0.31      0.00
   -3   18    5      1.27      0.00
   -2   18    5      1.05      0.00
   -1   18    5     -0.72      0.00
    0   18    5      0.81      0.00
    1   18    5     -1.16      0.00
    2   18    5      1.63      0.00
    3   18    5      2.47      0.00
    4   18    5     -1.62      0.00
    5   18    5     -0.01      0.00
    6   18    5     -2.73      0.00
    7   18    5     -2.45      0.00
    8   18    5      0.60      0.00
    9   18    5     -1.99      0.00
   10   18    5      0.96      0.00
   11   18    5      2.24      0.00
   12   18    5     -0.77      0.00
   13   18    5      1.23      0.00
   14   18    5      0.75      0.00
   15   18    5     -1.66      0.00
   16   18    5      1.47      0.00
   17   18    5     -3.89      0.00
   18   18    5     -0.89      0.00
  -18   19    5      5.26      0.00
  -17   19    5     -0.51      0.00
  -16   19    5     -0.13      0.00
  -15   19    5      0.04      0.00
  -14   19    5     -3.70      0.00
  -13   19    5      0.72      0.00
  -12   19    5     -1.08      0.00
  -11   19    5     -0.05      0.00
  -10   19    5      1.17      0.00
   -9   19    5     -1.30      0.00
   -8   19    5     -0.57      0.00
   -7   19    5     -0.49      0.00
   -6   19    5      2.10      0.00
   -5   19    5     -0.51      0.00
   -4   19    5     -2.47      0.00
   -3   19    5     -1.60      0.00
   -2   19    5      0.22      0.00
   -1   19    5     -0.02      0.00
    0   19    5      0.68      0.00
    1   19    5      1.36      0.00
    2   19    5     -0.35      0.00
    3   19    5      2.02      0.00
    4   19    5      1.53      0.00
    5   19    5      0.38      0.00
    6   19    5     -0.23      0.00
    7   19    5     -0.17      0.00
    8   19    5     -0.08      0.00
    9   19    5     -0.59      0.00
   10   19    5     -0.92      0.00
   11   19    5     -0.64      0.00
   12   19    5     -0.56      0.00
   13   19    5     -0.88      0.00
   14   19    5      0.07      0.00
   15   19    5      1.77      0.00
   16   19    5      2.77      0.00
   17   19    5      1.64      0.00
   18   19    5     -6.30      0.00
   19   19    5      0.25      0.00
  -19   20    5     -0.05      0.00
  -18   20    5     -0.29      0.00
  -17   20    5      2.76      0.00
  -16   20    5     -3.11      0.00
  -15   20    5      2.69      0.00
  -14   20    5      2.40      0.00
  -13   20    5     -2.28      0.00
  -12   20    5     -0.91      0.00
  -11   20    5      1.14      0.00
  -10   20    5      2.37      0.00
   -9   20    5     -1.25      0.00
   -8   20    5     -0.56      0.00
   -7   20    5     -2.47      0.00
   -6   20    5      1.17      0.00
   -5   20    5      2.75      0.00
   -4   20    5     -1.83      0.00
   -3   20    5     -0.52      0.00
   -2   20    5     -1.86      0.00
   -1   20    5     -0.76      0.00
    0   20    5     -0.13      0.00
    1   20    5     -0.67      0.00
    2   20    5     -1.16      0.00
    3   20    5      0.26      0.00
    4   20    5     -0.64      0.00
    5   20    5      1.61      0.00
    6   20    5      1.23      0.00
    7   20    5     -1.56      0.00
    8   20    5     -0.36      0.00
    9   20    5      0.86      0.00
   10   20    5      1.10      0.00
   11   20    5     -0.90      0.00
   12   20    5     -0.95      0.00
   13   20    5      0.68      0.00
   14   20    5     -2.14      0.00
   15   20    5      0.12      0.00
   16   20    5      0.90      0.00
   17   20    5      0.53      0.00
   18   20    5      1.80      0.00
   19   20    5      0.02      0.00
   20   20    5      0.72      0.00
  -20   21    5     -3.21      0.00
  -19   21    5      0.55      0.00
  -18   21    5      2.49      0.00
  -17   21    5      3.35      0.00
  -16   21    5      0.07      0.00
  -15   21    5     -2.62      0.00
  -14   21    5      0.95      0.00
  -13   21    5     -1.65      0.00
  -12   21    5      0.21      0.00
  -11   21    5      1.66      0.00
  -10   21    5      2.10      0.00
   -9   21    5      0.42      0.00
   -8   21    5     -0.09      0.00
   -7   21    5      1.40      0.00
   -6   21    5     -1.74      0.00
   -5   21    5      1.70      0.00
   -4   21    5      0.32      0.00
   -3   21    5      0.54      0.00
   -2   21    5     -0.16      0.00
   -1   21    5     -2.20      0.00
    0   21    5      1.63      0.00
    1   21    5      0.84      0.00
    2   21    5     -0.84      0.00
    3   21    5      0.41      0.00
    4   21    5     -1.02      0.00
    5   21    5      0.70      0.00
    6   21    5      2.01      0.00
    7   21    5     -1.94      0.00
    8   21    5      0.04      0.00
    9   21    5      0.49      0.00
   10   21    5     -1.45      0.00
   11   21    5     -0.04      0.00
   12   21    5     -0.68      0.00
   13   21    5      0.06      0.00
   14   21    5      1.65      0.00
   15   21    5     -2.00      0.00
   16   21    5     -1.14      0.00
   17   21    5     -0.41      0.00
   18   21    5     -1.70      0.00
   19   21    5      3.13      0.00
   20   21    5      1.08      0.00
   21   21    5     -1.22      0.00
  -21   22    5      0.59      0.00
  -20   22    5     -0.73      0.00
  -19   22    5     -3.53      0.00
  -18   22    5     -1.28      0.00
  -17   22    5      0.26      0.00
  -16   22    5      1.19      0.00
  -15   22    5      1.39      0.00
  -14   22    5      1.09      0.00
  -13   22    5     -1.44      0.00
  -12   22    5     -1.81      0.00
  -11   22    5      0.59      0.00
  -10   22    5     -1.70      0.00
   -9   22    5      1.15      0.00
   -8   22    5      0.61      0.00
   -7   22    5     -0.80      0.00
   -6   22    5      0.47      0.00
   -5   22    5      0.72      0.00
   -4   22    5      1.54      0.00
   -3   22    5     -0.63      0.00
   -2   22    5      1.31      0.00
   -1   22    5     -1.86      0.00
    0   22    5     -2.33      0.00
    1   22    5      2.37      0.00
    2   22    5     -1.07      0.00
    3   22    5     -0.59      0.00
    4   22    5      0.93      0.00
    5   22    5      0.15      0.00
    6   22    5     -0.43      0.00
    7   22    5      0.84      0.00
    8   22    5      3.50      0.00
    9   22    5      0.65      0.00
   10   22    5     -0.82      0.00
   11   22    5     -0.58      0.00
   12   22    5      0.27      0.00
   13   22    5      1.29      0.00
   14   22    5     -1.56      0.00
   15   22    5     -0.48      0.00
   16   22    5     -0.05      0.00
   17   22    5      2.53      0.00
   18   22    5     -1.35      0.00
   19   22    5     -2.82      0.00
   20   22    5      2.58      0.00
   21   22    5     -1.91      0.00
   22   22    5      0.24      0.00
  -22   23    5      0.83      0.00
  -21   23    5     -0.92      0.00
  -20   23    5      1.89      0.00
  -19   23    5      0.89      0.00
  -18   23    5     -2.64      0.00
  -17   23    5     -0.11      0.00
  -16   23    5     -0.46      0.00
  -15   23    5     -1.17      0.00
  -14   23    5      2.31      0.00
  -13   23    5      1.23      0.00
  -12   23    5     -1.25      0.00
  -11   23    5     -0.18      0.00
  -10   23    5      0.57      0.00
   -9   23    5     -0.15      0.00
   -8   23    5      1.75      0.00
   -7   23    5     -1.05      0.00
   -6   23    5     -0.25      0.00
   -5   23    5      1.00      0.00
   -4   23    5     -1.35      0.00
   -3   23    5     -1.13      0.00
   -2   23    5      1.22      0.00
   -1   23    5      2.75      0.00
    0   23    5     -1.44      0.00
    1   23    5      1.73      0.00
    2   23    5     -1.30      0.00
    3   23    5     -1.89      0.00
    4   23    5      1.29      0.00
    5   23    5     -3.22      0.00
    6   23    5      0.00      0.00
    7   23    5     -1.17      0.00
    8   23    5     -1.13      0.00
    9   23    5      1.33      0.00
   10   23    5      2.13      0.00
   11   23    5      2.25      0.00
   12   23    5     -1.60      0.00
   13   23    5      0.66      0.00
   14   23    5     -0.91      0.00
   15   23    5     -2.08      0.00
   16   23    5      2.77      0.00
   17   23    5     -0.33      0.00
   18   23    5      2.46      0.00
   19   23    5     -1.14      0.00
   20   23    5     -1.87      0.00
   21   23    5      1.35      0.00
   22   23    5     -1.09      0.00
   23   23    5     -0.58      0.00
  -22   24    5      0.32      0.00
  -21   24    5      1.04      0.00
  -20   24    5     -1.38      0.00
  -19   24    5     -0.11      0.00
  -18   24    5     -1.66      0.00
  -17   24    5     -1.65      0.00
  -16   24    5      3.66      0.00
  -15   24    5     -2.05      0.00
  -14   24    5     -2.38      0.00
  -13   24    5      1.22      0.00
  -12   24    5     -1.72      0.00
  -11   24    5     -1.11      0.00
  -10   24    5     -0.44      0.00
   -9   24    5      1.05      0.00
   -8   24    5      1.04      0.00
   -7   24    5      0.57      0.00
   -6   24    5      1.25      0.00
   -5   24    5      1.04      0.00
   -4   24    5     -0.54      0.00
   -3   24    5      0.05      0.00
   -2   24    5     -0.91      0.00
   -1   24    5      1.44      0.00
    0   24    5     -1.75      0.00
    1   24    5     -2.10      0.00
    2   24    5      4.79      0.00
    3   24    5      0.03      0.00
    4   24    5      1.69      0.00
    5   24    5     -0.34      0.00
    6   24    5      1.17      0.00
    7   24    5      0.52      0.00
    8   24    5     -5.92      0.00
    9   24    5     -0.95      0.00
   10   24    5      2.00      0.00
   11   24    5      2.14      0.00
   12   24    5      0.34      0.00
   13   24    5     -1.69      0.00
   14   24    5      2.76      0.00
   15   24    5     -0.98      0.00
   16   24    5     -1.84      0.00
   17   24    5      0.87      0.00
   18   24    5     -1.82      0.00
   19   24    5      1.32      0.00
   20   24    5      2.79      0.00
   21   24    5      0.91      0.00
   22   24    5     -2.73      0.00
  -21   25    5      2.51      0.00
  -20   25    5      0.59      0.00
  -19   25    5      0.25      0.00
  -18   25    5      2.96      0.00
  -17   25    5     -1.17      0.00
  -16   25    5     -0.53      0.00
  -15   25    5      1.95      0.00
  -14   25    5     -3.34      0.00
  -13   25    5      1.64      0.00
  -12   25    5      0.07      0.00
  -11   25    5     -2.80      0.00
  -10   25    5     -0.91      0.00
   -9   25    5     -2.93      0.00
   -8   25    5      0.95      0.00
   -7   25    5     -2.14      0.00
   -6   25    5     -1.84      0.00
   -5   25    5      3.53      0.00
   -4   25    5      1.00      0.00
   -3   25    5      0.15      0.00
   -2   25    5     -0.20      0.00
   -1   25    5      0.57      0.00
    0   25    5      2.72      0.00
    1   25    5     -4.87      0.00
    2   25    5     -0.34      0.00
    3   25    5     -0.27      0.00
    4   25    5     -1.90      0.00
    5   25    5      2.62      0.00
    6   25    5     -0.67      0.00
    7   25    5      1.61      0.00
    8   25    5      2.20      0.00
    9   25    5     -1.94      0.00
   10   25    5     -2.90      0.00
   11   25    5     -0.29      0.00
   12   25    5      1.00      0.00
   13   25    5      1.15      0.00
   14   25    5      1.62      0.00
   15   25    5      1.97      0.00
   16   25    5     -1.94      0.00
   17   25    5      0.08      0.00
   18   25    5      0.37      0.00
   19   25    5     -1.79      0.00
   20   25    5      2.34      0.00
   21   25    5      1.88      0.00
  -19   26    5     -1.59      0.00
  -18   26    5     -0.16      0.00
  -17   26    5      3.36      0.00
  -16   26    5     -1.43      0.00
  -15   26    5      1.14      0.00
  -14   26    5      5.96      0.00
  -13   26    5     -0.20      0.00
  -12   26    5      0.02      0.00
  -11   26    5     -2.66      0.00
  -10   26    5      1.33      0.00
   -9   26    5      1.26      0.00
   -8   26    5     -2.08      0.00
   -7   26    5     -0.63      0.00
   -6   26    5     -3.21      0.00
   -5   26    5     -0.04      0.00
   -4   26    5      1.98      0.00
   -3   26    5     -1.20      0.00
   -2   26    5     -0.35      0.00
   -1   26    5     -1.24      0.00
    0   26    5      2.37      0.00
    1   26    5      3.61      0.00
    2   26    5      0.47      0.00
    3   26    5      0.29      0.00
    4   26    5     -2.24      0.00
    5   26    5     -1.33      0.00
    6   26    5     -1.27      0.00
    7   26    5     -0.05      0.00
    8   26    5      0.79      0.00
    9   26    5      1.04      0.00
   10   26    5     -2.24      0.00
   11   26    5     -1.43      0.00
   12   26    5      0.00      0.00
   13   26    5     -0.74      0.00
   14   26    5     -1.74      0.00
   15   26    5     -0.27      0.00
   16   26    5      2.69      0.00
   17   26    5     -1.56      0.00
   18   26    5      0.76      0.00
   19   26    5      1.62      0.00
  -18   27    5     -2.02      0.00
  -17   27    5     -3.79      0.00
  -16   27    5     -1.27      0.00
  -15   27    5     -1.60      0.00
  -14   27    5      3.10      0.00
  -13   27    5      2.97      0.00
  -12   27    5     -0.29      0.00
  -11   27    5      2.90      0.00
  -10   27    5     -0.88      0.00
   -9   27    5     -1.79      0.00
   -8   27    5      0.77      0.00
   -7   27    5      0.84      0.00
   -6   27    5     -0.57      0.00
   -5   27    5     -2.51      0.00
   -4   27    5     -0.83      0.00
   -3   27    5      1.04      0.00
   -2   27    5     -1.55      0.00
   -1   27    5      0.46      0.00
    0   27    5     -0.26      0.00
    1   27    5     -2.27      0.00
    2   27    5      1.93      0.00
    3   27    5      3.54      0.00
    4   27    5     -0.15      0.00
    5   27    5      0.85      0.00
    6   27    5      0.13      0.00
    7   27    5      2.79      0.00
    8   27    5     -1.11      0.00
    9   27    5     -2.85      0.00
   10   27    5      2.89      0.00
   11   27    5     -0.24      0.00
   12   27    5      0.11      0.00
   13   27    5      0.28      0.00
   14   27    5     -0.32      0.00
   15   27    5     -2.98      0.00
   16   27    5     -0.69      0.00
   17   27    5      0.84      0.00
   18   27    5     -1.70      0.00
  -17   28    5     -0.62      0.00
  -16   28    5     -1.48      0.00
  -15   28    5      1.13      0.00
  -14   28    5     -3.37      0.00
  -13   28    5     -2.29      0.00
  -12   28    5      2.28      0.00
  -11   28    5      2.55      0.00
  -10   28    5      1.91      0.00
   -9   28    5     -1.26      0.00
   -8   28    5      3.02      0.00
   -7   28    5      2.78      0.00
   -6   28    5     -4.32      0.00
   -5   28    5      0.36      0.00
   -4   28    5     -1.61      0.00
   -3   28    5     -1.08      0.00
   -2   28    5     -0.73      0.00
   -1   28    5     -4.46      0.00
    0   28    5      2.82      0.00
    1   28    5      1.24      0.00
    2   28    5     -3.49      0.00
    3   28    5      1.38      0.00
    4   28    5     -1.62      0.00
    5   28    5      1.47      0.00
    6   28    5      1.27      0.00
    7   28    5     -3.96      0.00
    8   28    5      5.19      0.00
    9   28    5      0.32      0.00
   10   28    5     -2.28      0.00
   11   28    5      0.44      0.00
   12   28    5     -0.51      0.00
   13   28    5      1.95      0.00
   14   28    5      2.03      0.00
   15   28    5      0.62      0.00
   16   28    5     -2.27      0.00
   17   28    5      1.20      0.00
  -15   29    5     -3.89      0.00
  -14   29    5      0.55      0.00
  -13   29    5      2.02      0.00
  -12   29    5      1.01      0.00
  -11   29    5     -1.80      0.00
  -10   29    5     -4.24      0.00
   -9   29    5      1.09      0.00
   -8   29    5      2.45      0.00
   -7   29    5      5.34      0.00
   -6   29    5      2.61      0.00
   -5   29    5      2.74      0.00
   -4   29    5      0.71      0.00
   -3   29    5     -2.54      0.00
   -2   29    5      2.88      0.00
   -1   29    5     -3.73      0.00
    0   29    5     -5.05      0.00
    1   29    5      1.82      0.00
    2   29    5     -2.69      0.00
    3   29    5      0.90      0.00
    4   29    5      3.53      0.00
    5   29    5     -3.00      0.00
    6   29    5      2.48      0.00
    7   29    5     -2.40      0.00
    8   29    5     -2.34      0.00
    9   29    5      5.26      0.00
   10   29    5     -2.18      0.00
   11   29    5     -0.04      0.00
   12   29    5     -0.44      0.00
   13   29    5     -0.87      0.00
   14   29    5      0.23      0.00
   15   29    5     -0.16      0.00
  -13   30    5      2.76      0.00
  -12   30    5     -0.63      0.00
  -11   30    5      0.59      0.00
  -10   30    5      1.42      0.00
   -9   30    5     -4.09      0.00
   -8   30    5     -7.69      0.00
   -7   30    5     -0.01      0.00
   -6   30    5      2.73      0.00
   -5   30    5      1.58      0.00
   -4   30    5      5.32      0.00
   -3   30    5      2.25      0.00
   -2   30    5      2.49      0.00
   -1   30    5      2.60      0.00
    0   30    5     -1.43      0.00
    1   30    5     -1.38      0.00
    2   30    5     -1.72      0.00
    3   30    5     -2.77      0.00
    4   30    5      2.24      0.00
    5   30    5     -1.77      0.00
    6   30    5     -3.14      0.00
    7   30    5      5.79      0.00
    8   30    5     -1.48      0.00
    9   30    5     -2.08      0.00
   10   30    5      2.46      0.00
   11   30    5      0.26      0.00
   12   30    5      0.34      0.00
   13   30    5     -1.98      0.00
  -10   31    5      3.55      0.00
   -9   31    5      2.10      0.00
   -8   31    5     -3.83      0.00
   -7   31    5     -2.47      0.00
   -6   31    5     -1.87      0.00
   -5   31    5     -6.41      0.00
   -4   31    5      0.67      0.00
   -3   31    5      1.54      0.00
   -2   31    5      2.49      0.00
   -1   31    5      1.17      0.00
    0   31    5     -0.24      0.00
    1   31    5      2.10      0.00
    2   31    5      3.59      0.00
    3   31    5      0.00      0.00
    4   31    5     -2.82      0.00
    5   31    5      0.91      0.00
    6   31    5     -1.07      0.00
    7   31    5     -2.14      0.00
    8   31    5      1.35      0.00
    9   31    5     -1.35      0.00
   10   31    5      0.70      0.00
   -7   32    5     -2.11      0.00
   -6   32    5      1.28      0.00
   -5   32    5      0.74      0.00
   -4   32    5     -0.75      0.00
   -3   32    5     -5.12      0.00
   -2   32    5     -0.42      0.00
   -1   32    5      3.87      0.00
    0   32    5     -1.64      0.00
    1   32    5     -0.52      0.00
    2   32    5     -1.79      0.00
    3   32    5      0.82      0.00
    4   32    5      1.80      0.00
    5   32    5      0.68      0.00
    6   32    5      2.71      0.00
    7   32    5     -0.11      0.00
    0    0    6     -3.99      0.00
    0    1    6     -2.11      0.00
    1    1    6     -0.13      0.00
   -1    2    6      0.76      0.00
    0    2    6     -0.79      0.00
    1    2    6      5.24      0.00
    2    2    6     -0.82      0.00
   -2    3    6     -3.75      0.00
   -1    3    6      1.51      0.00
    0    3    6      1.99      0.00
    1    3    6     -4.68      0.00
    2    3    6     -1.81      0.00
    3    3    6     -3.20      0.00
   -3    4    6     -2.80      0.00
   -2    4    6      3.41      0.00
   -1    4    6      2.96      0.00
    0    4    6      4.97      0.00
    1    4    6     -0.73      0.00
    2    4    6     -1.69      0.00
    3    4    6     -1.51      0.00
    4    4    6     -3.10      0.00
   -4    5    6     -2.53      0.00
   -3    5    6     -3.64      0.00
   -2    5    6      0.81      0.00
   -1    5    6     -0.47      0.00
    0    5    6     -1.77      0.00
    1    5    6      3.39      0.00
    2    5    6      7.70      0.00
    3    5    6     -0.47      0.00
    4    5    6     -3.20      0.00
    5    5    6      0.40      0.00
   -5    6    6      1.10      0.00
   -4    6    6      0.18      0.00
   -3    6    6     -0.57      0.00
   -2    6    6     -0.17      0.00
   -1    6    6     -2.39      0.00
    0    6    6     -0.64      0.00
    1    6    6     -0.09      0.00
    2    6    6      0.82      0.00
    3    6    6      1.21      0.00
    4    6    6     -1.88      0.00
    5    6    6      2.69      0.00
    6    6    6      0.43      0.00
   -6    7    6      0.28      0.00
   -5    7    6     -1.08      0.00
   -4    7    6      1.17      0.00
   -3    7    6     -0.92      0.00
   -2    7    6     -1.91      0.00
   -1    7    6     -0.33      0.00
    0    7    6      0.84      0.00
    1    7    6      1.07      0.00
    2    7    6     -2.59      0.00
    3    7    6      1.40      0.00
    4    7    6      0.73      0.00
    5    7    6     -1.22      0.00
    6    7    6     -0.86      0.00
    7    7    6     -1.15      0.00
   -7    8    6     -0.65      0.00
   -6    8    6      1.79      0.00
   -5    8    6      1.37      0.00
   -4    8    6      1.22      0.00
   -3    8    6      0.04      0.00
   -2    8    6     -2.40      0.00
   -1    8    6     -0.15      0.00
    0    8    6     -0.12      0.00
    1    8    6     -1.95      0.00
    2    8    6     -0.06      0.00
    3    8    6      2.29      0.00
    4    8    6     -0.83      0.00
    5    8    6     -0.82      0.00
    6    8    6      0.42      0.00
    7    8    6     -1.07      0.00
    8    8    6      1.16      0.00
   -8    9    6      0.13      0.00
   -7    9    6     -1.53      0.00
   -6    9    6     -0.82      0.00
   -5    9    6      1.11      0.00
   -4    9    6      2.83      0.00
   -3    9    6      0.29      0.00
   -2    9    6     -0.42      0.00
   -1    9    6     -0.84      0.00
    0    9    6     -0.78      0.00
    1    9    6      0.87      0.00
    2    9    6      0.24      0.00
    3    9    6      1.12      0.00
    4    9    6     -1.15      0.00
    5    9    6     -2.36      0.00
    6    9    6      1.53      0.00
    7    9    6     -2.43      0.00
    8    9    6     -1.05      0.00
    9    9    6      2.21      0.00
   -9   10    6     -1.67      0.00
   -8   10    6     -0.38      0.00
   -7   10    6     -0.37      0.00
   -6   10    6      1.03      0.00
   -5   10    6     -0.36      0.00
   -4   10    6     -0.34      0.00
   -3   10    6      0.94      0.00
   -2   10    6     -0.20      0.00
   -1   10    6      0.70      0.00
    0   10    6     -1.43      0.00
    1   10    6      0.14      0.00
    2   10    6     -1.00      0.00
    3   10    6     -0.84      0.00
    4   10    6      4.16      0.00
    5   10    6      0.34      0.00
    6   10    6     -0.33      0.00
    7   10    6     -0.83      0.00
    8   10    6     -4.12      0.00
    9   10    6     -1.50      0.00
   10   10    6      1.67      0.00
  -10   11    6      0.55      0.00
   -9   11    6     -1.08      0.00
   -8   11    6     -0.54      0.00
   -7   11    6     -0.39      0.00
   -6   11    6     -0.95      0.00
   -5   11    6      1.14      0.00
   -4   11    6     -0.07      0.00
   -3   11    6      1.95      0.00
   -2   11    6      1.04      0.00
   -1   11    6     -0.30      0.00
    0   11    6     -0.14      0.00
    1   11    6     -0.75      0.00
    2   11    6     -0.02      0.00
    3   11    6     -1.74      0.00
    4   11    6      1.12      0.00
    5   11    6      1.14      0.00
    6   11    6      0.29      0.00
    7   11    6      1.01      0.00
    8   11    6      0.22      0.00
    9   11    6     -2.06      0.00
   10   11    6     -1.12      0.00
   11   11    6      0.60      0.00
  -11   12    6      1.17      0.00
  -10   12    6      0.96      0.00
   -9   12    6      0.61      0.00
   -8   12    6     -0.63      0.00
   -7   12    6     -0.03      0.00
   -6   12    6     -1.29      0.00
   -5   12    6     -2.33      0.00
   -4   12    6      1.01      0.00
   -3   12    6      1.45      0.00
   -2   12    6      1.13      0.00
   -1   12    6     -0.20      0.00
    0   12    6     -0.03      0.00
    1   12    6     -0.71      0.00
    2   12    6      0.76      0.00
    3   12    6      0.92      0.00
    4   12    6      0.64      0.00
    5   12    6     -0.86      0.00
    6   12    6      0.52      0.00
    7   12    6      0.86      0.00
    8   12    6     -0.91      0.00
    9   12    6      0.32      0.00
   10   12    6     -1.74      0.00
   11   12    6      0.63      0.00
   12   12    6      1.32      0.00
  -12   13    6     -0.37      0.00
  -11   13    6     -0.66      0.00
  -10   13    6      1.15      0.00
   -9   13    6      1.33      0.00
   -8   13    6     -0.76      0.00
   -7   13    6     -0.49      0.00
   -6   13    6      1.36      0.00
   -5   13    6     -1.58      0.00
   -4   13    6     -1.15      0.00
   -3   13    6      1.68      0.00
   -2   13    6     -0.52      0.00
   -1   13    6      0.16      0.00
    0   13    6      1.24      0.00
    1   13    6      0.29      0.00
    2   13    6     -0.60      0.00
    3   13    6     -2.51      0.00
    4   13    6      0.52      0.00
    5   13    6      3.03      0.00
    6   13    6      0.62      0.00
    7   13    6      2.33      0.00
    8   13    6     -0.25      0.00
    9   13    6      0.00      0.00
   10   13    6     -1.02      0.00
   11   13    6     -1.41      0.00
   12   13    6      0.98      0.00
   13   13    6      1.26      0.00
  -13   14    6     -0.44      0.00
  -12   14    6      0.23      0.00
  -11   14    6     -0.21      0.00
  -10   14    6     -1.29      0.00
   -9   14    6      1.21      0.00
   -8   14    6      0.59      0.00
   -7   14    6      0.55      0.00
   -6   14    6     -1.51      0.00
   -5   14    6     -0.88      0.00
   -4   14    6     -1.83      0.00
   -3   14    6     -0.25      0.00
   -2   14    6      1.13      0.00
   -1   14    6      0.61      0.00
    0   14    6      0.12      0.00
    1   14    6     -0.69      0.00
    2   14    6      0.37      0.00
    3   14    6     -0.64      0.00
    4   14    6     -3.27      0.00
    5   14    6      1.14      0.00
    6   14    6      0.37      0.00
    7   14    6      1.49      0.00
    8   14    6      1.28      0.00
    9   14    6      0.46      0.00
   10   14    6      0.06      0.00
   11   14    6      0.63      0.00
   12   14    6      0.80      0.00
   13   14    6     -0.35      0.00
   14   14    6     -0.21      0.00
  -14   15    6      1.22      0.00
  -13   15    6      0.48      0.00
  -12   15    6     -1.53      0.00
  -11   15    6      1.83      0.00
  -10   15    6     -1.37      0.00
   -9   15    6      0.96      0.00
   -8   15    6      0.70      0.00
   -7   15    6     -1.27      0.00
   -6   15    6      1.86      0.00
   -5   15    6      0.61      0.00
   -4   15    6     -1.33      0.00
   -3   15    6     -1.51      0.00
   -2   15    6      0.33      0.00
   -1   15    6      0.77      0.00
    0   15    6     -0.64      0.00
    1   15    6     -0.77      0.00
    2   15    6      0.28      0.00
    3   15    6      1.11      0.00
    4   15    6     -1.73      0.00
    5   15    6     -1.79      0.00
    6   15    6     -0.47      0.00
    7   15    6      0.28      0.00
    8   15    6     -0.05      0.00
    9   15    6     -0.22      0.00
   10   15    6      1.29      0.00
   11   15    6     -1.52      0.00
   12   15    6      0.79      0.00
   13   15    6      0.16      0.00
   14   15    6      0.21      0.00
   15   15    6      0.67      0.00
  -15   16    6     -0.92      0.00
  -14   16    6     -0.40      0.00
  -13   16    6      1.56      0.00
  -12   16    6     -3.40      0.00
  -11   16    6      0.64      0.00
  -10   16    6      2.75      0.00
   -9   16    6     -1.35      0.00
   -8   16    6      1.67      0.00
   -7   16    6     -1.60      0.00
   -6   16    6      0.35      0.00
   -5   16    6      1.85      0.00
   -4   16    6     -2.71      0.00
   -3   16    6      0.05      0.00
   -2   16    6      1.00      0.00
   -1   16    6     -0.01      0.00
    0   16    6      1.09      0.00
    1   16    6      0.05      0.00
    2   16    6     -0.05      0.00
    3   16    6      0.14      0.00
    4   16    6     -1.34      0.00
    5   16    6     -0.16      0.00
    6   16    6      0.06      0.00
    7   16    6     -1.08      0.00
    8   16    6      0.45      0.00
    9   16    6     -0.13      0.00
   10   16    6      2.52      0.00
   11   16    6     -1.38      0.00
   12   16    6     -1.96      0.00
   13   16    6      1.30      0.00
   14   16    6      1.10      0.00
   15   16    6      0.28      0.00
   16   16    6     -0.64      0.00
  -16   17    6     -0.47      0.00
  -15   17    6      4.32      0.00
  -14   17    6     -0.55      0.00
  -13   17    6     -1.80      0.00
  -12   17    6      0.14      0.00
  -11   17    6     -2.87      0.00
  -10   17    6      0.29      0.00
   -9   17    6     -0.37      0.00
   -8   17    6      0.31      0.00
   -7   17    6      3.78      0.00
   -6   17    6     -0.24      0.00
   -5   17    6      1.07      0.00
   -4   17    6     -1.49      0.00
   -3   17    6     -2.07      0.00
   -2   17    6     -0.07      0.00
   -1   17    6     -1.17      0.00
    0   17    6      1.85      0.00
    1   17    6      2.18      0.00
    2   17    6     -1.60      0.00
    3   17    6     -0.27      0.00
    4   17    6      0.32      0.00
    5   17    6     -1.20      0.00
    6   17    6     -0.17      0.00
    7   17    6     -1.36      0.00
    8   17    6      0.50      0.00
    9   17    6     -0.82      0.00
   10   17    6     -0.80      0.00
   11   17    6      0.83      0.00
   12   17    6     -0.48      0.00
   13   17    6      1.24      0.00
   14   17    6      0.25      0.00
   15   17    6      0.97      0.00
   16   17    6      0.65      0.00
   17   17    6     -0.54      0.00
  -17   18    6     -0.45      0.00
  -16   18    6     -1.93      0.00
  -15   18    6     -0.38      0.00
  -14   18    6      2.64      0.00
  -13   18    6     -0.12      0.00
  -12   18    6      2.25      0.00
  -11   18    6      1.29      0.00
  -10   18    6     -4.34      0.00
   -9   18    6     -1.41      0.00
   -8   18    6      0.27      0.00
   -7   18    6      1.29      0.00
   -6   18    6     -1.48      0.00
   -5   18    6      1.07      0.00
   -4   18    6      5.13      0.00
   -3   18    6     -1.26      0.00
   -2   18    6     -0.85      0.00
   -1   18    6     -0.74      0.00
    0   18    6     -0.14      0.00
    1   18    6      0.32      0.00
    2   18    6      1.56      0.00
    3   18    6      0.51      0.00
    4   18    6      1.69      0.00
    5   18    6     -0.39      0.00
    6   18    6     -1.20      0.00
    7   18    6      0.15      0.00
    8   18    6      0.87      0.00
    9   18    6     -1.36      0.00
   10   18    6     -2.20      0.00
   11   18    6      0.30      0.00
   12   18    6     -0.70      0.00
   13   18    6     -1.16      0.00
   14   18    6     -0.47      0.00
   15   18    6     -1.23      0.00
   16   18    6      1.96      0.00
   17   18    6     -0.22      0.00
   18   18    6     -0.24      0.00
  -18   19    6      1.34      0.00
  -17   19    6      0.19      0.00
  -16   19    6      1.10      0.00
  -15   19    6     -3.89      0.00
  -14   19    6     -0.58      0.00
  -13   19    6      3.75      0.00
  -12   19    6     -1.91      0.00
  -11   19    6     -0.33      0.00
  -10   19    6      2.40      0.00
   -9   19    6     -1.55      0.00
   -8   19    6     -1.78      0.00
   -7   19    6     -0.83      0.00
   -6   19    6     -0.17      0.00
   -5   19    6     -2.13      0.00
   -4   19    6      4.10      0.00
   -3   19    6     -1.38      0.00
   -2   19    6     -1.08      0.00
   -1   19    6      0.98      0.00
    0   19    6     -0.88      0.00
    1   19    6     -0.16      0.00
    2   19    6      0.24      0.00
    3   19    6      1.49      0.00
    4   19    6     -0.77      0.00
    5   19    6      1.34      0.00
    6   19    6      1.18      0.00
    7   19    6      0.20      0.00
    8   19    6      1.20      0.00
    9   19    6      0.75      0.00
   10   19    6      0.41      0.00
   11   19    6      1.85      0.00
   12   19    6     -0.45      0.00
   13   19    6     -1.03      0.00
   14   19    6     -0.50      0.00
   15   19    6     -1.13      0.00
   16   19    6     -1.20      0.00
   17   19    6      0.78      0.00
   18   19    6     -2.91      0.00
   19   19    6      0.51      0.00
  -19   20    6     -0.37      0.00
  -18   20    6      0.13      0.00
  -17   20    6     -0.17      0.00
  -16   20    6      0.33      0.00
  -15   20    6      0.66      0.00
  -14   20    6     -0.71      0.00
  -13   20    6      2.20      0.00
  -12   20    6      0.15      0.00
  -11   20    6     -3.49      0.00
  -10   20    6      2.99      0.00
   -9   20    6      2.00      0.00
   -8   20    6     -1.58      0.00
   -7   20    6     -3.11      0.00
   -6   20    6      1.83      0.00
   -5   20    6     -0.96      0.00
   -4   20    6     -2.15      0.00
   -3   20    6      2.59      0.00
   -2   20    6     -1.32      0.00
   -1   20    6      1.60      0.00
    0   20    6     -1.73      0.00
    1   20    6     -0.28      0.00
    2   20    6     -1.04      0.00
    3   20    6     -0.08      0.00
    4   20    6     -0.62      0.00
    5   20    6     -2.10      0.00
    6   20    6      1.90      0.00
    7   20    6     -0.60      0.00
    8   20    6     -2.20      0.00
    9   20    6      1.41      0.00
   10   20    6      0.00      0.00
   11   20    6      1.77      0.00
   12   20    6      0.72      0.00
   13   20    6      0.26      0.00
   14   20    6      0.96      0.00
   15   20    6      1.45      0.00
   16   20    6      1.30      0.00
   17   20    6     -0.65      0.00
   18   20    6     -2.13      0.00
   19   20    6     -2.26      0.00
   20   20    6      0.90      0.00
  -20   21    6     -1.97      0.00
  -19   21    6     -1.22      0.00
  -18   21    6      1.00      0.00
  -17   21    6      2.28      0.00
  -16   21    6     -0.65      0.00
  -15   21    6      0.49      0.00
  -14   21    6      0.60      0.00
  -13   21    6     -1.61      0.00
  -12   21    6      1.91      0.00
  -11   21    6      0.26      0.00
  -10   21    6      0.58      0.00
   -9   21    6      1.64      0.00
   -8   21    6     -0.20      0.00
   -7   21    6      2.82      0.00
   -6   21    6      0.46      0.00
   -5   21    6     -1.97      0.00
   -4   21    6     -4.74      0.00
   -3   21    6      3.36      0.00
   -2   21    6      1.60      0.00
   -1   21    6     -2.03      0.00
    0   21    6      1.96      0.00
    1   21    6     -0.71      0.00
    2   21    6      0.10      0.00
    3   21    6      0.16      0.00
    4   21    6      1.03      0.00
    5   21    6      0.41      0.00
    6   21    6     -0.13      0.00
    7   21    6     -0.29      0.00
    8   21    6     -2.04      0.00
    9   21    6      1.18      0.00
   10   21    6     -1.49      0.00
   11   21    6     -2.61      0.00
   12   21    6      1.64      0.00
   13   21    6     -1.13      0.00
   14   21    6      0.64      0.00
   15   21    6      0.16      0.00
   16   21    6      1.19      0.00
   17   21    6      1.84      0.00
   18   21    6     -0.76      0.00
   19   21    6      0.08      0.00
   20   21    6     -0.34      0.00
   21   21    6     -0.50      0.00
  -21   22    6      1.11      0.00
  -20   22    6     -0.60      0.00
  -19   22    6     -2.06      0.00
  -18   22    6     -1.96      0.00
  -17   22    6     -0.94      0.00
  -16   22    6      0.77      0.00
  -15   22    6     -1.52      0.00
  -14   22    6     -0.40      0.00
  -13   22    6      0.26      0.00
  -12   22    6      0.57      0.00
  -11   22    6      0.35      0.00
  -10   22    6     -2.58      0.00
   -9   22    6      0.14      0.00
   -8   22    6     -0.31      0.00
   -7   22    6      1.27      0.00
   -6   22    6      3.36      0.00
   -5   22    6     -0.31      0.00
   -4   22    6      0.89      0.00
   -3   22    6     -0.37      0.00
   -2   22    6      0.15      0.00
   -1   22    6     -1.70      0.00
    0   22    6     -1.20      0.00
    1   22    6      1.23      0.00
    2   22    6     -0.27      0.00
    3   22    6     -0.41      0.00
    4   22    6     -2.85      0.00
    5   22    6      0.76      0.00
    6   22    6      2.40      0.00
    7   22    6      0.83      0.00
    8   22    6      1.83      0.00
    9   22    6      0.39      0.00
   10   22    6     -0.67      0.00
   11   22    6     -1.79      0.00
   12   22    6      1.17      0.00
   13   22    6      1.18      0.00
   14   22    6     -1.35      0.00
   15   22    6     -0.49      0.00
   16   22    6     -1.58      0.00
   17   22    6      1.74      0.00
   18   22    6      1.27      0.00
   19   22    6     -0.77      0.00
   20   22    6      1.27      0.00
   21   22    6     -1.15      0.00
   22   22    6     -0.29      0.00
  -21   23    6      1.17      0.00
  -20   23    6      2.84      0.00
  -19   23    6      2.04      0.00
  -18   23    6     -0.60      0.00
  -17   23    6     -4.01      0.00
  -16   23    6     -0.43      0.00
  -15   23    6      3.26      0.00
  -14   23    6     -1.14      0.00
  -13   23    6     -1.26      0.00
  -12   23    6      1.68      0.00
  -11   23    6      0.17      0.00
  -10   23    6     -1.40      0.00
   -9   23    6     -1.54      0.00
   -8   23    6      0.65      0.00
   -7   23    6     -3.01      0.00
   -6   23    6     -0.54      0.00
   -5   23    6      3.84      0.00
   -4   23    6     -0.91      0.00
   -3   23    6      0.87      0.00
   -2   23    6      0.40      0.00
   -1   23    6      0.72      0.00
    0   23    6      0.79      0.00
    1   23    6      3.04      0.00
    2   23    6     -0.49      0.00
    3   23    6     -1.10      0.00
    4   23    6      0.64      0.00
    5   23    6     -6.56      0.00
    6   23    6     -1.95      0.00
    7   23    6      2.52      0.00
    8   23    6      0.60      0.00
    9   23    6      0.92      0.00
   10   23    6     -0.86      0.00
   11   23    6     -0.04      0.00
   12   23    6      1.99      0.00
   13   23    6     -0.10      0.00
   14   23    6     -1.43      0.00
   15   23    6     -1.30      0.00
   16   23    6      1.42      0.00
   17   23    6      0.34      0.00
   18   23    6      0.69      0.00
   19   23    6      0.91      0.00
   20   23    6     -1.08      0.00
   21   23    6      0.16      0.00
  -20   24    6      0.12      0.00
  -19   24    6      0.79      0.00
  -18   24    6      0.25      0.00
  -17   24    6     -0.81      0.00
  -16   24    6     -1.89      0.00
  -15   24    6     -0.60      0.00
  -14   24    6      1.53      0.00
  -13   24    6     -0.94      0.00
  -12   24    6      1.34      0.00
  -11   24    6      0.74      0.00
  -10   24    6     -0.89      0.00
   -9   24    6      2.03      0.00
   -8   24    6     -1.84      0.00
   -7   24    6     -1.41      0.00
   -6   24    6     -1.25      0.00
   -5   24    6      2.15      0.00
   -4   24    6     -2.43      0.00
   -3   24    6     -4.36      0.00
   -2   24    6      5.12      0.00
   -1   24    6      1.10      0.00
    0   24    6     -3.13      0.00
    1   24    6      1.26      0.00
    2   24    6      3.12      0.00
    3   24    6      0.30      0.00
    4   24    6      5.25      0.00
    5   24    6      0.70      0.00
    6   24    6     -4.36      0.00
    7   24    6     -0.31      0.00
    8   24    6     -3.29      0.00
    9   24    6     -0.51      0.00
   10   24    6      5.17      0.00
   11   24    6     -2.93      0.00
   12   24    6      0.04      0.00
   13   24    6      1.64      0.00
   14   24    6     -0.36      0.00
   15   24    6      0.67      0.00
   16   24    6     -2.18      0.00
   17   24    6      1.49      0.00
   18   24    6     -1.74      0.00
   19   24    6     -1.25      0.00
   20   24    6      2.94      0.00
  -19   25    6     -1.40      0.00
  -18   25    6      2.89      0.00
  -17   25    6      2.12      0.00
  -16   25    6      0.89      0.00
  -15   25    6     -3.89      0.00
  -14   25    6     -3.35      0.00
  -13   25    6      0.64      0.00
  -12   25    6      0.05      0.00
  -11   25    6      1.99      0.00
  -10   25    6     -0.15      0.00
   -9   25    6      0.98      0.00
   -8   25    6      0.70      0.00
   -7   25    6     -2.67      0.00
   -6   25    6      0.29      0.00
   -5   25    6     -1.24      0.00
   -4   25    6      0.98      0.00
   -3   25    6     -3.45      0.00
   -2   25    6     -2.91      0.00
   -1   25    6      5.28      0.00
    0   25    6     -0.75      0.00
    1   25    6     -5.04      0.00
    2   25    6      1.69      0.00
    3   25    6      0.64      0.00
    4   25    6     -0.25      0.00
    5   25    6      3.20      0.00
    6   25    6      1.20      0.00
    7   25    6     -1.88      0.00
    8   25    6      0.16      0.00
    9   25    6     -1.91      0.00
   10   25    6      1.76      0.00
   11   25    6      0.58      0.00
   12   25    6     -5.45      0.00
   13   25    6      3.91      0.00
   14   25    6      1.81      0.00
   15   25    6      0.99      0.00
   16   25    6     -0.37      0.00
   17   25    6     -0.26      0.00
   18   25    6      2.70      0.00
   19   25    6     -3.73      0.00
  -17   26    6      2.83      0.00
  -16   26    6     -0.88      0.00
  -15   26    6      0.99      0.00
  -14   26    6      1.55      0.00
  -13   26    6     -1.32      0.00
  -12   26    6     -2.30      0.00
  -11   26    6      0.91      0.00
  -10   26    6      1.76      0.00
   -9   26    6      0.63      0.00
   -8   26    6      2.21      0.00
   -7   26    6     -0.09      0.00
   -6   26    6     -0.86      0.00
   -5   26    6      0.72      0.00
   -4   26    6     -0.11      0.00
   -3   26    6      0.63      0.00
   -2   26    6     -4.54      0.00
   -1   26    6     -3.09      0.00
    0   26    6      2.92      0.00
    1   26    6     -0.08      0.00
    2   26    6      1.06      0.00
    3   26    6      0.06      0.00
    4   26    6     -0.14      0.00
    5   26    6      0.75      0.00
    6   26    6     -0.14      0.00
    7   26    6     -0.27      0.00
    8   26    6     -1.07      0.00
    9   26    6      1.24      0.00
   10   26    6     -3.04      0.00
   11   26    6      0.95      0.00
   12   26    6     -0.84      0.00
   13   26    6     -0.69      0.00
   14   26    6      1.18      0.00
   15   26    6     -3.40      0.00
   16   26    6      0.65      0.00
   17   26    6      0.13      0.00
  -16   27    6     -0.77      0.00
  -15   27    6      0.73      0.00
  -14   27    6      1.48      0.00
  -13   27    6      0.53      0.00
  -12   27    6     -3.76      0.00
  -11   27    6     -0.50      0.00
  -10   27    6      1.37      0.00
   -9   27    6     -0.43      0.00
   -8   27    6      1.87      0.00
   -7   27    6      1.95      0.00
   -6   27    6      0.79      0.00
   -5   27    6      0.96      0.00
   -4   27    6      2.28      0.00
   -3   27    6     -1.17      0.00
   -2   27    6     -2.02      0.00
   -1   27    6     -0.39      0.00
    0   27    6     -0.72      0.00
    1   27    6     -3.43      0.00
    2   27    6     -0.49      0.00
    3   27    6      2.49      0.00
    4   27    6     -0.49      0.00
    5   27    6      1.73      0.00
    6   27    6      1.16      0.00
    7   27    6      3.94      0.00
    8   27    6     -1.06      0.00
    9   27    6     -2.87      0.00
   10   27    6      0.54      0.00
   11   27    6     -0.50      0.00
   12   27    6      1.23      0.00
   13   27    6     -1.96      0.00
   14   27    6      0.94      0.00
   15   27    6      0.92      0.00
   16   27    6     -1.60      0.00
  -14   28    6      0.01      0.00
  -13   28    6     -0.24      0.00
  -12   28    6      0.31      0.00
  -11   28    6     -4.63      0.00
  -10   28    6      0.18      0.00
   -9   28    6     -0.09      0.00
   -8   28    6      0.43      0.00
   -7   28    6      0.06      0.00
   -6   28    6     -0.61      0.00
   -5   28    6      2.40      0.00
   -4   28    6      2.86      0.00
   -3   28    6      2.94      0.00
   -2   28    6     -2.85      0.00
   -1   28    6     -1.27      0.00
    0   28    6      1.63      0.00
    1   28    6     -2.19      0.00
    2   28    6     -3.87      0.00
    3   28    6      0.18      0.00
    4   28    6     -0.57      0.00
    5   28    6     -0.71      0.00
    6   28    6      1.13      0.00
    7   28    6      1.47      0.00
    8   28    6      2.51      0.00
    9   28    6     -0.32      0.00
   10   28    6      0.60      0.00
   11   28    6     -0.44      0.00
   12   28    6     -1.05      0.00
   13   28    6     -1.42      0.00
   14   28    6      0.03      0.00
  -12   29    6      3.04      0.00
  -11   29    6     -0.34      0.00
  -10   29    6     -4.97      0.00
   -9   29    6      0.76      0.00
   -8   29    6      0.54      0.00
   -7   29    6     -0.66      0.00
   -6   29    6     -1.66      0.00
   -5   29    6      2.54      0.00
   -4   29    6     -0.68      0.00
   -3   29    6      2.45      0.00
   -2   29    6      6.22      0.00
   -1   29    6     -1.15      0.00
    0   29    6     -0.66      0.00
    1   29    6     -0.04      0.00
    2   29    6     -1.35      0.00
    3   29    6     -3.09      0.00
    4   29    6     -1.38      0.00
    5   29    6      0.31      0.00
    6   29    6     -1.03      0.00
    7   29    6      0.60      0.00
    8   29    6      0.91      0.00
    9   29    6      0.72      0.00
   10   29    6      1.54      0.00
   11   29    6      0.22      0.00
   12   29    6     -0.89      0.00
   -9   30    6     -2.49      0.00
   -8   30    6     -0.62      0.00
   -7   30    6      0.16      0.00
   -6   30    6     -1.77      0.00
   -5   30    6     -1.29      0.00
   -4   30    6      1.08      0.00
   -3   30    6     -1.04      0.00
   -2   30    6      2.57      0.00
   -1   30    6      1.23      0.00
    0   30    6      4.91      0.00
    1   30    6      3.28      0.00
    2   30    6     -2.95      0.00
    3   30    6      0.48      0.00
    4   30    6     -1.21      0.00
    5   30    6     -1.31      0.00
    6   30    6     -3.22      0.00
    7   30    6     -1.05      0.00
    8   30    6      2.86      0.00
    9   30    6     -1.33      0.00
   -5   31    6     -6.36      0.00
   -4   31    6      2.10      0.00
   -3   31    6      0.79      0.00
   -2   31    6     -2.42      0.00
   -1   31    6     -1.72      0.00
    0   31    6     -0.44      0.00
    1   31    6      5.77      0.00
    2   31    6      1.45      0.00
    3   31    6      0.89      0.00
    4   31    6      1.75      0.00
    5   31    6     -1.07      0.00
    0    0    7     -0.33      0.00
    0    1    7     -2.26      0.00
    1    1    7     -1.01      0.00
   -1    2    7     -0.11      0.00
    0    2    7      0.13      0.00
    1    2    7      3.37      0.00
    2    2    7     -1.09      0.00
   -2    3    7     -3.55      0.00
   -1    3    7     -0.82      0.00
    0    3    7      2.16      0.00
    1    3    7      0.67      0.00
    2    3    7     -0.41      0.00
    3    3    7     -2.15      0.00
   -3    4    7     -0.14      0.00
   -2    4    7      1.48      0.00
   -1    4    7      0.08      0.00
    0    4    7      0.13      0.00
    1    4    7     -0.74      0.00
    2    4    7      2.01      0.00
    3    4    7      0.15      0.00
    4    4    7     -1.56      0.00
   -4    5    7      0.10      0.00
   -3    5    7      0.36      0.00
   -2    5    7      1.29      0.00
   -1    5    7     -1.66      0.00
    0    5    7     -1.54      0.00
    1    5    7     -1.54      0.00
    2    5    7      2.90      0.00
    3    5    7      1.22      0.00
    4    5    7     -2.48      0.00
    5    5    7      1.89      0.00
   -5    6    7     -0.37      0.00
   -4    6    7      0.34      0.00
   -3    6    7     -0.01      0.00
   -2    6    7      0.90      0.00
   -1    6    7     -0.10      0.00
    0    6    7      0.52      0.00
    1    6    7      0.01      0.00
    2    6    7     -2.42      0.00
    3    6    7      0.95      0.00
    4    6    7     -2.16      0.00
    5    6    7     -0.71      0.00
    6    6    7      0.53      0.00
   -6    7    7     -1.08      0.00
   -5    7    7      0.51      0.00
   -4    7    7     -0.05      0.00
   -3    7    7     -1.81      0.00
   -2    7    7     -0.86      0.00
   -1    7    7      1.22      0.00
    0    7    7      0.42      0.00
    1    7    7      1.14      0.00
    2    7    7     -0.54      0.00
    3    7    7      1.50      0.00
    4    7    7      1.06      0.00
    5    7    7     -3.30      0.00
    6    7    7     -0.11      0.00
    7    7    7     -0.37      0.00
   -7    8    7      2.06      0.00
   -6    8    7      1.33      0.00
   -5    8    7     -0.86      0.00
   -4    8    7     -1.69      0.00
   -3    8    7      1.58      0.00
   -2    8    7      2.76      0.00
   -1    8    7     -0.39      0.00
    0    8    7     -1.57      0.00
    1    8    7     -1.79      0.00
    2    8    7     -1.19      0.00
    3    8    7      1.81      0.00
    4    8    7      2.48      0.00
    5    8    7     -0.10      0.00
    6    8    7     -0.50      0.00
    7    8    7      1.27      0.00
    8    8    7     -0.79      0.00
   -8    9    7     -2.20      0.00
   -7    9    7      0.21      0.00
   -6    9    7      0.62      0.00
   -5    9    7     -0.39      0.00
   -4    9    7     -1.00      0.00
   -3    9    7     -1.89      0.00
   -2    9    7      0.95      0.00
   -1    9    7      1.28      0.00
    0    9    7      1.18      0.00
    1    9    7      2.31      0.00
    2    9    7     -0.43      0.00
    3    9    7     -1.26      0.00
    4    9    7     -0.21      0.00
    5    9    7     -0.14      0.00
    6    9    7      0.67      0.00
    7    9    7     -0.31      0.00
    8    9    7      1.77      0.00
    9    9    7      0.52      0.00
   -9   10    7     -0.11      0.00
   -8   10    7      0.16      0.00
   -7   10    7      0.75      0.00
   -6   10    7      0.58      0.00
   -5   10    7     -0.08      0.00
   -4   10    7      1.98      0.00
   -3   10    7     -1.46      0.00
   -2   10    7     -3.53      0.00
   -1   10    7     -1.23      0.00
    0   10    7     -0.18      0.00
    1   10    7      1.34      0.00
    2   10    7      0.22      0.00
    3   10    7     -0.32      0.00
    4   10    7      2.78      0.00
    5   10    7      0.64      0.00
    6   10    7     -0.77      0.00
    7   10    7     -0.86      0.00
    8   10    7      0.28      0.00
    9   10    7      0.52      0.00
   10   10    7      0.53      0.00
  -10   11    7      1.38      0.00
   -9   11    7     -0.30      0.00
   -8   11    7     -0.05      0.00
   -7   11    7     -0.66      0.00
   -6   11    7      0.46      0.00
   -5   11    7      1.20      0.00
   -4   11    7      0.81      0.00
   -3   11    7      0.02      0.00
   -2   11    7      0.38      0.00
   -1   11    7      1.21      0.00
    0   11    7     -0.89      0.00
    1   11    7     -0.93      0.00
    2   11    7     -1.49      0.00
    3   11    7     -2.97      0.00
    4   11    7      0.93      0.00
    5   11    7      1.32      0.00
    6   11    7      0.31      0.00
    7   11    7     -0.04      0.00
    8   11    7      0.31      0.00
    9   11    7     -0.38      0.00
   10   11    7     -1.83      0.00
   11   11    7      1.40      0.00
  -11   12    7     -0.17      0.00
  -10   12    7      1.42      0.00
   -9   12    7     -0.03      0.00
   -8   12    7     -0.16      0.00
   -7   12    7     -1.17      0.00
   -6   12    7     -0.28      0.00
   -5   12    7      1.00      0.00
   -4   12    7     -0.11      0.00
   -3   12    7      0.21      0.00
   -2   12    7      0.20      0.00
   -1   12    7     -0.20      0.00
    0   12    7     -0.24      0.00
    1   12    7      0.21      0.00
    2   12    7      2.43      0.00
    3   12    7     -0.39      0.00
    4   12    7     -1.29      0.00
    5   12    7     -0.35      0.00
    6   12    7      0.02      0.00
    7   12    7     -0.10      0.00
    8   12    7     -2.76      0.00
    9   12    7      1.43      0.00
   10   12    7     -0.30      0.00
   11   12    7     -1.04      0.00
   12   12    7      0.19      0.00
  -12   13    7      0.02      0.00
  -11   13    7     -2.28      0.00
  -10   13    7      1.62      0.00
   -9   13    7      0.09      0.00
   -8   13    7     -2.41      0.00
   -7   13    7      0.85      0.00
   -6   13    7      0.75      0.00
   -5   13    7     -0.21      0.00
   -4   13    7     -0.34      0.00
   -3   13    7      0.97      0.00
   -2   13    7      0.75      0.00
   -1   13    7     -0.64      0.00
    0   13    7     -0.77      0.00
    1   13    7     -0.08      0.00
    2   13    7      0.21      0.00
    3   13    7     -0.78      0.00
    4   13    7     -1.52      0.00
    5   13    7      2.80      0.00
    6   13    7      0.97      0.00
    7   13    7      1.04      0.00
    8   13    7      0.13      0.00
    9   13    7     -1.11      0.00
   10   13    7     -0.63      0.00
   11   13    7     -1.71      0.00
   12   13    7      0.81      0.00
   13   13    7      0.86      0.00
  -13   14    7     -0.59      0.00
  -12   14    7      1.37      0.00
  -11   14    7     -1.01      0.00
  -10   14    7     -0.60      0.00
   -9   14    7      2.37      0.00
   -8   14    7     -1.68      0.00
   -7   14    7      0.14      0.00
   -6   14    7     -1.61      0.00
   -5   14    7     -1.42      0.00
   -4   14    7      1.14      0.00
   -3   14    7      0.55      0.00
   -2   14    7     -0.76      0.00
   -1   14    7      0.70      0.00
    0   14    7      0.85      0.00
    1   14    7      0.54      0.00
    2   14    7      0.20      0.00
    3   14    7     -0.12      0.00
    4   14    7     -2.51      0.00
    5   14    7     -1.71      0.00
    6   14    7     -0.42      0.00
    7   14    7     -0.75      0.00
    8   14    7      3.13      0.00
    9   14    7      2.41      0.00
   10   14    7     -1.16      0.00
   11   14    7     -0.87      0.00
   12   14    7     -0.92      0.00
   13   14    7     -0.31      0.00
   14   14    7      1.07      0.00
  -14   15    7      0.56      0.00
  -13   15    7     -0.15      0.00
  -12   15    7     -2.10      0.00
  -11   15    7      0.91      0.00
  -10   15    7     -0.30      0.00
   -9   15    7      2.13      0.00
   -8   15    7      1.29      0.00
   -7   15    7     -0.32      0.00
   -6   15    7     -1.04      0.00
   -5   15    7     -0.13      0.00
   -4   15    7      0.74      0.00
   -3   15    7     -1.53      0.00
   -2   15    7      0.49      0.00
   -1   15    7      0.46      0.00
    0   15    7     -1.03      0.00
    1   15    7      0.22      0.00
    2   15    7      0.95      0.00
    3   15    7      2.23      0.00
    4   15    7      1.58      0.00
    5   15    7     -1.42      0.00
    6   15    7     -0.74      0.00
    7   15    7     -1.72      0.00
    8   15    7     -3.32      0.00
    9   15    7      1.17      0.00
   10   15    7      1.73      0.00
   11   15    7     -0.25      0.00
   12   15    7      0.25      0.00
   13   15    7     -1.60      0.00
   14   15    7     -0.11      0.00
   15   15    7     -0.29      0.00
  -15   16    7      0.34      0.00
  -14   16    7      0.75      0.00
  -13   16    7      1.04      0.00
  -12   16    7     -1.05      0.00
  -11   16    7     -1.70      0.00
  -10   16    7     -0.36      0.00
   -9   16    7      1.14      0.00
   -8   16    7      0.03      0.00
   -7   16    7     -1.30      0.00
   -6   16    7      1.15      0.00
   -5   16    7     -0.06      0.00
   -4   16    7      0.28      0.00
   -3   16    7      0.00      0.00
   -2   16    7     -0.46      0.00
   -1   16    7      1.35      0.00
    0   16    7     -2.02      0.00
    1   16    7     -1.43      0.00
    2   16    7      1.07      0.00
    3   16    7      0.50      0.00
    4   16    7      0.95      0.00
    5   16    7      1.28      0.00
    6   16    7      2.06      0.00
    7   16    7      0.78      0.00
    8   16    7     -2.03      0.00
    9   16    7     -1.00      0.00
   10   16    7      1.58      0.00
   11   16    7     -0.40      0.00
   12   16    7      0.81      0.00
   13   16    7     -1.21      0.00
   14   16    7     -0.87      0.00
   15   16    7      0.78      0.00
   16   16    7     -1.92      0.00
  -16   17    7     -1.14      0.00
  -15   17    7     -0.80      0.00
  -14   17    7      1.70      0.00
  -13   17    7     -0.12      0.00
  -12   17    7     -0.06      0.00
  -11   17    7     -0.43      0.00
  -10   17    7     -2.24      0.00
   -9   17    7      0.78      0.00
   -8   17    7      1.38      0.00
   -7   17    7     -0.02      0.00
   -6   17    7      1.37      0.00
   -5   17    7     -1.50      0.00
   -4   17    7     -3.88      0.00
   -3   17    7      1.58      0.00
   -2   17    7      1.63      0.00
   -1   17    7     -0.01      0.00
    0   17    7      1.10      0.00
    1   17    7     -2.09      0.00
    2   17    7     -1.07      0.00
    3   17    7     -1.60      0.00
    4   17    7     -0.34      0.00
    5   17    7      0.98      0.00
    6   17    7      1.16      0.00
    7   17    7      0.46      0.00
    8   17    7     -0.94      0.00
    9   17    7     -0.74      0.00
   10   17    7      1.91      0.00
   11   17    7     -0.53      0.00
   12   17    7      0.99      0.00
   13   17    7      1.89      0.00
   14   17    7     -1.41      0.00
   15   17    7      0.39      0.00
   16   17    7      0.69      0.00
   17   17    7     -1.56      0.00
  -17   18    7      1.68      0.00
  -16   18    7      1.11      0.00
  -15   18    7     -0.01      0.00
  -14   18    7     -0.59      0.00
  -13   18    7      2.13      0.00
  -12   18    7      0.16      0.00
  -11   18    7      0.60      0.00
  -10   18    7     -1.19      0.00
   -9   18    7     -1.77      0.00
   -8   18    7      1.38      0.00
   -7   18    7      1.36      0.00
   -6   18    7      0.20      0.00
   -5   18    7     -0.37      0.00
   -4   18    7      1.52      0.00
   -3   18    7     -0.98      0.00
   -2   18    7     -1.30      0.00
   -1   18    7     -0.46      0.00
    0   18    7      2.20      0.00
    1   18    7      0.33      0.00
    2   18    7     -0.59      0.00
    3   18    7      0.52      0.00
    4   18    7     -1.47      0.00
    5   18    7     -1.08      0.00
    6   18    7      1.08      0.00
    7   18    7      2.43      0.00
    8   18    7     -0.26      0.00
    9   18    7     -3.46      0.00
   10   18    7      0.38      0.00
   11   18    7      0.34      0.00
   12   18    7     -2.08      0.00
   13   18    7      2.40      0.00
   14   18    7      0.81      0.00
   15   18    7     -0.88      0.00
   16   18    7      0.83      0.00
   17   18    7      0.79      0.00
   18   18    7     -0.34      0.00
  -18   19    7     -0.63      0.00
  -17   19    7      2.01      0.00
  -16   19    7     -0.47      0.00
  -15   19    7     -0.59      0.00
  -14   19    7     -1.92      0.00
  -13   19    7      1.81      0.00
  -12   19    7      2.53      0.00
  -11   19    7     -1.78      0.00
  -10   19    7      0.32      0.00
   -9   19    7     -0.57      0.00
   -8   19    7      1.13      0.00
   -7   19    7     -0.29      0.00
   -6   19    7     -0.53      0.00
   -5   19    7     -0.25      0.00
   -4   19    7      1.41      0.00
   -3   19    7      1.32      0.00
   -2   19    7     -1.02      0.00
   -1   19    7     -0.80      0.00
    0   19    7      0.05      0.00
    1   19    7      0.39      0.00
    2   19    7     -0.88      0.00
    3   19    7      0.41      0.00
    4   19    7      0.11      0.00
    5   19    7     -2.07      0.00
    6   19    7     -0.14      0.00
    7   19    7      2.42      0.00
    8   19    7      2.46      0.00
    9   19    7     -0.48      0.00
   10   19    7     -1.32      0.00
   11   19    7      1.58      0.00
   12   19    7     -0.46      0.00
   13   19    7     -0.07      0.00
   14   19    7      0.65      0.00
   15   19    7     -0.37      0.00
   16   19    7     -1.19      0.00
   17   19    7      1.46      0.00
   18   19    7      0.30      0.00
   19   19    7      0.43      0.00
  -19   20    7      0.04      0.00
  -18   20    7     -3.12      0.00
  -17   20    7      0.19      0.00
  -16   20    7      2.22      0.00
  -15   20    7     -1.41      0.00
  -14   20    7      1.04      0.00
  -13   20    7     -0.69      0.00
  -12   20    7      0.24      0.00
  -11   20    7     -0.62      0.00
  -10   20    7     -0.12      0.00
   -9   20    7     -1.49      0.00
   -8   20    7      0.25      0.00
   -7   20    7      0.24      0.00
   -6   20    7      0.18      0.00
   -5   20    7      3.21      0.00
   -4   20    7     -1.18      0.00
   -3   20    7     -3.76      0.00
   -2   20    7      2.22      0.00
   -1   20    7      2.24      0.00
    0   20    7     -0.58      0.00
    1   20    7      1.33      0.00
    2   20    7      0.30      0.00
    3   20    7     -2.45      0.00
    4   20    7     -0.30      0.00
    5   20    7      0.14      0.00
    6   20    7     -2.29      0.00
    7   20    7     -0.84      0.00
    8   20    7     -0.16      0.00
    9   20    7      0.77      0.00
   10   20    7     -0.26      0.00
   11   20    7      0.46      0.00
   12   20    7     -0.66      0.00
   13   20    7      1.21      0.00
   14   20    7      0.95      0.00
   15   20    7     -0.24      0.00
   16   20    7     -0.51      0.00
   17   20    7      1.61      0.00
   18   20    7      3.20      0.00
   19   20    7     -3.21      0.00
   20   20    7      0.57      0.00
  -20   21    7      0.62      0.00
  -19   21    7      1.05      0.00
  -18   21    7     -1.36      0.00
  -17   21    7     -2.96      0.00
  -16   21    7      0.25      0.00
  -15   21    7      1.11      0.00
  -14   21    7      1.92      0.00
  -13   21    7      0.37      0.00
  -12   21    7     -0.10      0.00
  -11   21    7      0.39      0.00
  -10   21    7      0.62      0.00
   -9   21    7     -0.61      0.00
   -8   21    7     -1.92      0.00
   -7   21    7      0.10      0.00
   -6   21    7      1.47      0.00
   -5   21    7     -0.86      0.00
   -4   21    7     -1.75      0.00
   -3   21    7      0.46      0.00
   -2   21    7      0.30      0.00
   -1   21    7      1.55      0.00
    0   21    7      0.51      0.00
    1   21    7     -0.20      0.00
    2   21    7     -0.84      0.00
    3   21    7      2.40      0.00
    4   21    7      0.97      0.00
    5   21    7      0.61      0.00
    6   21    7     -0.91      0.00
    7   21    7      0.10      0.00
    8   21    7      0.13      0.00
    9   21    7     -0.48      0.00
   10   21    7     -1.32      0.00
   11   21    7      0.14      0.00
   12   21    7     -0.97      0.00
   13   21    7     -1.84      0.00
   14   21    7      1.45      0.00
   15   21    7     -1.17      0.00
   16   21    7      0.28      0.00
   17   21    7     -1.98      0.00
   18   21    7      0.69      0.00
   19   21    7      2.64      0.00
   20   21    7     -0.50      0.00
   21   21    7      4.27      0.00
  -19   22    7      0.79      0.00
  -18   22    7     -0.77      0.00
  -17   22    7     -0.06      0.00
  -16   22    7     -1.39      0.00
  -15   22    7     -4.08      0.00
  -14   22    7     -2.55      0.00
  -13   22    7      0.58      0.00
  -12   22    7      2.39      0.00
  -11   22    7      1.58      0.00
  -10   22    7     -0.81      0.00
   -9   22    7     -1.35      0.00
   -8   22    7      0.06      0.00
   -7   22    7      1.75      0.00
   -6   22    7     -0.38      0.00
   -5   22    7      0.82      0.00
   -4   22    7     -1.31      0.00
   -3   22    7     -0.54      0.00
   -2   22    7     -1.57      0.00
   -1   22    7      0.17      0.00
    0   22    7     -0.02      0.00
    1   22    7      0.32      0.00
    2   22    7     -0.23      0.00
    3   22    7      0.38      0.00
    4   22    7      0.26      0.00
    5   22    7     -1.75      0.00
    6   22    7     -0.23      0.00
    7   22    7      0.39      0.00
    8   22    7      2.77      0.00
    9   22    7      1.40      0.00
   10   22    7     -0.47      0.00
   11   22    7     -0.89      0.00
   12   22    7      1.99      0.00
   13   22    7     -1.15      0.00
   14   22    7      1.44      0.00
   15   22    7      0.98      0.00
   16   22    7     -2.01      0.00
   17   22    7     -0.85      0.00
   18   22    7     -3.64      0.00
   19   22    7      0.14      0.00
  -18   23    7      2.40      0.00
  -17   23    7     -2.08      0.00
  -16   23    7      3.41      0.00
  -15   23    7      2.47      0.00
  -14   23    7     -2.91      0.00
  -13   23    7     -2.18      0.00
  -12   23    7     -1.19      0.00
  -11   23    7     -1.13      0.00
  -10   23    7      1.95      0.00
   -9   23    7     -0.28      0.00
   -8   23    7     -3.65      0.00
   -7   23    7      0.99      0.00
   -6   23    7     -1.70      0.00
   -5   23    7      1.77      0.00
   -4   23    7      5.65      0.00
   -3   23    7     -1.13      0.00
   -2   23    7     -3.42      0.00
   -1   23    7     -0.48      0.00
    0   23    7      0.35      0.00
    1   23    7      0.04      0.00
    2   23    7      3.67      0.00
    3   23    7     -1.89      0.00
    4   23    7     -1.77      0.00
    5   23    7      0.28      0.00
    6   23    7     -0.25      0.00
    7   23    7     -1.72      0.00
    8   23    7     -0.73      0.00
    9   23    7     -0.40      0.00
   10   23    7     -0.10      0.00
   11   23    7      0.21      0.00
   12   23    7      1.46      0.00
   13   23    7     -0.41      0.00
   14   23    7     -0.83      0.00
   15   23    7      2.90      0.00
   16   23    7     -0.11      0.00
   17   23    7      0.18      0.00
   18   23    7      1.91      0.00
  -17   24    7     -2.36      0.00
  -16   24    7     -2.08      0.00
  -15   24    7      3.83      0.00
  -14   24    7      4.48      0.00
  -13   24    7      0.78      0.00
  -12   24    7      1.37      0.00
  -11   24    7     -0.85      0.00
  -10   24    7     -1.89      0.00
   -9   24    7      3.11      0.00
   -8   24    7     -2.03      0.00
   -7   24    7     -3.17      0.00
   -6   24    7     -1.10      0.00
   -5   24    7     -1.05      0.00
   -4   24    7      1.69      0.00
   -3   24    7      0.08      0.00
   -2   24    7      0.20      0.00
   -1   24    7     -1.00      0.00
    0   24    7      1.39      0.00
    1   24    7      2.26      0.00
    2   24    7     -0.78      0.00
    3   24    7     -0.16      0.00
    4   24    7      0.26      0.00
    5   24    7      0.47      0.00
    6   24    7      0.97      0.00
    7   24    7      0.65      0.00
    8   24    7     -1.35      0.00
    9   24    7     -1.29      0.00
   10   24    7      0.57      0.00
   11   24    7     -0.40      0.00
   12   24    7      0.00      0.00
   13   24    7      0.29      0.00
   14   24    7     -1.65      0.00
   15   24    7      0.68      0.00
   16   24    7      0.58      0.00
   17   24    7     -0.09      0.00
  -16   25    7     -0.08      0.00
  -15   25    7     -4.17      0.00
  -14   25    7     -3.03      0.00
  -13   25    7      1.64      0.00
  -12   25    7      0.97      0.00
  -11   25    7      4.93      0.00
  -10   25    7      1.43      0.00
   -9   25    7      0.23      0.00
   -8   25    7      0.91      0.00
   -7   25    7      0.64      0.00
   -6   25    7     -0.36      0.00
   -5   25    7     -4.28      0.00
   -4   25    7     -0.67      0.00
   -3   25    7      1.31      0.00
   -2   25    7     -0.88      0.00
   -1   25    7     -0.97      0.00
    0   25    7     -1.92      0.00
    1   25    7      0.29      0.00
    2   25    7      1.01      0.00
    3   25    7      0.47      0.00
    4   25    7      3.06      0.00
    5   25    7     -0.55      0.00
    6   25    7     -1.66      0.00
    7   25    7     -1.04      0.00
    8   25    7      0.69      0.00
    9   25    7      0.91      0.00
   10   25    7      0.48      0.00
   11   25    7     -0.76      0.00
   12   25    7     -2.03      0.00
   13   25    7      1.21      0.00
   14   25    7      0.60      0.00
   15   25    7      1.33      0.00
   16   25    7      0.98      0.00
  -14   26    7     -2.75      0.00
  -13   26    7     -1.44      0.00
  -12   26    7     -1.51      0.00
  -11   26    7     -2.10      0.00
  -10   26    7      2.80      0.00
   -9   26    7      3.57      0.00
   -8   26    7      0.92      0.00
   -7   26    7      0.18      0.00
   -6   26    7      2.51      0.00
   -5   26    7     -1.24      0.00
   -4   26    7     -0.86      0.00
   -3   26    7      1.02      0.00
   -2   26    7      0.67      0.00
   -1   26    7     -0.92      0.00
    0   26    7     -0.90      0.00
    1   26    7     -3.03      0.00
    2   26    7      0.66      0.00
    3   26    7      0.41      0.00
    4   26    7      0.06      0.00
    5   26    7      1.57      0.00
    6   26    7      0.72      0.00
    7   26    7     -0.08      0.00
    8   26    7     -1.30      0.00
    9   26    7      1.36      0.00
   10   26    7     -0.60      0.00
   11   26    7     -1.28      0.00
   12   26    7     -1.53      0.00
   13   26    7      1.15      0.00
   14   26    7     -0.60      0.00
  -12   27    7      0.00      0.00
  -11   27    7     -2.03      0.00
  -10   27    7     -3.42      0.00
   -9   27    7      1.18      0.00
   -8   27    7      3.22      0.00
   -7   27    7      0.75      0.00
   -6   27    7      1.84      0.00
   -5   27    7     -1.52      0.00
   -4   27    7      0.95      0.00
   -3   27    7      0.57      0.00
   -2   27    7     -1.47      0.00
   -1   27    7      1.36      0.00
    0   27    7     -0.43      0.00
    1   27    7      0.74      0.00
    2   27    7      0.04      0.00
    3   27    7     -0.30      0.00
    4   27    7     -0.67      0.00
    5   27    7     -0.60      0.00
    6   27    7     -0.97      0.00
    7   27    7      3.89      0.00
    8   27    7      0.29      0.00
    9   27    7     -1.96      0.00
   10   27    7      0.52      0.00
   11   27    7      1.57      0.00
   12   27    7     -0.43      0.00
   -9   28    7     -2.50      0.00
   -8   28    7     -1.17      0.00
   -7   28    7      0.60      0.00
   -6   28    7      5.46      0.00
   -5   28    7      1.24      0.00
   -4   28    7     -4.12      0.00
   -3   28    7      2.32      0.00
   -2   28    7     -1.24      0.00
   -1   28    7      1.30      0.00
    0   28    7     -0.72      0.00
    1   28    7     -4.23      0.00
    2   28    7      1.95      0.00
    3   28    7      0.70      0.00
    4   28    7     -0.50      0.00
    5   28    7      2.54      0.00
    6   28    7     -1.58      0.00
    7   28    7     -1.08      0.00
    8   28    7      2.16      0.00
    9   28    7     -0.28      0.00
   -6   29    7     -1.23      0.00
   -5   29    7      6.96      0.00
   -4   29    7     -0.04      0.00
   -3   29    7     -1.41      0.00
   -2   29    7      1.66      0.00
   -1   29    7      0.14      0.00
    0   29    7      2.81      0.00
    1   29    7     -2.83      0.00
    2   29    7     -1.94      0.00
    3   29    7      0.42      0.00
    4   29    7     -3.65      0.00
    5   29    7      1.14      0.00
    6   29    7      2.15      0.00
    0    0    8      1.47      0.00
    0    1    8      1.25      0.00
    1    1    8     -0.16      0.00
   -1    2    8      1.49      0.00
    0    2    8     -1.33      0.00
    1    2    8      0.61      0.00
    2    2    8      0.06      0.00
   -2    3    8      1.36      0.00
   -1    3    8      0.16      0.00
    0    3    8     -1.46      0.00
    1    3    8     -1.01      0.00
    2    3    8      1.31      0.00
    3    3    8     -0.97      0.00
   -3    4    8     -1.12      0.00
   -2    4    8      1.54      0.00
   -1    4    8      1.62      0.00
    0    4    8      0.72      0.00
    1    4    8      1.14      0.00
    2    4    8      0.94      0.00
    3    4    8     -0.23      0.00
    4    4    8     -1.67      0.00
   -4    5    8      0.63      0.00
   -3    5    8      0.80      0.00
   -2    5    8     -4.28      0.00
   -1    5    8     -1.90      0.00
    0    5    8      1.04      0.00
    1    5    8     -0.11      0.00
    2    5    8     -0.57      0.00
    3    5    8      0.13      0.00
    4    5    8      2.18      0.00
    5    5    8      2.60      0.00
   -5    6    8      0.19      0.00
   -4    6    8      0.05      0.00
   -3    6    8      2.00      0.00
   -2    6    8     -0.24      0.00
   -1    6    8     -1.82      0.00
    0    6    8      0.99      0.00
    1    6    8     -1.18      0.00
    2    6    8     -2.24      0.00
    3    6    8     -0.39      0.00
    4    6    8     -0.80      0.00
    5    6    8     -0.24      0.00
    6    6    8      0.96      0.00
   -6    7    8      1.72      0.00
   -5    7    8      1.40      0.00
   -4    7    8      0.39      0.00
   -3    7    8     -1.69      0.00
   -2    7    8     -0.68      0.00
   -1    7    8      0.80      0.00
    0    7    8      0.58      0.00
    1    7    8      0.68      0.00
    2    7    8      1.05      0.00
    3    7    8     -0.35      0.00
    4    7    8     -1.77      0.00
    5    7    8     -1.32      0.00
    6    7    8     -0.42      0.00
    7    7    8     -0.12      0.00
   -7    8    8     -0.86      0.00
   -6    8    8      1.51      0.00
   -5    8    8      0.70      0.00
   -4    8    8     -0.53      0.00
   -3    8    8      3.29      0.00
   -2    8    8      2.38      0.00
   -1    8    8     -1.84      0.00
    0    8    8     -1.22      0.00
    1    8    8      0.35      0.00
    2    8    8      0.52      0.00
    3    8    8      0.34      0.00
    4    8    8     -1.37      0.00
    5    8    8      0.87      0.00
    6    8    8      0.47      0.00
    7    8    8     -1.57      0.00
    8    8    8     -0.53      0.00
   -8    9    8     -0.69      0.00
   -7    9    8     -1.30      0.00
   -6    9    8     -1.22      0.00
   -5    9    8     -0.27      0.00
   -4    9    8     -2.43      0.00
   -3    9    8     -0.17      0.00
   -2    9    8      3.46      0.00
   -1    9    8      1.08      0.00
    0    9    8      0.83      0.00
    1    9    8      1.28      0.00
    2    9    8     -0.44      0.00
    3    9    8      0.94      0.00
    4    9    8      1.30      0.00
    5    9    8     -1.62      0.00
    6    9    8      0.22      0.00
    7    9    8     -0.81      0.00
    8    9    8      0.11      0.00
    9    9    8      0.35      0.00
   -9   10    8      0.65      0.00
   -8   10    8      0.93      0.00
   -7   10    8      0.04      0.00
   -6   10    8      0.45      0.00
   -5   10    8     -1.19      0.00
   -4   10    8     -1.02      0.00
   -3   10    8     -1.33      0.00
   -2   10    8     -1.07      0.00
   -1   10    8     -2.10      0.00
    0   10    8     -0.12      0.00
    1   10    8      0.41      0.00
    2   10    8      1.01      0.00
    3   10    8      1.91      0.00
    4   10    8      1.37      0.00
    5   10    8     -0.65      0.00
    6   10    8     -0.68      0.00
    7   10    8      1.32      0.00
    8   10    8     -0.23      0.00
    9   10    8     -0.03      0.00
   10   10    8     -1.13      0.00
  -10   11    8      0.60      0.00
   -9   11    8     -0.91      0.00
   -8   11    8      0.69      0.00
   -7   11    8     -0.18      0.00
   -6   11    8      0.21      0.00
   -5   11    8      1.06      0.00
   -4   11    8     -0.36      0.00
   -3   11    8     -1.40      0.00
   -2   11    8      1.59      0.00
   -1   11    8      0.60      0.00
    0   11    8     -2.34      0.00
    1   11    8     -0.76      0.00
    2   11    8     -2.22      0.00
    3   11    8      0.26      0.00
    4   11    8      0.81      0.00
    5   11    8      0.40      0.00
    6   11    8      0.25      0.00
    7   11    8      0.38      0.00
    8   11    8      0.67      0.00
    9   11    8     -1.37      0.00
   10   11    8     -0.30      0.00
   11   11    8      0.54      0.00
  -11   12    8      0.23      0.00
  -10   12    8      1.94      0.00
   -9   12    8      1.35      0.00
   -8   12    8     -0.45      0.00
   -7   12    8     -0.68      0.00
   -6   12    8     -0.62      0.00
   -5   12    8      1.07      0.00
   -4   12    8      0.36      0.00
   -3   12    8     -0.44      0.00
   -2   12    8     -1.32      0.00
   -1   12    8      0.45      0.00
    0   12    8      0.18      0.00
    1   12    8      1.50      0.00
    2   12    8     -0.02      0.00
    3   12    8     -2.29      0.00
    4   12    8     -0.17      0.00
    5   12    8     -0.41      0.00
    6   12    8      0.70      0.00
    7   12    8      0.32      0.00
    8   12    8      0.04      0.00
    9   12    8      0.50      0.00
   10   12    8     -0.54      0.00
   11   12    8      0.72      0.00
   12   12    8     -1.12      0.00
  -12   13    8     -0.27      0.00
  -11   13    8      0.42      0.00
  -10   13    8     -2.40      0.00
   -9   13    8     -0.08      0.00
   -8   13    8      1.09      0.00
   -7   13    8     -0.04      0.00
   -6   13    8      0.96      0.00
   -5   13    8      1.56      0.00
   -4   13    8     -1.00      0.00
   -3   13    8     -0.44      0.00
   -2   13    8      0.93      0.00
   -1   13    8     -1.09      0.00
    0   13    8     -0.49      0.00
    1   13    8     -0.62      0.00
    2   13    8      0.06      0.00
    3   13    8      1.32      0.00
    4   13    8      0.20      0.00
    5   13    8     -0.18      0.00
    6   13    8     -1.01      0.00
    7   13    8     -1.43      0.00
    8   13    8      0.12      0.00
    9   13    8      2.62      0.00
   10   13    8     -0.52      0.00
   11   13    8     -1.22      0.00
   12   13    8      2.38      0.00
   13   13    8      0.37      0.00
  -13   14    8      1.67      0.00
  -12   14    8      0.86      0.00
  -11   14    8      1.03      0.00
  -10   14    8     -0.35      0.00
   -9   14    8     -1.42      0.00
   -8   14    8     -0.54      0.00
   -7   14    8     -0.10      0.00
   -6   14    8      0.01      0.00
   -5   14    8      0.67      0.00
   -4   14    8      1.92      0.00
   -3   14    8     -0.27      0.00
   -2   14    8     -0.79      0.00
   -1   14    8      1.58      0.00
    0   14    8     -0.63      0.00
    1   14    8     -0.29      0.00
    2   14    8     -1.88      0.00
    3   14    8     -0.65      0.00
    4   14    8      1.76      0.00
    5   14    8      0.72      0.00
    6   14    8      0.87      0.00
    7   14    8     -1.50      0.00
    8   14    8     -1.50      0.00
    9   14    8      1.41      0.00
   10   14    8      0.71      0.00
   11   14    8     -1.09      0.00
   12   14    8      0.34      0.00
   13   14    8      1.36      0.00
   14   14    8      0.05      0.00
  -14   15    8     -0.50      0.00
  -13   15    8      0.33      0.00
  -12   15    8     -2.69      0.00
  -11   15    8      0.01      0.00
  -10   15    8      2.52      0.00
   -9   15    8      1.75      0.00
   -8   15    8     -0.11      0.00
   -7   15    8     -1.10      0.00
   -6   15    8     -1.85      0.00
   -5   15    8      0.87      0.00
   -4   15    8     -0.48      0.00
   -3   15    8      2.01      0.00
   -2   15    8      1.27      0.00
   -1   15    8      0.21      0.00
    0   15    8      0.24      0.00
    1   15    8      0.07      0.00
    2   15    8     -0.06      0.00
    3   15    8     -2.56      0.00
    4   15    8      0.29      0.00
    5   15    8     -0.05      0.00
    6   15    8      0.58      0.00
    7   15    8      1.10      0.00
    8   15    8     -1.70      0.00
    9   15    8      1.04      0.00
   10   15    8      1.21      0.00
   11   15    8     -0.77      0.00
   12   15    8     -0.29      0.00
   13   15    8      0.27      0.00
   14   15    8      0.86      0.00
   15   15    8      0.34      0.00
  -15   16    8      0.23      0.00
  -14   16    8     -0.08      0.00
  -13   16    8      1.05      0.00
  -12   16    8     -3.12      0.00
  -11   16    8     -0.18      0.00
  -10   16    8      0.19      0.00
   -9   16    8     -1.04      0.00
   -8   16    8      0.74      0.00
   -7   16    8      0.94      0.00
   -6   16    8     -2.15      0.00
   -5   16    8      0.54      0.00
   -4   16    8      0.73      0.00
   -3   16    8     -2.32      0.00
   -2   16    8      2.48      0.00
   -1   16    8     -0.56      0.00
    0   16    8      0.71      0.00
    1   16    8      2.94      0.00
    2   16    8      0.55      0.00
    3   16    8     -1.82      0.00
    4   16    8     -0.26      0.00
    5   16    8     -0.85      0.00
    6   16    8     -0.59      0.00
    7   16    8      1.30      0.00
    8   16    8     -2.04      0.00
    9   16    8     -0.18      0.00
   10   16    8      2.13      0.00
   11   16    8     -0.31      0.00
   12   16    8      1.35      0.00
   13   16    8      1.10      0.00
   14   16    8     -0.29      0.00
   15   16    8     -1.53      0.00
   16   16    8      0.25      0.00
  -16   17    8     -0.56      0.00
  -15   17    8      0.93      0.00
  -14   17    8     -0.53      0.00
  -13   17    8      1.53      0.00
  -12   17    8      0.44      0.00
  -11   17    8     -1.79      0.00
  -10   17    8      0.64      0.00
   -9   17    8     -0.31      0.00
   -8   17    8      0.39      0.00
   -7   17    8     -1.13      0.00
   -6   17    8      0.65      0.00
   -5   17    8     -1.77      0.00
   -4   17    8     -0.98      0.00
   -3   17    8     -1.61      0.00
   -2   17    8      1.04      0.00
   -1   17    8      1.43      0.00
    0   17    8     -2.65      0.00
    1   17    8      0.65      0.00
    2   17    8      3.57      0.00
    3   17    8      0.03      0.00
    4   17    8     -0.48      0.00
    5   17    8      0.50      0.00
    6   17    8     -1.29      0.00
    7   17    8      1.51      0.00
    8   17    8     -1.72      0.00
    9   17    8     -4.43      0.00
   10   17    8      1.44      0.00
   11   17    8      1.14      0.00
   12   17    8      0.82      0.00
   13   17    8      0.85      0.00
   14   17    8      2.87      0.00
   15   17    8     -0.21      0.00
   16   17    8     -1.91      0.00
   17   17    8      0.73      0.00
  -17   18    8      1.49      0.00
  -16   18    8      0.58      0.00
  -15   18    8      0.29      0.00
  -14   18    8     -0.75      0.00
  -13   18    8      0.66      0.00
  -12   18    8      2.36      0.00
  -11   18    8     -2.59      0.00
  -10   18    8     -0.79      0.00
   -9   18    8      1.58      0.00
   -8   18    8      1.96      0.00
   -7   18    8      0.51      0.00
   -6   18    8     -0.75      0.00
   -5   18    8      0.62      0.00
   -4   18    8     -0.94      0.00
   -3   18    8     -0.69      0.00
   -2   18    8     -1.73      0.00
   -1   18    8      0.85      0.00
    0   18    8     -0.53      0.00
    1   18    8     -2.82      0.00
    2   18    8      0.46      0.00
    3   18    8      2.10      0.00
    4   18    8      0.33      0.00
    5   18    8      0.92      0.00
    6   18    8      0.19      0.00
    7   18    8      2.08      0.00
    8   18    8      1.56      0.00
    9   18    8     -4.96      0.00
   10   18    8     -0.51      0.00
   11   18    8     -0.95      0.00
   12   18    8     -2.83      0.00
   13   18    8      0.49      0.00
   14   18    8      1.39      0.00
   15   18    8      4.59      0.00
   16   18    8     -0.55      0.00
   17   18    8     -0.24      0.00
   18   18    8     -0.72      0.00
  -18   19    8     -1.23      0.00
  -17   19    8      0.91      0.00
  -16   19    8      0.20      0.00
  -15   19    8      0.62      0.00
  -14   19    8     -2.36      0.00
  -13   19    8      0.10      0.00
  -12   19    8      2.81      0.00
  -11   19    8     -0.74      0.00
  -10   19    8     -1.41      0.00
   -9   19    8      0.16      0.00
   -8   19    8     -0.69      0.00
   -7   19    8      2.24      0.00
   -6   19    8     -0.31      0.00
   -5   19    8     -0.92      0.00
   -4   19    8      2.79      0.00
   -3   19    8      1.01      0.00
   -2   19    8     -0.66      0.00
   -1   19    8     -0.76      0.00
    0   19    8      0.80      0.00
    1   19    8     -1.54      0.00
    2   19    8     -0.62      0.00
    3   19    8     -0.66      0.00
    4   19    8     -0.96      0.00
    5   19    8     -0.88      0.00
    6   19    8     -0.20      0.00
    7   19    8      1.25      0.00
    8   19    8      3.58      0.00
    9   19    8      0.18      0.00
   10   19    8      0.05      0.00
   11   19    8      1.61      0.00
   12   19    8     -4.37      0.00
   13   19    8     -0.78      0.00
   14   19    8     -1.40      0.00
   15   19    8      0.86      0.00
   16   19    8      2.29      0.00
   17   19    8     -1.11      0.00
   18   19    8      0.99      0.00
   19   19    8      0.77      0.00
  -19   20    8      1.83      0.00
  -18   20    8     -1.40      0.00
  -17   20    8      0.14      0.00
  -16   20    8     -0.01      0.00
  -15   20    8     -0.65      0.00
  -14   20    8      1.37      0.00
  -13   20    8     -0.94      0.00
  -12   20    8      0.29      0.00
  -11   20    8      0.15      0.00
  -10   20    8     -0.75      0.00
   -9   20    8     -1.18      0.00
   -8   20    8      1.03      0.00
   -7   20    8     -1.46      0.00
   -6   20    8      0.08      0.00
   -5   20    8      0.34      0.00
   -4   20    8      1.54      0.00
   -3   20    8     -1.89      0.00
   -2   20    8      0.27      0.00
   -1   20    8      1.33      0.00
    0   20    8      0.49      0.00
    1   20    8      1.26      0.00
    2   20    8      0.49      0.00
    3   20    8      0.60      0.00
    4   20    8     -1.21      0.00
    5   20    8      1.24      0.00
    6   20    8     -1.57      0.00
    7   20    8     -2.92      0.00
    8   20    8     -0.28      0.00
    9   20    8      0.91      0.00
   10   20    8     -2.14      0.00
   11   20    8      2.86      0.00
   12   20    8      1.41      0.00
   13   20    8     -1.14      0.00
   14   20    8      0.93      0.00
   15   20    8     -2.01      0.00
   16   20    8     -0.88      0.00
   17   20    8      1.56      0.00
   18   20    8      2.08      0.00
   19   20    8     -0.51      0.00
  -17   21    8     -2.91      0.00
  -16   21    8      0.80      0.00
  -15   21    8     -0.45      0.00
  -14   21    8      0.93      0.00
  -13   21    8     -0.53      0.00
  -12   21    8     -0.18      0.00
  -11   21    8      1.96      0.00
  -10   21    8      1.68      0.00
   -9   21    8     -3.61      0.00
   -8   21    8      0.17      0.00
   -7   21    8      1.05      0.00
   -6   21    8     -0.64      0.00
   -5   21    8      0.64      0.00
   -4   21    8     -3.28      0.00
   -3   21    8     -0.20      0.00
   -2   21    8      0.94      0.00
   -1   21    8      2.03      0.00
    0   21    8     -1.18      0.00
    1   21    8      0.78      0.00
    2   21    8     -3.36      0.00
    3   21    8     -0.90      0.00
    4   21    8      2.78      0.00
    5   21    8      3.83      0.00
    6   21    8      1.96      0.00
    7   21    8     -0.79      0.00
    8   21    8      0.51      0.00
    9   21    8      0.75      0.00
   10   21    8     -2.04      0.00
   11   21    8     -2.83      0.00
   12   21    8      0.30      0.00
   13   21    8     -0.66      0.00
   14   21    8     -0.24      0.00
   15   21    8      0.19      0.00
   16   21    8     -0.01      0.00
   17   21    8      0.00      0.00
  -16   22    8     -0.73      0.00
  -15   22    8      1.42      0.00
  -14   22    8     -0.93      0.00
  -13   22    8     -2.98      0.00
  -12   22    8      0.75      0.00
  -11   22    8      0.70      0.00
  -10   22    8      0.38      0.00
   -9   22    8      1.45      0.00
   -8   22    8     -1.21      0.00
   -7   22    8      2.89      0.00
   -6   22    8     -1.59      0.00
   -5   22    8      0.37      0.00
   -4   22    8     -0.82      0.00
   -3   22    8     -1.70      0.00
   -2   22    8     -1.25      0.00
   -1   22    8      0.83      0.00
    0   22    8      2.23      0.00
    1   22    8     -0.21      0.00
    2   22    8     -1.26      0.00
    3   22    8     -1.55      0.00
    4   22    8     -0.50      0.00
    5   22    8     -3.80      0.00
    6   22    8     -0.36      0.00
    7   22    8      2.56      0.00
    8   22    8      3.53      0.00
    9   22    8      1.11      0.00
   10   22    8      1.25      0.00
   11   22    8      2.14      0.00
   12   22    8      0.00      0.00
   13   22    8     -1.32      0.00
   14   22    8     -1.03      0.00
   15   22    8     -1.27      0.00
   16   22    8      1.17      0.00
  -15   23    8     -0.05      0.00
  -14   23    8      1.44      0.00
  -13   23    8      0.73      0.00
  -12   23    8     -0.07      0.00
  -11   23    8     -1.16      0.00
  -10   23    8     -2.87      0.00
   -9   23    8      1.46      0.00
   -8   23    8      0.40      0.00
   -7   23    8      1.70      0.00
   -6   23    8      0.16      0.00
   -5   23    8     -2.13      0.00
   -4   23    8      3.32      0.00
   -3   23    8      0.47      0.00
   -2   23    8     -1.08      0.00
   -1   23    8     -0.83      0.00
    0   23    8     -1.82      0.00
    1   23    8     -0.34      0.00
    2   23    8      3.81      0.00
    3   23    8      0.70      0.00
    4   23    8     -1.29      0.00
    5   23    8     -1.87      0.00
    6   23    8     -2.39      0.00
    7   23    8     -1.04      0.00
    8   23    8      0.54      0.00
    9   23    8     -0.61      0.00
   10   23    8     -2.51      0.00
   11   23    8      1.72      0.00
   12   23    8      3.67      0.00
   13   23    8     -0.45      0.00
   14   23    8      1.60      0.00
   15   23    8      0.76      0.00
  -13   24    8      0.80      0.00
  -12   24    8     -0.42      0.00
  -11   24    8      0.73      0.00
  -10   24    8      1.58      0.00
   -9   24    8      0.08      0.00
   -8   24    8     -3.15      0.00
   -7   24    8     -0.49      0.00
   -6   24    8      2.22      0.00
   -5   24    8      2.18      0.00
   -4   24    8     -0.45      0.00
   -3   24    8     -3.15      0.00
   -2   24    8     -0.89      0.00
   -1   24    8      2.11      0.00
    0   24    8      1.08      0.00
    1   24    8      1.35      0.00
    2   24    8      2.42      0.00
    3   24    8     -2.38      0.00
    4   24    8     -3.07      0.00
    5   24    8      1.30      0.00
    6   24    8      2.44      0.00
    7   24    8     -1.22      0.00
    8   24    8     -1.95      0.00
    9   24    8      1.01      0.00
   10   24    8      1.10      0.00
   11   24    8     -2.31      0.00
   12   24    8     -0.43      0.00
   13   24    8     -0.29      0.00
  -11   25    8      1.04      0.00
  -10   25    8     -0.29      0.00
   -9   25    8      1.34      0.00
   -8   25    8     -0.94      0.00
   -7   25    8      0.49      0.00
   -6   25    8      1.44      0.00
   -5   25    8     -1.65      0.00
   -4   25    8      4.01      0.00
   -3   25    8      0.84      0.00
   -2   25    8     -3.17      0.00
   -1   25    8     -3.63      0.00
    0   25    8     -0.34      0.00
    1   25    8      0.82      0.00
    2   25    8      1.93      0.00
    3   25    8      1.67      0.00
    4   25    8      2.64      0.00
    5   25    8     -0.06      0.00
    6   25    8     -2.25      0.00
    7   25    8     -1.20      0.00
    8   25    8     -1.59      0.00
    9   25    8     -0.32      0.00
   10   25    8      1.55      0.00
   11   25    8      0.90      0.00
   -9   26    8     -2.84      0.00
   -8   26    8      1.30      0.00
   -7   26    8     -2.53      0.00
   -6   26    8      2.79      0.00
   -5   26    8     -0.83      0.00
   -4   26    8     -0.56      0.00
   -3   26    8      3.30      0.00
   -2   26    8      1.85      0.00
   -1   26    8      1.78      0.00
    0   26    8     -0.76      0.00
    1   26    8     -4.61      0.00
    2   26    8     -2.70      0.00
    3   26    8      0.84      0.00
    4   26    8      0.71      0.00
    5   26    8      3.64      0.00
    6   26    8      0.23      0.00
    7   26    8     -0.51      0.00
    8   26    8      1.13      0.00
    9   26    8      0.22      0.00
   -5   27    8      2.04      0.00
   -4   27    8      0.81      0.00
   -3   27    8     -0.34      0.00
   -2   27    8     -2.35      0.00
   -1   27    8      0.74      0.00
    0   27    8      3.51      0.00
    1   27    8      2.68      0.00
    2   27    8     -0.33      0.00
    3   27    8      0.53      0.00
    4   27    8     -2.32      0.00
    5   27    8     -2.60      0.00
    0    0    9     -1.80      0.00
    0    1    9      0.83      0.00
    1    1    9     -0.81      0.00
   -1    2    9      1.57      0.00
    0    2    9      0.33      0.00
    1    2    9     -0.47      0.00
    2    2    9     -0.38      0.00
   -2    3    9     -2.43      0.00
   -1    3    9      1.07      0.00
    0    3    9     -0.14      0.00
    1    3    9     -0.93      0.00
    2    3    9      2.26      0.00
    3    3    9     -0.09      0.00
   -3    4    9      2.59      0.00
   -2    4    9     -0.02      0.00
   -1    4    9      0.40      0.00
    0    4    9      0.24      0.00
    1    4    9      0.04      0.00
    2    4    9      1.05      0.00
    3    4    9      2.77      0.00
    4    4    9     -1.68      0.00
   -4    5    9     -1.57      0.00
   -3    5    9      0.62      0.00
   -2    5    9     -0.59      0.00
   -1    5    9     -1.50      0.00
    0    5    9      0.67      0.00
    1    5    9     -0.56      0.00
    2    5    9      0.17      0.00
    3    5    9     -0.82      0.00
    4    5    9      1.92      0.00
    5    5    9      0.04      0.00
   -5    6    9     -0.61      0.00
   -4    6    9      0.97      0.00
   -3    6    9      3.62      0.00
   -2    6    9      1.43      0.00
   -1    6    9     -2.14      0.00
    0    6    9      1.62      0.00
    1    6    9      0.14      0.00
    2    6    9     -1.23      0.00
    3    6    9      0.06      0.00
    4    6    9     -0.61      0.00
    5    6    9      1.10      0.00
    6    6    9     -1.87      0.00
   -6    7    9      0.00      0.00
   -5    7    9     -2.08      0.00
   -4    7    9     -1.77      0.00
   -3    7    9     -1.23      0.00
   -2    7    9     -0.18      0.00
   -1    7    9     -0.07      0.00
    0    7    9      1.05      0.00
    1    7    9      1.69      0.00
    2    7    9      0.95      0.00
    3    7    9      1.35      0.00
    4    7    9     -0.51      0.00
    5    7    9     -0.95      0.00
    6    7    9      0.13      0.00
    7    7    9     -1.13      0.00
   -7    8    9     -0.61      0.00
   -6    8    9      2.69      0.00
   -5    8    9      1.24      0.00
   -4    8    9     -0.18      0.00
   -3    8    9     -1.27      0.00
   -2    8    9     -0.72      0.00
   -1    8    9     -1.22      0.00
    0    8    9     -1.37      0.00
    1    8    9     -0.54      0.00
    2    8    9      0.89      0.00
    3    8    9     -0.03      0.00
    4    8    9     -0.36      0.00
    5    8    9      1.90      0.00
    6    8    9      0.75      0.00
    7    8    9     -0.94      0.00
    8    8    9      0.61      0.00
   -8    9    9     -0.09      0.00
   -7    9    9      0.24      0.00
   -6    9    9      1.05      0.00
   -5    9    9      0.96      0.00
   -4    9    9     -1.72      0.00
   -3    9    9     -0.54      0.00
   -2    9    9      2.08      0.00
   -1    9    9      1.06      0.00
    0    9    9     -1.01      0.00
    1    9    9     -0.43      0.00
    2    9    9      0.00      0.00
    3    9    9     -0.35      0.00
    4    9    9     -1.30      0.00
    5    9    9      0.63      0.00
    6    9    9      0.80      0.00
    7    9    9     -1.82      0.00
    8    9    9      0.12      0.00
    9    9    9      2.48      0.00
   -9   10    9     -1.64      0.00
   -8   10    9     -1.21      0.00
   -7   10    9     -0.24      0.00
   -6   10    9      1.89      0.00
   -5   10    9      1.15      0.00
   -4   10    9     -0.84      0.00
   -3   10    9     -0.69      0.00
   -2   10    9     -0.82      0.00
   -1   10    9     -0.98      0.00
    0   10    9     -0.49      0.00
    1   10    9     -0.83      0.00
    2   10    9      0.81      0.00
    3   10    9      2.35      0.00
    4   10    9     -0.82      0.00
    5   10    9     -1.05      0.00
    6   10    9     -0.04      0.00
    7   10    9     -1.94      0.00
    8   10    9     -0.67      0.00
    9   10    9      1.12      0.00
   10   10    9     -1.48      0.00
  -10   11    9      0.38      0.00
   -9   11    9      0.75      0.00
   -8   11    9      2.00      0.00
   -7   11    9     -2.38      0.00
   -6   11    9     -1.90      0.00
   -5   11    9      2.21      0.00
   -4   11    9      1.63      0.00
   -3   11    9      1.06      0.00
   -2   11    9      0.35      0.00
   -1   11    9     -0.34      0.00
    0   11    9     -0.75      0.00
    1   11    9     -1.25      0.00
    2   11    9     -1.85      0.00
    3   11    9      2.13      0.00
    4   11    9      0.35      0.00
    5   11    9     -0.75      0.00
    6   11    9      2.22      0.00
    7   11    9      0.25      0.00
    8   11    9     -1.33      0.00
    9   11    9     -0.20      0.00
   10   11    9     -1.73      0.00
   11   11    9     -0.38      0.00
  -11   12    9     -2.74      0.00
  -10   12    9      0.85      0.00
   -9   12    9     -0.16      0.00
   -8   12    9     -0.67      0.00
   -7   12    9      0.88      0.00
   -6   12    9     -1.97      0.00
   -5   12    9      0.74      0.00
   -4   12    9      0.40      0.00
   -3   12    9      0.49      0.00
   -2   12    9      1.16      0.00
   -1   12    9      0.36      0.00
    0   12    9     -0.53      0.00
    1   12    9      0.80      0.00
    2   12    9     -0.96      0.00
    3   12    9     -0.59      0.00
    4   12    9      0.79      0.00
    5   12    9     -2.28      0.00
    6   12    9      1.08      0.00
    7   12    9      1.92      0.00
    8   12    9      0.25      0.00
    9   12    9     -0.62      0.00
   10   12    9      2.45      0.00
   11   12    9      1.15      0.00
   12   12    9     -1.63      0.00
  -12   13    9      0.90      0.00
  -11   13    9      4.46      0.00
  -10   13    9      1.94      0.00
   -9   13    9     -1.86      0.00
   -8   13    9     -3.62      0.00
   -7   13    9      0.05      0.00
   -6   13    9     -0.06      0.00
   -5   13    9      0.12      0.00
   -4   13    9      0.52      0.00
   -3   13    9     -0.58      0.00
   -2   13    9      0.43      0.00
   -1   13    9      1.01      0.00
    0   13    9      0.39      0.00
    1   13    9     -0.86      0.00
    2   13    9      0.25      0.00
    3   13    9     -0.11      0.00
    4   13    9      0.58      0.00
    5   13    9     -1.28      0.00
    6   13    9      0.22      0.00
    7   13    9     -0.37      0.00
    8   13    9     -2.68      0.00
    9   13    9      0.99      0.00
   10   13    9     -0.38      0.00
   11   13    9      1.92      0.00
   12   13    9      0.66      0.00
   13   13    9      1.17      0.00
  -13   14    9     -1.26      0.00
  -12   14    9     -0.89      0.00
  -11   14    9      0.40      0.00
  -10   14    9      1.00      0.00
   -9   14    9      1.71      0.00
   -8   14    9      0.45      0.00
   -7   14    9      0.61      0.00
   -6   14    9     -1.79      0.00
   -5   14    9     -2.08      0.00
   -4   14    9      1.63      0.00
   -3   14    9      0.87      0.00
   -2   14    9     -2.17      0.00
   -1   14    9      0.31      0.00
    0   14    9      2.61      0.00
    1   14    9     -0.38      0.00
    2   14    9     -0.82      0.00
    3   14    9      0.17      0.00
    4   14    9      0.12      0.00
    5   14    9      0.46      0.00
    6   14    9      0.77      0.00
    7   14    9      2.19      0.00
    8   14    9     -2.22      0.00
    9   14    9     -0.80      0.00
   10   14    9     -0.19      0.00
   11   14    9     -3.12      0.00
   12   14    9      2.88      0.00
   13   14    9      1.55      0.00
   14   14    9     -0.20      0.00
  -14   15    9     -0.06      0.00
  -13   15    9      2.61      0.00
  -12   15    9      1.59      0.00
  -11   15    9     -2.07      0.00
  -10   15    9     -1.69      0.00
   -9   15    9      4.01      0.00
   -8   15    9     -0.47      0.00
   -7   15    9     -0.22      0.00
   -6   15    9      0.61      0.00
   -5   15    9     -1.34      0.00
   -4   15    9     -1.74      0.00
   -3   15    9      0.55      0.00
   -2   15    9      1.59      0.00
   -1   15    9     -1.35      0.00
    0   15    9     -0.26      0.00
    1   15    9      0.33      0.00
    2   15    9     -0.54      0.00
    3   15    9     -0.29      0.00
    4   15    9      0.51      0.00
    5   15    9      0.12      0.00
    6   15    9     -1.58      0.00
    7   15    9      0.07      0.00
    8   15    9      2.18      0.00
    9   15    9      0.16      0.00
   10   15    9      0.75      0.00
   11   15    9     -1.28      0.00
   12   15    9     -2.07      0.00
   13   15    9      2.39      0.00
   14   15    9      0.53      0.00
   15   15    9      1.31      0.00
  -15   16    9     -2.27      0.00
  -14   16    9     -2.13      0.00
  -13   16    9     -0.47      0.00
  -12   16    9     -3.23      0.00
  -11   16    9      0.95      0.00
  -10   16    9     -0.06      0.00
   -9   16    9      1.59      0.00
   -8   16    9      1.37      0.00
   -7   16    9     -0.38      0.00
   -6   16    9      2.24      0.00
   -5   16    9      0.21      0.00
   -4   16    9      0.36      0.00
   -3   16    9     -2.27      0.00
   -2   16    9      1.02      0.00
   -1   16    9      0.08      0.00
    0   16    9     -0.89      0.00
    1   16    9      0.67      0.00
    2   16    9     -0.92      0.00
    3   16    9     -0.05      0.00
    4   16    9      1.51      0.00
    5   16    9     -0.78      0.00
    6   16    9     -1.52      0.00
    7   16    9     -0.14      0.00
    8   16    9      0.21      0.00
    9   16    9      1.03      0.00
   10   16    9     -1.09      0.00
   11   16    9     -1.86      0.00
   12   16    9     -0.57      0.00
   13   16    9      0.01      0.00
   14   16    9      2.41      0.00
   15   16    9     -1.04      0.00
   16   16    9      0.86      0.00
  -16   17    9      0.52      0.00
  -15   17    9      3.09      0.00
  -14   17    9     -1.17      0.00
  -13   17    9      0.09      0.00
  -12   17    9     -0.20      0.00
  -11   17    9     -0.65      0.00
  -10   17    9     -1.91      0.00
   -9   17    9     -4.23      0.00
   -8   17    9      0.46      0.00
   -7   17    9     -1.45      0.00
   -6   17    9      1.83      0.00
   -5   17    9      0.81      0.00
   -4   17    9      0.46      0.00
   -3   17    9      1.92      0.00
   -2   17    9     -0.45      0.00
   -1   17    9      0.97      0.00
    0   17    9     -0.04      0.00
    1   17    9     -0.13      0.00
    2   17    9     -0.18      0.00
    3   17    9     -0.36      0.00
    4   17    9     -0.96      0.00
    5   17    9      0.35      0.00
    6   17    9      0.11      0.00
    7   17    9      1.18      0.00
    8   17    9      0.78      0.00
    9   17    9     -1.30      0.00
   10   17    9      1.04      0.00
   11   17    9      0.25      0.00
   12   17    9     -1.00      0.00
   13   17    9     -2.50      0.00
   14   17    9     -0.38      0.00
   15   17    9      1.57      0.00
   16   17    9     -0.69      0.00
   17   17    9      0.49      0.00
  -17   18    9      1.22      0.00
  -16   18    9     -0.43      0.00
  -15   18    9      2.18      0.00
  -14   18    9      0.83      0.00
  -13   18    9     -3.31      0.00
  -12   18    9      2.12      0.00
  -11   18    9      2.75      0.00
  -10   18    9      0.81      0.00
   -9   18    9      0.27      0.00
   -8   18    9      0.24      0.00
   -7   18    9     -3.61      0.00
   -6   18    9     -3.03      0.00
   -5   18    9      1.24      0.00
   -4   18    9     -2.52      0.00
   -3   18    9      0.44      0.00
   -2   18    9      1.86      0.00
   -1   18    9     -1.10      0.00
    0   18    9      0.43      0.00
    1   18    9      1.79      0.00
    2   18    9      0.39      0.00
    3   18    9      1.05      0.00
    4   18    9     -0.73      0.00
    5   18    9     -2.37      0.00
    6   18    9      0.56      0.00
    7   18    9     -0.84      0.00
    8   18    9      0.62      0.00
    9   18    9      0.14      0.00
   10   18    9      0.46      0.00
   11   18    9      2.13      0.00
   12   18    9     -0.35      0.00
   13   18    9     -0.67      0.00
   14   18    9     -0.67      0.00
   15   18    9     -0.55      0.00
   16   18    9      0.06      0.00
   17   18    9      1.08      0.00
  -16   19    9      0.68      0.00
  -15   19    9      0.51      0.00
  -14   19    9      1.79      0.00
  -13   19    9     -0.10      0.00
  -12   19    9     -1.51      0.00
  -11   19    9     -0.69      0.00
  -10   19    9      0.42      0.00
   -9   19    9      1.33      0.00
   -8   19    9      2.59      0.00
   -7   19    9      1.68      0.00
   -6   19    9     -1.99      0.00
   -5   19    9     -1.88      0.00
   -4   19    9      1.20      0.00
   -3   19    9     -0.46      0.00
   -2   19    9      0.59      0.00
   -1   19    9      0.02      0.00
    0   19    9     -2.36      0.00
    1   19    9     -0.79      0.00
    2   19    9     -0.55      0.00
    3   19    9      0.52      0.00
    4   19    9      5.10      0.00
    5   19    9     -0.45      0.00
    6   19    9     -1.67      0.00
    7   19    9     -0.51      0.00
    8   19    9     -3.56      0.00
    9   19    9      1.26      0.00
   10   19    9      2.92      0.00
   11   19    9      0.24      0.00
   12   19    9     -2.18      0.00
   13   19    9     -0.56      0.00
   14   19    9      1.85      0.00
   15   19    9      1.83      0.00
   16   19    9     -0.90      0.00
  -15   20    9     -1.55      0.00
  -14   20    9      0.41      0.00
  -13   20    9      1.02      0.00
  -12   20    9      0.65      0.00
  -11   20    9     -0.26      0.00
  -10   20    9      1.03      0.00
   -9   20    9      0.07      0.00
   -8   20    9     -0.90      0.00
   -7   20    9      0.37      0.00
   -6   20    9      0.17      0.00
   -5   20    9     -0.96      0.00
   -4   20    9      0.25      0.00
   -3   20    9     -0.11      0.00
   -2   20    9     -0.89      0.00
   -1   20    9      2.82      0.00
    0   20    9      1.45      0.00
    1   20    9     -0.35      0.00
    2   20    9     -0.59      0.00
    3   20    9     -3.11      0.00
    4   20    9     -1.08      0.00
    5   20    9      2.42      0.00
    6   20    9      1.01      0.00
    7   20    9      3.46      0.00
    8   20    9     -2.47      0.00
    9   20    9     -3.46      0.00
   10   20    9      0.22      0.00
   11   20    9      1.59      0.00
   12   20    9      1.48      0.00
   13   20    9     -1.33      0.00
   14   20    9     -1.92      0.00
   15   20    9      1.60      0.00
  -13   21    9      0.34      0.00
  -12   21    9     -4.25      0.00
  -11   21    9      0.09      0.00
  -10   21    9      1.92      0.00
   -9   21    9      1.06      0.00
   -8   21    9      1.74      0.00
   -7   21    9      0.05      0.00
   -6   21    9      0.08      0.00
   -5   21    9      0.50      0.00
   -4   21    9     -2.72      0.00
   -3   21    9     -2.42      0.00
   -2   21    9      0.83      0.00
   -1   21    9      1.85      0.00
    0   21    9     -1.11      0.00
    1   21    9      0.92      0.00
    2   21    9      2.42      0.00
    3   21    9     -1.36      0.00
    4   21    9     -1.26      0.00
    5   21    9      1.53      0.00
    6   21    9     -2.17      0.00
    7   21    9      0.09      0.00
    8   21    9      3.19      0.00
    9   21    9      0.11      0.00
   10   21    9     -0.22      0.00
   11   21    9     -2.68      0.00
   12   21    9      0.57      0.00
   13   21    9      2.03      0.00
  -12   22    9      0.35      0.00
  -11   22    9     -1.40      0.00
  -10   22    9     -0.68      0.00
   -9   22    9     -3.46      0.00
   -8   22    9      1.49      0.00
   -7   22    9      4.30      0.00
   -6   22    9      1.50      0.00
   -5   22    9      0.34      0.00
   -4   22    9     -2.41      0.00
   -3   22    9     -2.35      0.00
   -2   22    9     -2.74      0.00
   -1   22    9      1.90      0.00
    0   22    9      4.54      0.00
    1   22    9     -0.65      0.00
    2   22    9     -2.49      0.00
    3   22    9     -1.14      0.00
    4   22    9      0.71      0.00
    5   22    9      2.81      0.00
    6   22    9     -0.62      0.00
    7   22    9     -2.26      0.00
    8   22    9      0.99      0.00
    9   22    9     -1.83      0.00
   10   22    9      1.28      0.00
   11   22    9      2.87      0.00
   12   22    9     -0.49      0.00
   -9   23    9      1.00      0.00
   -8   23    9     -1.55      0.00
   -7   23    9      0.59      0.00
   -6   23    9      0.03      0.00
   -5   23    9      3.21      0.00
   -4   23    9      2.81      0.00
   -3   23    9      0.38      0.00
   -2   23    9     -4.48      0.00
   -1   23    9     -5.47      0.00
    0   23    9     -0.78      0.00
    1   23    9      2.08      0.00
    2   23    9      3.93      0.00
    3   23    9      2.52      0.00
    4   23    9     -2.09      0.00
    5   23    9     -3.40      0.00
    6   23    9     -0.20      0.00
    7   23    9      2.30      0.00
    8   23    9      3.56      0.00
    9   23    9     -3.06      0.00
   -7   24    9     -2.46      0.00
   -6   24    9     -1.93      0.00
   -5   24    9      0.71      0.00
   -4   24    9      4.13      0.00
   -3   24    9      2.34      0.00
   -2   24    9      2.42      0.00
   -1   24    9     -0.44      0.00
    0   24    9     -2.97      0.00
    1   24    9     -6.66      0.00
    2   24    9      0.57      0.00
    3   24    9      2.92      0.00
    4   24    9      0.28      0.00
    5   24    9      0.31      0.00
    6   24    9      0.37      0.00
    7   24    9     -2.12      0.00
   -1   25    9     -0.77      0.00
    0   25    9      4.99      0.00
    1   25    9      3.94      0.00
    0    0   10      1.72      0.00
    0    1   10      0.38      0.00
    1    1   10     -0.57      0.00
   -1    2   10      0.45      0.00
    0    2   10     -0.91      0.00
    1    2   10      0.16      0.00
    2    2   10      0.16      0.00
   -2    3   10     -1.40      0.00
   -1    3   10     -1.01      0.00
    0    3   10     -0.13      0.00
    1    3   10      1.21      0.00
    2    3   10      1.38      0.00
    3    3   10     -1.67      0.00
   -3    4   10      0.42      0.00
   -2    4   10     -0.81      0.00
   -1    4   10      0.95      0.00
    0    4   10      1.18      0.00
    1    4   10      0.34      0.00
    2    4   10     -0.24      0.00
    3    4   10      1.04      0.00
    4    4   10      0.49      0.00
   -4    5   10      0.52      0.00
   -3    5   10     -0.75      0.00
   -2    5   10     -1.47      0.00
   -1    5   10     -0.61      0.00
    0    5   10      0.58      0.00
    1    5   10     -0.63      0.00
    2    5   10      1.74      0.00
    3    5   10     -0.63      0.00
    4    5   10     -0.64      0.00
    5    5   10      1.26      0.00
   -5    6   10     -0.99      0.00
   -4    6   10     -1.08      0.00
   -3    6   10      1.68      0.00
   -2    6   10      3.51      0.00
   -1    6   10     -1.74      0.00
    0    6   10     -1.66      0.00
    1    6   10     -0.49      0.00
    2    6   10      0.18      0.00
    3    6   10      1.94      0.00
    4    6   10     -2.18      0.00
    5    6   10      0.28      0.00
    6    6   10      0.95      0.00
   -6    7   10     -1.02      0.00
   -5    7   10     -1.48      0.00
   -4    7   10     -0.06      0.00
   -3    7   10     -0.60      0.00
   -2    7   10     -1.51      0.00
   -1    7   10      0.58      0.00
    0    7   10     -1.05      0.00
    1    7   10      1.74      0.00
    2    7   10     -0.62      0.00
    3    7   10     -0.34      0.00
    4    7   10     -0.16      0.00
    5    7   10     -1.05      0.00
    6    7   10      0.91      0.00
    7    7   10     -1.08      0.00
   -7    8   10      1.95      0.00
   -6    8   10      3.15      0.00
   -5    8   10     -0.65      0.00
   -4    8   10     -0.14      0.00
   -3    8   10      2.32      0.00
   -2    8   10     -2.42      0.00
   -1    8   10     -1.19      0.00
    0    8   10      0.84      0.00
    1    8   10     -1.23      0.00
    2    8   10      1.40      0.00
    3    8   10     -0.82      0.00
    4    8   10     -2.26      0.00
    5    8   10     -0.37      0.00
    6    8   10      2.35      0.00
    7    8   10     -0.71      0.00
    8    8   10     -0.09      0.00
   -8    9   10     -1.55      0.00
   -7    9   10     -2.02      0.00
   -6    9   10      3.71      0.00
   -5    9   10      3.63      0.00
   -4    9   10     -1.33      0.00
   -3    9   10     -1.61      0.00
   -2    9   10      2.07      0.00
   -1    9   10      0.41      0.00
    0    9   10      2.04      0.00
    1    9   10     -0.21      0.00
    2    9   10     -0.65      0.00
    3    9   10      2.45      0.00
    4    9   10     -0.20      0.00
    5    9   10     -2.75      0.00
    6    9   10      0.81      0.00
    7    9   10     -0.32      0.00
    8    9   10     -3.59      0.00
    9    9   10      3.92      0.00
   -9   10   10     -2.61      0.00
   -8   10   10     -0.94      0.00
   -7   10   10     -2.18      0.00
   -6   10   10     -2.73      0.00
   -5   10   10      0.90      0.00
   -4   10   10      0.70      0.00
   -3   10   10      0.59      0.00
   -2   10   10     -0.06      0.00
   -1   10   10     -1.47      0.00
    0   10   10     -2.59      0.00
    1   10   10      2.58      0.00
    2   10   10      0.51      0.00
    3   10   10      1.25      0.00
    4   10   10      2.11      0.00
    5   10   10     -0.82      0.00
    6   10   10     -0.38      0.00
    7   10   10      2.52      0.00
    8   10   10     -3.04      0.00
    9   10   10     -4.10      0.00
   10   10   10      1.24      0.00
  -10   11   10     -1.89      0.00
   -9   11   10      1.51      0.00
   -8   11   10      1.30      0.00
   -7   11   10      2.05      0.00
   -6   11   10     -1.57      0.00
   -5   11   10     -0.43      0.00
   -4   11   10     -1.55      0.00
   -3   11   10     -0.02      0.00
   -2   11   10      1.91      0.00
   -1   11   10      0.87      0.00
    0   11   10     -2.44      0.00
    1   11   10     -1.72      0.00
    2   11   10      2.23      0.00
    3   11   10     -0.42      0.00
    4   11   10      0.52      0.00
    5   11   10      0.22      0.00
    6   11   10      1.05      0.00
    7   11   10      2.81      0.00
    8   11   10      3.75      0.00
    9   11   10     -0.20      0.00
   10   11   10     -4.11      0.00
   11   11   10     -2.03      0.00
  -11   12   10     -0.26      0.00
  -10   12   10     -0.34      0.00
   -9   12   10      0.88      0.00
   -8   12   10     -0.97      0.00
   -7   12   10     -3.75      0.00
   -6   12   10      1.78      0.00
   -5   12   10      2.26      0.00
   -4   12   10      1.42      0.00
   -3   12   10     -2.42      0.00
   -2   12   10     -0.87      0.00
   -1   12   10     -0.78      0.00
    0   12   10     -0.25      0.00
    1   12   10     -1.23      0.00
    2   12   10     -0.29      0.00
    3   12   10      0.91      0.00
    4   12   10     -0.07      0.00
    5   12   10     -0.34      0.00
    6   12   10     -1.30      0.00
    7   12   10      1.05      0.00
    8   12   10      1.80      0.00
    9   12   10      2.70      0.00
   10   12   10      3.55      0.00
   11   12   10      0.78      0.00
   12   12   10     -0.24      0.00
  -12   13   10      0.89      0.00
  -11   13   10      1.61      0.00
  -10   13   10      4.72      0.00
   -9   13   10     -0.93      0.00
   -8   13   10      1.20      0.00
   -7   13   10     -0.95      0.00
   -6   13   10     -3.04      0.00
   -5   13   10      0.48      0.00
   -4   13   10     -0.07      0.00
   -3   13   10      3.59      0.00
   -2   13   10      1.73      0.00
   -1   13   10     -0.22      0.00
    0   13   10     -3.44      0.00
    1   13   10     -2.15      0.00
    2   13   10     -0.89      0.00
    3   13   10      0.91      0.00
    4   13   10      0.09      0.00
    5   13   10     -3.03      0.00
    6   13   10     -1.58      0.00
    7   13   10      0.60      0.00
    8   13   10      0.40      0.00
    9   13   10     -0.85      0.00
   10   13   10      1.12      0.00
   11   13   10      1.34      0.00
   12   13   10     -2.17      0.00
   13   13   10      2.77      0.00
  -13   14   10     -5.37      0.00
  -12   14   10     -1.37      0.00
  -11   14   10      3.07      0.00
  -10   14   10     -1.56      0.00
   -9   14   10     -1.20      0.00
   -8   14   10     -1.24      0.00
   -7   14   10      6.16      0.00
   -6   14   10     -1.49      0.00
   -5   14   10     -0.07      0.00
   -4   14   10     -0.09      0.00
   -3   14   10     -3.33      0.00
   -2   14   10      1.26      0.00
   -1   14   10      3.61      0.00
    0   14   10      4.15      0.00
    1   14   10     -2.42      0.00
    2   14   10     -0.93      0.00
    3   14   10      0.38      0.00
    4   14   10      0.13      0.00
    5   14   10     -1.25      0.00
    6   14   10     -1.08      0.00
    7   14   10     -0.83      0.00
    8   14   10     -1.80      0.00
    9   14   10      0.93      0.00
   10   14   10      1.40      0.00
   11   14   10     -0.89      0.00
   12   14   10     -0.97      0.00
   13   14   10      0.06      0.00
   14   14   10      1.26      0.00
  -14   15   10      0.04      0.00
  -13   15   10      1.75      0.00
  -12   15   10     -2.20      0.00
  -11   15   10      2.65      0.00
  -10   15   10     -0.56      0.00
   -9   15   10     -0.14      0.00
   -8   15   10     -0.89      0.00
   -7   15   10     -3.34      0.00
   -6   15   10      1.29      0.00
   -5   15   10     -0.03      0.00
   -4   15   10      4.56      0.00
   -3   15   10     -2.97      0.00
   -2   15   10     -2.78      0.00
   -1   15   10     -0.44      0.00
    0   15   10      0.79      0.00
    1   15   10      1.27      0.00
    2   15   10     -0.83      0.00
    3   15   10      0.97      0.00
    4   15   10      1.20      0.00
    5   15   10      1.82      0.00
    6   15   10      0.05      0.00
    7   15   10     -1.60      0.00
    8   15   10     -3.46      0.00
    9   15   10     -0.73      0.00
   10   15   10      2.62      0.00
   11   15   10      0.75      0.00
   12   15   10     -2.10      0.00
   13   15   10      0.42      0.00
   14   15   10      2.23      0.00
   15   15   10      0.33      0.00
  -14   16   10     -1.29      0.00
  -13   16   10      1.18      0.00
  -12   16   10     -2.25      0.00
  -11   16   10     -3.90      0.00
  -10   16   10      4.39      0.00
   -9   16   10      1.19      0.00
   -8   16   10      1.48      0.00
   -7   16   10      0.69      0.00
   -6   16   10     -1.10      0.00
   -5   16   10     -0.33      0.00
   -4   16   10      0.32      0.00
   -3   16   10      2.55      0.00
   -2   16   10      0.47      0.00
   -1   16   10      0.34      0.00
    0   16   10     -1.49      0.00
    1   16   10     -0.26      0.00
    2   16   10     -3.18      0.00
    3   16   10     -1.66      0.00
    4   16   10      3.47      0.00
    5   16   10      1.27      0.00
    6   16   10     -1.70      0.00
    7   16   10      1.77      0.00
    8   16   10      0.62      0.00
    9   16   10     -2.08      0.00
   10   16   10     -0.36      0.00
   11   16   10     -0.85      0.00
   12   16   10     -0.71      0.00
   13   16   10     -2.64      0.00
   14   16   10      0.90      0.00
  -13   17   10      0.33      0.00
  -12   17   10     -1.24      0.00
  -11   17   10     -1.00      0.00
  -10   17   10     -2.84      0.00
   -9   17   10     -1.16      0.00
   -8   17   10     -3.41      0.00
   -7   17   10      1.55      0.00
   -6   17   10     -0.16      0.00
   -5   17   10     -0.69      0.00
   -4   17   10      4.13      0.00
   -3   17   10      0.56      0.00
   -2   17   10      0.21      0.00
   -1   17   10      1.11      0.00
    0   17   10      0.66      0.00
    1   17   10      1.58      0.00
    2   17   10      0.65      0.00
    3   17   10     -2.04      0.00
    4   17   10     -1.14      0.00
    5   17   10     -0.15      0.00
    6   17   10     -1.64      0.00
    7   17   10      1.37      0.00
    8   17   10      4.41      0.00
    9   17   10     -1.79      0.00
   10   17   10     -0.58      0.00
   11   17   10      0.78      0.00
   12   17   10     -0.08      0.00
   13   17   10     -0.29      0.00
  -12   18   10     -0.61      0.00
  -11   18   10      2.65      0.00
  -10   18   10      3.00      0.00
   -9   18   10     -1.86      0.00
   -8   18   10      0.20      0.00
   -7   18   10     -4.27      0.00
   -6   18   10     -1.99      0.00
   -5   18   10     -4.85      0.00
   -4   18   10      0.09      0.00
   -3   18   10      2.67      0.00
   -2   18   10     -0.56      0.00
   -1   18   10      3.11      0.00
    0   18   10     -0.04      0.00
    1   18   10     -1.05      0.00
    2   18   10      1.65      0.00
    3   18   10      0.89      0.00
    4   18   10     -0.54      0.00
    5   18   10     -0.53      0.00
    6   18   10      0.51      0.00
    7   18   10     -1.41      0.00
    8   18   10      0.23      0.00
    9   18   10     -0.59      0.00
   10   18   10     -0.70      0.00
   11   18   10      4.58      0.00
   12   18   10     -0.17      0.00
  -10   19   10      3.95      0.00
   -9   19   10      2.97      0.00
   -8   19   10      0.02      0.00
   -7   19   10      2.07      0.00
   -6   19   10     -1.28      0.00
   -5   19   10     -1.84      0.00
   -4   19   10     -4.78      0.00
   -3   19   10      1.66      0.00
   -2   19   10     -0.52      0.00
   -1   19   10     -1.50      0.00
    0   19   10      1.94      0.00
    1   19   10      1.03      0.00
    2   19   10      0.77      0.00
    3   19   10     -2.06      0.00
    4   19   10      0.38      0.00
    5   19   10      2.18      0.00
    6   19   10     -0.98      0.00
    7   19   10      0.12      0.00
    8   19   10     -0.40      0.00
    9   19   10     -0.29      0.00
   10   19   10     -1.05      0.00
   -8   20   10     -0.26      0.00
   -7   20   10      2.47      0.00
   -6   20   10      0.51      0.00
   -5   20   10     -3.95      0.00
   -4   20   10     -0.97      0.00
   -3   20   10     -1.62      0.00
   -2   20   10      1.56      0.00
   -1   20   10      0.60      0.00
    0   20   10     -0.24      0.00
    1   20   10     -1.49      0.00
    2   20   10      0.39      0.00
    3   20   10      2.41      0.00
    4   20   10     -1.65      0.00
    5   20   10      0.78      0.00
    6   20   10     -0.09      0.00
    7   20   10     -1.79      0.00
    8   20   10      1.11      0.00
   -6   21   10      6.96      0.00
   -5   21   10      0.24      0.00
   -4   21   10     -1.68      0.00
   -3   21   10     -4.04      0.00
   -2   21   10     -6.20      0.00
   -1   21   10      2.75      0.00
    0   21   10      2.94      0.00
    1   21   10      0.66      0.00
    2   21   10     -1.45      0.00
    3   21   10     -0.07      0.00
    4   21   10      0.13      0.00
    5   21   10     -1.14      0.00
    6   21   10      2.02      0.00
    0    0   11     -0.88      0.00
    0    1   11      0.49      0.00
    1    1   11     -0.53      0.00
   -1    2   11      0.47      0.00
    0    2   11     -0.31      0.00
    1    2   11      0.57      0.00
    2    2   11      0.13      0.00
   -2    3   11     -1.97      0.00
   -1    3   11      1.75      0.00
    0    3   11      0.27      0.00
    1    3   11      1.74      0.00
    2    3   11      1.24      0.00
    3    3   11     -0.63      0.00
   -3    4   11      1.45      0.00
   -2    4   11     -0.25      0.00
   -1    4   11     -1.40      0.00
    0    4   11     -0.45      0.00
    1    4   11      0.50      0.00
    2    4   11      2.78      0.00
    3    4   11     -0.18      0.00
    4    4   11     -0.89      0.00
   -4    5   11     -1.41      0.00
   -3    5   11     -0.42      0.00
   -2    5   11     -0.11      0.00
   -1    5   11      0.51      0.00
    0    5   11      1.14      0.00
    1    5   11      0.73      0.00
    2    5   11      1.53      0.00
    3    5   11     -0.33      0.00
    4    5   11     -2.13      0.00
    5    5   11      0.64      0.00
   -5    6   11      3.22      0.00
   -4    6   11      0.21      0.00
   -3    6   11     -0.74      0.00
   -2    6   11     -2.22      0.00
   -1    6   11     -2.62      0.00
    0    6   11     -0.89      0.00
    1    6   11      1.83      0.00
    2    6   11      2.42      0.00
    3    6   11      3.65      0.00
    4    6   11      1.59      0.00
    5    6   11      0.63      0.00
    6    6   11     -3.45      0.00
   -6    7   11     -4.24      0.00
   -5    7   11     -0.27      0.00
   -4    7   11      2.75      0.00
   -3    7   11     -0.31      0.00
   -2    7   11      0.51      0.00
   -1    7   11     -0.34      0.00
    0    7   11     -4.72      0.00
    1    7   11     -5.11      0.00
    2    7   11      0.11      0.00
    3    7   11      2.87      0.00
    4    7   11      2.41      0.00
    5    7   11      2.39      0.00
    6    7   11      1.40      0.00
    7    7   11     -2.25      0.00
   -7    8   11      1.34      0.00
   -6    8   11      2.41      0.00
   -5    8   11     -0.76      0.00
   -4    8   11     -0.08      0.00
   -3    8   11      3.38      0.00
   -2    8   11      0.34      0.00
   -1    8   11      0.24      0.00
    0    8   11      0.75      0.00
    1    8   11     -1.30      0.00
    2    8   11     -3.02      0.00
    3    8   11     -0.46      0.00
    4    8   11     -1.94      0.00
    5    8   11      0.14      0.00
    6    8   11      5.44      0.00
    7    8   11     -0.14      0.00
    8    8   11     -0.81      0.00
   -8    9   11     -2.64      0.00
   -7    9   11      2.23      0.00
   -6    9   11     -0.96      0.00
   -5    9   11     -0.25      0.00
   -4    9   11     -2.43      0.00
   -3    9   11      1.31      0.00
   -2    9   11      3.16      0.00
   -1    9   11      0.23      0.00
    0    9   11      0.54      0.00
    1    9   11      1.63      0.00
    2    9   11      0.31      0.00
    3    9   11     -2.89      0.00
    4    9   11      2.02      0.00
    5    9   11      0.27      0.00
    6    9   11      2.66      0.00
    7    9   11      0.75      0.00
    8    9   11     -2.15      0.00
    9    9   11      2.92      0.00
   -9   10   11      2.30      0.00
   -8   10   11     -2.50      0.00
   -7   10   11      2.36      0.00
   -6   10   11      1.11      0.00
   -5   10   11     -1.05      0.00
   -4   10   11     -0.72      0.00
   -3   10   11     -3.80      0.00
   -2   10   11     -0.78      0.00
   -1   10   11      0.72      0.00
    0   10   11      1.86      0.00
    1   10   11     -1.74      0.00
    2   10   11     -0.16      0.00
    3   10   11     -0.40      0.00
    4   10   11     -1.06      0.00
    5   10   11      0.83      0.00
    6   10   11     -0.93      0.00
    7   10   11      4.92      0.00
    8   10   11      1.04      0.00
    9   10   11     -0.62      0.00
   10   10   11      0.87      0.00
  -10   11   11     -4.50      0.00
   -9   11   11      0.92      0.00
   -8   11   11      0.68      0.00
   -7   11   11     -0.75      0.00
   -6   11   11      0.69      0.00
   -5   11   11      3.15      0.00
   -4   11   11      2.91      0.00
   -3   11   11     -1.58      0.00
   -2   11   11      0.09      0.00
   -1   11   11     -0.91      0.00
    0   11   11     -0.53      0.00
    1   11   11      1.51      0.00
    2   11   11     -0.46      0.00
    3   11   11      0.61      0.00
    4   11   11     -2.19      0.00
    5   11   11     -1.77      0.00
    6   11   11      0.09      0.00
    7   11   11      1.18      0.00
    8   11   11      4.15      0.00
    9   11   11      0.48      0.00
   10   11   11     -0.50      0.00
   11   11   11     -0.19      0.00
  -11   12   11      2.33      0.00
  -10   12   11     -2.07      0.00
   -9   12   11      0.24      0.00
   -8   12   11     -1.19      0.00
   -7   12   11     -2.13      0.00
   -6   12   11     -0.69      0.00
   -5   12   11     -1.63      0.00
   -4   12   11      1.71      0.00
   -3   12   11     -1.92      0.00
   -2   12   11      1.70      0.00
   -1   12   11      2.53      0.00
    0   12   11     -3.85      0.00
    1   12   11      0.47      0.00
    2   12   11      2.21      0.00
    3   12   11     -0.63      0.00
    4   12   11     -1.19      0.00
    5   12   11      0.13      0.00
    6   12   11      0.55      0.00
    7   12   11     -1.00      0.00
    8   12   11     -0.11      0.00
    9   12   11      2.96      0.00
   10   12   11      1.78      0.00
   11   12   11      1.62      0.00
   12   12   11     -0.14      0.00
  -11   13   11      1.12      0.00
  -10   13   11      2.69      0.00
   -9   13   11     -0.83      0.00
   -8   13   11      0.37      0.00
   -7   13   11     -0.94      0.00
   -6   13   11      2.21      0.00
   -5   13   11     -1.72      0.00
   -4   13   11      0.33      0.00
   -3   13   11      1.37      0.00
   -2   13   11     -4.78      0.00
   -1   13   11      2.35      0.00
    0   13   11     -0.19      0.00
    1   13   11     -2.43      0.00
    2   13   11      0.77      0.00
    3   13   11      0.22      0.00
    4   13   11     -1.26      0.00
    5   13   11     -2.16      0.00
    6   13   11     -0.81      0.00
    7   13   11     -0.37      0.00
    8   13   11      0.96      0.00
    9   13   11      0.08      0.00
   10   13   11      0.59      0.00
   11   13   11      1.58      0.00
  -10   14   11      3.07      0.00
   -9   14   11     -0.74      0.00
   -8   14   11     -1.74      0.00
   -7   14   11      1.34      0.00
   -6   14   11     -0.97      0.00
   -5   14   11     -0.43      0.00
   -4   14   11      1.61      0.00
   -3   14   11      5.01      0.00
   -2   14   11     -3.84      0.00
   -1   14   11     -3.23      0.00
    0   14   11      5.28      0.00
    1   14   11     -1.59      0.00
    2   14   11      0.68      0.00
    3   14   11      2.62      0.00
    4   14   11     -0.86      0.00
    5   14   11     -4.28      0.00
    6   14   11     -0.43      0.00
    7   14   11      0.98      0.00
    8   14   11     -1.56      0.00
    9   14   11      0.71      0.00
   10   14   11     -0.40      0.00
   -9   15   11      2.25      0.00
   -8   15   11     -0.41      0.00
   -7   15   11     -1.54      0.00
   -6   15   11      3.10      0.00
   -5   15   11     -0.02      0.00
   -4   15   11     -1.81      0.00
   -3   15   11      0.77      0.00
   -2   15   11      2.14      0.00
   -1   15   11     -3.59      0.00
    0   15   11     -0.58      0.00
    1   15   11      0.02      0.00
    2   15   11     -1.02      0.00
    3   15   11      3.67      0.00
    4   15   11      1.55      0.00
    5   15   11     -1.20      0.00
    6   15   11     -1.96      0.00
    7   15   11      1.83      0.00
    8   15   11     -1.62      0.00
    9   15   11     -0.99      0.00
   -7   16   11     -3.47      0.00
   -6   16   11      0.36      0.00
   -5   16   11      4.30      0.00
   -4   16   11     -1.37      0.00
   -3   16   11      2.23      0.00
   -2   16   11      5.09      0.00
   -1   16   11      0.15      0.00
    0   16   11     -3.51      0.00
    1   16   11     -1.32      0.00
    2   16   11     -2.71      0.00
    3   16   11     -0.16      0.00
    4   16   11      3.83      0.00
    5   16   11      1.66      0.00
    6   16   11     -3.84      0.00
    7   16   11     -2.53      0.00
   -4   17   11      0.14      0.00
   -3   17   11     -0.30      0.00
   -2   17   11      4.94      0.00
   -1   17   11      2.90      0.00
    0   17   11      2.28      0.00
    1   17   11      0.74      0.00
    2   17   11     -2.40      0.00
    3   17   11     -1.32      0.00
    4   17   11      2.34      0.00
    0    0   12     -0.60      0.00
    0    1   12     -0.40      0.00
    1    1   12     -3.67      0.00
   -1    2   12     -0.49      0.00
    0    2   12      4.14      0.00
    1    2   12      0.87      0.00
    2    2   12     -2.30      0.00
   -2    3   12     -3.24      0.00
   -1    3   12     -2.49      0.00
    0    3   12      2.05      0.00
    1    3   12      3.46      0.00
    2    3   12      0.14      0.00
    3    3   12      1.65      0.00
   -3    4   12      1.25      0.00
   -2    4   12     -4.22      0.00
   -1    4   12     -1.60      0.00
    0    4   12     -1.66      0.00
    1    4   12      0.17      0.00
    2    4   12      0.19      0.00
    3    4   12      2.71      0.00
    4    4   12     -0.44      0.00
   -4    5   12     -1.24      0.00
   -3    5   12      6.12      0.00
   -2    5   12      1.64      0.00
   -1    5   12     -5.58      0.00
    0    5   12     -1.47      0.00
    1    5   12      0.58      0.00
    2    5   12      0.84      0.00
    3    5   12     -0.39      0.00
    4    5   12     -1.08      0.00
    5    5   12     -3.72      0.00
   -5    6   12     -1.83      0.00
   -4    6   12     -1.35      0.00
   -3    6   12      3.00      0.00
   -2    6   12      7.70      0.00
   -1    6   12     -1.68      0.00
    0    6   12     -1.27      0.00
    1    6   12      4.12      0.00
    2    6   12      1.08      0.00
    3    6   12      0.36      0.00
    4    6   12      1.31      0.00
    5    6   12      1.20      0.00
    6    6   12     -5.35      0.00
   -6    7   12     -1.39      0.00
   -5    7   12      1.50      0.00
   -4    7   12     -2.06      0.00
   -3    7   12     -5.19      0.00
   -2    7   12     -0.14      0.00
   -1    7   12      4.17      0.00
    0    7   12     -3.62      0.00
    1    7   12     -0.54      0.00
    2    7   12      1.58      0.00
    3    7   12      4.52      0.00
    4    7   12      4.68      0.00
    5    7   12      2.21      0.00
    6    7   12      0.57      0.00
    7    7   12     -6.14      0.00
   -7    8   12     -0.10      0.00
   -6    8   12     -2.70      0.00
   -5    8   12      3.04      0.00
   -4    8   12      2.85      0.00
   -3    8   12      0.18      0.00
   -2    8   12      0.17      0.00
   -1    8   12      1.54      0.00
    0    8   12     -1.31      0.00
    1    8   12     -4.05      0.00
    2    8   12     -0.04      0.00
    3    8   12     -1.34      0.00
    4    8   12      2.53      0.00
    5    8   12      1.24      0.00
    6    8   12      7.81      0.00
    7    8   12      4.46      0.00
   -6    9   12     -0.18      0.00
   -5    9   12     -6.60      0.00
   -4    9   12     -4.24      0.00
   -3    9   12     -2.34      0.00
   -2    9   12      0.96      0.00
   -1    9   12      1.22      0.00
    0    9   12      0.88      0.00
    1    9   12     -1.11      0.00
    2    9   12      2.42      0.00
    3    9   12     -0.36      0.00
    4    9   12     -3.41      0.00
    5    9   12     -0.54      0.00
    6    9   12      1.02      0.00
   -5   10   12      3.52      0.00
   -4   10   12     -0.63      0.00
   -3   10   12     -2.28      0.00
   -2   10   12     -6.02      0.00
   -1   10   12     -3.93      0.00
    0   10   12      0.20      0.00
    1   10   12     -3.98      0.00
    2   10   12     -3.85      0.00
    3   10   12      2.57      0.00
    4   10   12      1.82      0.00
    5   10   12     -0.82      0.00
   -2   11   12      4.21      0.00
   -1   11   12     -1.03      0.00
    0   11   12      0.31      0.00
    1   11   12     -1.29      0.00
    2   11   12     -5.36      0.00
    1    1    0    282.37      0.00
    0    2    0   -186.61      0.00
    2    2    0     31.01      0.00
    3    3    0    -49.13      0.00
    0    4    0   -233.09      0.00
   -1    5    0    156.22      0.00
    1    5    0   -121.01      0.00
    2    6    0     52.22      0.00
  -21   29    0      1.91      0.00
   21   29    0      0.42      0.00
  -16   32    0      2.01      0.00
   16   32    0      3.02      0.00
   -7   35    0     -0.91      0.00
    7   35    0      8.26      0.00
    0    0    1    192.38      0.00
   -1    3    1    -65.85      0.00
   -2    6    1     24.99      0.00
    0    6    1    -47.59      0.00
  -22   28    1     -0.39      0.00
   22   28    1      1.63      0.00
  -21   29    1      1.29      0.00
   21   29    1     -4.42      0.00
  -16   32    1     -2.31      0.00
   16   32    1      1.44      0.00
  -11   34    1      0.55      0.00
   11   34    1      3.18      0.00
   -7   35    1      0.80      0.00
    7   35    1      2.55      0.00
    0    1    2     33.40      0.00
    1    3    2     48.17      0.00
    2    3    2     29.15      0.00
   25   25    2      0.67      0.00
  -24   26    2      2.26      0.00
   24   26    2      0.46      0.00
  -23   27    2      0.19      0.00
   23   27    2     -1.19      0.00
  -20   29    2      2.30      0.00
   20   29    2      3.40      0.00
  -17   31    2      0.30      0.00
   17   31    2     -3.20      0.00
  -15   32    2      3.64      0.00
   15   32    2      2.03      0.00
  -13   33    2      0.75      0.00
   13   33    2     -4.24      0.00
  -10   34    2     -1.37      0.00
   10   34    2      6.09      0.00
   -5   35    2      4.44      0.00
   -4   35    2     -7.21      0.00
    4   35    2      2.58      0.00
    5   35    2      2.64      0.00
  -23   26    3      1.38      0.00
   23   26    3     -1.56      0.00
  -22   27    3      2.62      0.00
   22   27    3     -2.91      0.00
  -19   29    3      1.01      0.00
   19   29    3      5.74      0.00
  -16   31    3      0.50      0.00
   16   31    3      4.42      0.00
  -14   32    3     -4.46      0.00
   14   32    3     -2.29      0.00
  -11   33    3      0.05      0.00
   11   33    3     -5.47      0.00
   -8   34    3     -2.26      0.00
   -7   34    3     -2.91      0.00
    7   34    3     -6.16      0.00
    8   34    3      2.41      0.00
   24   24    4     -0.38      0.00
  -23   25    4     -5.96      0.00
   23   25    4      2.49      0.00
  -22   26    4     -4.88      0.00
   22   26    4      1.42      0.00
  -18   29    4      2.19      0.00
   18   29    4      3.42      0.00
  -16   30    4     -1.22      0.00
   16   30    4     -2.31      0.00
  -14   31    4      4.02      0.00
   14   31    4     -0.31      0.00
   -8   33    4      3.13      0.00
    8   33    4      5.74      0.00
   -3   34    4      2.50      0.00
   -2   34    4     -8.05      0.00
   -1   34    4      0.07      0.00
    0   34    4      3.60      0.00
    1   34    4     -0.73      0.00
    2   34    4      3.86      0.00
    3   34    4      1.01      0.00
  -20   26    5      0.59      0.00
   20   26    5     -1.69      0.00
  -19   27    5      0.18      0.00
   19   27    5     -0.54      0.00
  -11   31    5      0.23      0.00
   11   31    5     -1.22      0.00
   -8   32    5      2.68      0.00
    8   32    5     -1.71      0.00
   -2   33    5     -4.50      0.00
   -1   33    5      3.52      0.00
    0   33    5      1.51      0.00
    1   33    5     -0.11      0.00
    2   33    5     -0.70      0.00
  -18   26    6      2.36      0.00
   18   26    6      2.13      0.00
  -10   30    6     -1.59      0.00
   10   30    6      0.44      0.00
   -6   31    6     -2.18      0.00
    6   31    6     -0.02      0.00
  -20   22    7     -1.84      0.00
   20   22    7      0.47      0.00
  -19   23    7      2.72      0.00
   19   23    7     -1.67      0.00
  -18   24    7      1.47      0.00
   18   24    7      0.90      0.00
  -15   26    7      1.34      0.00
   15   26    7     -1.99      0.00
  -13   27    7     -1.38      0.00
   13   27    7     -0.72      0.00
  -10   28    7     -1.61      0.00
   10   28    7     -0.41      0.00
   -7   29    7     -4.53      0.00
    7   29    7     -1.90      0.00
   -1   30    7     -2.03      0.00
    0   30    7      2.30      0.00
    1   30    7      3.81      0.00
  -18   21    8      1.25      0.00
   18   21    8      0.64      0.00
  -17   22    8      0.77      0.00
   17   22    8     -0.86      0.00
  -14   24    8      0.94      0.00
   14   24    8     -0.64      0.00
  -12   25    8     -2.47      0.00
   12   25    8     -0.72      0.00
  -10   26    8     -1.53      0.00
   10   26    8     -2.76      0.00
   -7   27    8     -3.19      0.00
   -6   27    8     -3.84      0.00
    6   27    8      0.60      0.00
    7   27    8      1.09      0.00
   18   18    9     -1.45      0.00
  -14   21    9      1.48      0.00
   14   21    9     -1.32      0.00
  -10   23    9     -2.73      0.00
   10   23    9     -4.54      0.00
   -8   24    9     -0.37      0.00
    8   24    9      1.31      0.00
   -4   25    9     -0.70      0.00
   -3   25    9      0.39      0.00
   -2   25    9      1.24      0.00
    2   25    9     -4.91      0.00
    3   25    9     -3.01      0.00
    4   25    9     -0.81      0.00
  -15   16   10     -0.66      0.00
   15   16   10      2.25      0.00
  -14   17   10      1.75      0.00
   14   17   10     -3.07      0.00
  -13   18   10      2.39      0.00
   13   18   10     -1.96      0.00
  -11   19   10     -3.37      0.00
   11   19   10      0.82      0.00
   -9   20   10      4.81      0.00
    9   20   10      1.39      0.00
   -7   21   10      0.31      0.00
    7   21   10     -0.85      0.00
   -3   22   10      4.72      0.00
   -2   22   10     -2.44      0.00
   -1   22   10     -5.56      0.00
    0   22   10     -0.29      0.00
    1   22   10      0.82      0.00
    2   22   10      1.79      0.00
    3   22   10     -0.59      0.00
  -12   13   11     -2.46      0.00
   12   13   11      0.11      0.00
  -11   14   11     -0.31      0.00
   11   14   11     -0.09      0.00
  -10   15   11     -2.03      0.00
   10   15   11      1.71      0.00
   -8   16   11      0.60      0.00
    8   16   11      2.02      0.00
   -6   17   11     -4.94      0.00
   -5   17   11     -2.42      0.00
    5   17   11      1.59      0.00
    6   17   11     -1.07      0.00
   -2   18   11     -2.68      0.00
   -1   18   11      2.72      0.00
    0   18   11      1.13      0.00
    1   18   11      2.21      0.00
    2   18   11      0.17      0.00
    8    8   12     -6.34      0.00
   -8    9   12     -2.15      0.00
   -7    9   12      2.19      0.00
    7    9   12      6.76      0.00
    8    9   12      2.44      0.00
   -6   10   12      6.75      0.00
    6   10   12     -1.51      0.00
   -5   11   12      3.73      0.00
   -4   11   12      5.28      0.00
   -3   11   12      4.03      0.00
    3   11   12     -3.64      0.00
    4   11   12      0.04      0.00
    5   11   12     -1.88      0.00
   -1   12   12      4.26      0.00
    0   12   12      2.37      0.00
    1   12   12      3.52      0.00
    0    0    0      0.00      0.00
loop_
  _platon_squeeze_void_nr
  _platon_squeeze_void_average_x
  _platon_squeeze_void_average_y
  _platon_squeeze_void_average_z
  _platon_squeeze_void_volume
  _platon_squeeze_void_count_electrons
  _platon_squeeze_void_content
   1  0.250  0.750  0.015      1249       334 ' '
   2  0.250  0.250  0.893       139        46 ' '
   3  0.750  0.250  0.966      1249       334 ' '
   4  0.750  0.750  0.107       138        46 ' '
loop_
  _platon_missing_refln_index_h
  _platon_missing_refln_index_k
  _platon_missing_refln_index_l
  _platon_missing_refln_theta
    1    1    0     1.049
    0    2    0     1.483
    2    2    0     2.098
    3    3    0     3.148
    0    4    0     2.968
   -1    5    0     3.784
    1    5    0     3.784
    2    6    0     4.696
    0    0    1     2.091
   -1    3    1     3.144
   -2    6    1     5.142
    0    6    1     4.923
    0    1    2     4.251
    1    3    2     4.800
    2    3    2     4.970
_platon_squeeze_void_probe_radius                  1.20
_platon_squeeze_details
)
TITL a         P 4/n        R = 0.07
CELL   27.4541   27.4541    9.7375     90.00     90.00     90.00
SPGR P4/n
C101 0.250 0.254 0.031 !       2.29 eA-3
C102 0.124 0.903 0.070 !       1.97 eA-3
C103 0.750 0.753 0.062 !       1.66 eA-3
C104 0.137 0.866 0.068 !       1.60 eA-3
C105 0.742 0.765 0.130 !       1.58 eA-3
C106 0.854 0.114 0.006 !       1.56 eA-3
C107 0.674 0.414-0.005 !       1.32 eA-3
Q108 0.936 0.498 0.066 !       1.28 eA-3
C109 0.594 0.203-0.006 !       1.18 eA-3
C110 0.338 0.890 0.313 !       1.17 eA-3
C111 0.391 0.665 0.680 !       1.17 eA-3
C112 0.592 0.353 0.100 !       1.14 eA-3
C113 0.619 0.334 0.401 !       1.12 eA-3
C114 0.250 0.250 0.187 !       1.10 eA-3
C115 0.642 0.357 0.195 !       1.08 eA-3
C116 0.775 0.700 0.109 !       1.08 eA-3
C117 0.688 0.778 0.124 !       1.07 eA-3
C118 0.163 0.584 0.187 !       1.06 eA-3
C119 0.835 0.119 0.256 !       1.06 eA-3
C120 0.408 0.655 0.153 !       1.06 eA-3
C121 0.089 0.694 0.068 !       1.05 eA-3
C122 0.163 0.605 0.187 !       1.05 eA-3
C123 0.711 0.796 0.150 !       1.04 eA-3
C124 0.245 0.281-0.015 !       1.03 eA-3
Q125 0.938 0.921 0.067 !       1.01 eA-3
Q126 0.156 0.377 0.405 !       1.00 eA-3
C127 0.821 0.408 0.410 !       0.96 eA-3
C128 0.938 0.404 0.097 !       0.96 eA-3
C129 0.608 0.191 0.088 !       0.95 eA-3
C130 0.664 0.356 0.274 !       0.95 eA-3
C131 0.173 0.597 0.470 !       0.95 eA-3
C132 0.838 0.116 0.157 !       0.94 eA-3
C133 0.196 0.634 0.354 !       0.93 eA-3
C134 0.126 0.696 0.207 !       0.92 eA-3
C135 0.851 0.147 0.502 !       0.91 eA-3
Q136 0.963 0.523 0.064 !       0.90 eA-3
C137 0.634 0.337 0.282 !       0.90 eA-3
C138 0.399 0.810 0.157 !       0.89 eA-3
C139 0.850 0.173 0.371 !       0.88 eA-3
C140 0.650 0.351 0.397 !       0.88 eA-3
C141 0.125 0.836 0.402 !       0.88 eA-3
C142 0.403 0.660 0.343 !       0.87 eA-3
C143 0.382 0.654 0.111 !       0.87 eA-3
Q144 0.390 0.110 0.348 !       0.87 eA-3
C145 0.692 0.104 0.147 !       0.85 eA-3
C146 0.729 0.391 0.010 !       0.84 eA-3
Q147 0.173 0.262 0.465 !       0.83 eA-3
C148 0.322 0.841 0.426 !       0.83 eA-3
C149 0.321 0.582 0.096 !       0.83 eA-3
C150 0.821 0.389 0.230 !       0.83 eA-3
C151 0.597 0.384 0.065 !       0.82 eA-3
Q152 0.939 0.876 0.313 !       0.81 eA-3
C153 0.784 0.421 0.195 !       0.81 eA-3
C154 0.359 0.822 0.165 !       0.81 eA-3
C155 0.822 0.360 0.184 !       0.80 eA-3
C156 0.808 0.723 0.211 !       0.80 eA-3
Q157 0.960 0.895 0.062 !       0.79 eA-3
C158 0.308 0.898 0.186 !       0.79 eA-3
C159 0.642 0.179 0.439 !       0.79 eA-3
C160 0.163 0.852 0.234 !       0.79 eA-3
Q161 0.642 0.884 0.305 !       0.78 eA-3
C162 0.396 0.669 0.027 !       0.78 eA-3
C163 0.834 0.173 0.220 !       0.78 eA-3
C164 0.607 0.369 0.303 !       0.78 eA-3
C165 0.306 0.891 0.311 !       0.77 eA-3
Q166 0.593 0.897 0.313 !       0.75 eA-3
C167 0.720 0.113 0.160 !       0.75 eA-3
C168 0.327 0.680 0.220 !       0.75 eA-3
C169 0.329 0.944 0.345 !       0.75 eA-3
Q170 0.960 0.544 0.063 !       0.74 eA-3
C171 0.760 0.736 0.407 !       0.74 eA-3
Q172 0.660 0.904 0.314 !       0.74 eA-3
C173 0.119 0.864 0.205 !       0.73 eA-3
C174 0.807 0.391 0.270 !       0.73 eA-3
C175 0.326 0.703 0.220 !       0.73 eA-3
C176 0.751 0.102 0.155 !       0.72 eA-3
Q177 0.898 0.103 0.222 !       0.72 eA-3
C178 0.904 0.153 0.589 !       0.72 eA-3
C179 0.096 0.847 0.411 !       0.72 eA-3
C180 0.874 0.311 0.247 !       0.71 eA-3
C181 0.874 0.264 0.465 !       0.71 eA-3
Q182 0.740 0.810 0.258 !       0.71 eA-3
C183 0.687 0.126 0.362 !       0.70 eA-3
C184 0.845 0.430 0.242 !       0.70 eA-3
Q185 0.625 0.873 0.311 !       0.70 eA-3
C186 0.618 0.219 0.179 !       0.70 eA-3
C187 0.791 0.362 0.214 !       0.70 eA-3
C188 0.343 0.819 0.470 !       0.69 eA-3
C189 0.142 0.866 0.319 !       0.69 eA-3
C190 0.677 0.139-0.015 !       0.69 eA-3
C191 0.651 0.212 0.432 !       0.69 eA-3
C192 0.349 0.788 0.568 !       0.69 eA-3
Q193 0.844 0.448 0.142 !       0.68 eA-3
C194 0.936 0.168 0.432 !       0.68 eA-3
C195 0.181 0.860 0.558 !       0.68 eA-3
Q196 0.578 0.591 0.349 !       0.68 eA-3
C197 0.689 0.156 0.364 !       0.68 eA-3
Q198 0.632 0.472 0.498 !       0.68 eA-3
C199 0.131 0.841 0.302 !       0.68 eA-3
)
;
_shelx_fab_checksum              49307
#END Tags that were not found in dictionaries
loop_
_space_group_symop_operation_xyz
'x, y, z'
'-x+1/2, -y+1/2, z'
'-y+1/2, x, z'
'y, -x+1/2, z'
'-x, -y, -z'
'x-1/2, y-1/2, -z'
'y-1/2, -x, -z'
'-y, x-1/2, -z'
loop_
_atom_site_label
_atom_site_type_symbol
_atom_site_fract_x
_atom_site_fract_y
_atom_site_fract_z
_atom_site_U_iso_or_equiv
_atom_site_adp_type
_atom_site_occupancy
_atom_site_site_symmetry_order
_atom_site_calc_flag
_atom_site_refinement_flags_posn
_atom_site_refinement_flags_adp
_atom_site_refinement_flags_occupancy
_atom_site_disorder_assembly
_atom_site_disorder_group
Zn1 Zn 0.43225(2) 0.03089(2) 0.94405(4) 0.02303(12) Uani 1 1 d . . . . .
Zn2 Zn 0.37540(2) 0.09299(2) 0.68999(4) 0.02840(12) Uani 1 1 d D . . . .
O1 O 0.42096(11) 0.10239(9) 0.9709(3) 0.0431(7) Uani 1 1 d . . . . .
O2 O 0.41239(11) 0.14464(10) 0.7763(3) 0.0438(7) Uani 1 1 d . . . . .
O3 O 0.42944(13) 0.32100(10) 0.7960(3) 0.0500(8) Uani 1 1 d . . . . .
O4 O 0.47712(11) 0.35525(9) 0.9551(3) 0.0429(7) Uani 1 1 d . . . . .
O5 O 0.56382(10) 0.01091(9) 1.2237(2) 0.0334(6) Uani 1 1 d . . . . .
O6 O 0.58741(12) -0.04095(10) 1.3870(3) 0.0456(7) Uani 1 1 d . . . . .
O7 O 0.56546(9) -0.00265(10) 1.8720(3) 0.0348(6) Uani 1 1 d . . . . .
O8 O 0.50612(9) 0.05031(10) 1.9206(2) 0.0329(6) Uani 1 1 d . . . . .
N1 N 0.50351(13) 0.17326(11) 1.3609(3) 0.0377(8) Uani 1 1 d . . . . .
C1 C 0.42470(14) 0.14060(14) 0.9015(4) 0.0339(8) Uani 1 1 d . . . . .
C2 C 0.44369(10) 0.18510(6) 0.9708(2) 0.0344(8) Uani 1 1 d G . . . .
C3 C 0.44253(10) 0.23001(8) 0.90493(18) 0.0342(8) Uani 1 1 d G . . . .
H3 H 0.4306 0.2324 0.8136 0.041 Uiso 1 1 calc R U . . .
C4 C 0.45886(10) 0.27147(6) 0.9727(2) 0.0348(9) Uani 1 1 d G . . . .
C5 C 0.47635(10) 0.26803(7) 1.1063(2) 0.0378(9) Uani 1 1 d G . . . .
H5 H 0.4875 0.2964 1.1526 0.045 Uiso 1 1 calc R U . . .
C6 C 0.47751(11) 0.22313(8) 1.17213(19) 0.0387(9) Uani 1 1 d G . . . .
C7 C 0.46118(11) 0.18166(6) 1.1044(2) 0.0397(9) Uani 1 1 d G . . . .
H7 H 0.4620 0.1510 1.1494 0.048 Uiso 1 1 calc R U . . .
C8 C 0.45547(15) 0.32035(13) 0.9030(4) 0.0346(9) Uani 1 1 d . . . . .
C9 C 0.49184(17) 0.21841(15) 1.3216(4) 0.0432(10) Uani 1 1 d . . . . .
C10 C 0.4908(2) 0.25720(17) 1.4115(5) 0.0654(16) Uani 1 1 d . . . . .
H10 H 0.4826 0.2890 1.3806 0.079 Uiso 1 1 calc R U . . .
C11 C 0.5022(3) 0.24859(18) 1.5487(5) 0.079(2) Uani 1 1 d . . . . .
H11 H 0.5016 0.2745 1.6134 0.095 Uiso 1 1 calc R U . . .
C12 C 0.5143(2) 0.20215(17) 1.5898(5) 0.0642(16) Uani 1 1 d . . . . .
H12 H 0.5222 0.1956 1.6830 0.077 Uiso 1 1 calc R U . . .
C13 C 0.51489(17) 0.16500(14) 1.4931(4) 0.0395(10) Uani 1 1 d . . . . .
C14 C 0.52674(10) 0.11298(6) 1.5284(2) 0.0326(8) Uani 1 1 d G . . . .
C15 C 0.52589(9) 0.09711(7) 1.66392(18) 0.0324(8) Uani 1 1 d G . . . .
H15 H 0.5155 0.1185 1.7347 0.039 Uiso 1 1 calc R U . . .
C16 C 0.54022(9) 0.04989(8) 1.69584(15) 0.0267(7) Uani 1 1 d G . . . .
C17 C 0.55539(9) 0.01854(6) 1.5922(2) 0.0273(7) Uani 1 1 d G . . . .
H17 H 0.5652 -0.0137 1.6140 0.033 Uiso 1 1 calc R U . . .
C18 C 0.55624(9) 0.03441(7) 1.45671(17) 0.0257(7) Uani 1 1 d G . . . .
C19 C 0.54192(10) 0.08164(8) 1.42479(15) 0.0317(8) Uani 1 1 d G . . . .
H19 H 0.5425 0.0925 1.3322 0.038 Uiso 1 1 calc R U . . .
C20 C 0.53641(13) 0.03121(13) 1.8412(3) 0.0258(7) Uani 1 1 d . . . . .
C21 C 0.57038(13) -0.00124(13) 1.3467(3) 0.0289(8) Uani 1 1 d . . . . .
O9 O 0.3358(4) 0.1197(5) 0.5390(9) 0.072(2) Uani 0.5 1 d D U P A 1
N2 N 0.3087(5) 0.1394(4) 0.3291(12) 0.120(2) Uani 0.5 1 d D U P A 1
C22 C 0.3447(4) 0.1249(3) 0.4141(10) 0.080(3) Uani 0.5 1 d D U P A 1
C23 C 0.3931(4) 0.1159(6) 0.3524(14) 0.143(5) Uani 0.5 1 d D U P A 1
H23A H 0.3916 0.1223 0.2534 0.215 Uiso 0.5 1 calc R U P A 1
H23B H 0.4172 0.1375 0.3948 0.215 Uiso 0.5 1 calc R U P A 1
H23C H 0.4025 0.0819 0.3679 0.215 Uiso 0.5 1 calc R U P A 1
C24 C 0.2597(4) 0.1487(7) 0.3841(15) 0.151(5) Uani 0.5 1 d D U P A 1
H24A H 0.2381 0.1589 0.3094 0.227 Uiso 0.5 1 calc R U P A 1
H24B H 0.2470 0.1189 0.4262 0.227 Uiso 0.5 1 calc R U P A 1
H24C H 0.2614 0.1746 0.4533 0.227 Uiso 0.5 1 calc R U P A 1
C25 C 0.3158(6) 0.1466(6) 0.1799(12) 0.149(6) Uani 0.5 1 d D U P A 1
H25A H 0.2851 0.1571 0.1381 0.223 Uiso 0.5 1 calc R U P A 1
H25B H 0.3408 0.1715 0.1648 0.223 Uiso 0.5 1 calc R U P A 1
H25C H 0.3263 0.1159 0.1381 0.223 Uiso 0.5 1 calc R U P A 1
O9' O 0.3502(4) 0.1221(5) 0.5213(9) 0.072(2) Uani 0.5 1 d D . P A 2
N2' N 0.3082(5) 0.1330(4) 0.3303(11) 0.120(2) Uani 0.5 1 d D . P A 2
C22' C 0.3115(4) 0.1321(3) 0.4678(10) 0.080(3) Uani 0.5 1 d D . P A 2
C23' C 0.2669(4) 0.1433(6) 0.5532(14) 0.143(5) Uani 0.5 1 d D . P A 2
H23D H 0.2393 0.1504 0.4924 0.215 Uiso 0.5 1 calc R U P A 2
H23E H 0.2590 0.1151 0.6109 0.215 Uiso 0.5 1 calc R U P A 2
H23F H 0.2734 0.1716 0.6117 0.215 Uiso 0.5 1 calc R U P A 2
C24' C 0.3500(5) 0.1222(7) 0.2435(12) 0.151(5) Uani 0.5 1 d D . P A 2
H24D H 0.3726 0.1494 0.2574 0.227 Uiso 0.5 1 d R U P A 2
H24E H 0.3392 0.1217 0.1475 0.227 Uiso 0.5 1 d R U P A 2
H24F H 0.3664 0.0915 0.2654 0.227 Uiso 0.5 1 d R U P A 2
C25' C 0.2619(5) 0.1451(6) 0.2624(14) 0.149(6) Uani 0.5 1 d D . P A 2
H25D H 0.2663 0.1440 0.1626 0.223 Uiso 0.5 1 calc R U P A 2
H25E H 0.2370 0.1214 0.2896 0.223 Uiso 0.5 1 calc R U P A 2
H25F H 0.2516 0.1778 0.2898 0.223 Uiso 0.5 1 calc R U P A 2
loop_
_atom_site_aniso_label
_atom_site_aniso_U_11
_atom_site_aniso_U_22
_atom_site_aniso_U_33
_atom_site_aniso_U_23
_atom_site_aniso_U_13
_atom_site_aniso_U_12
Zn1 0.0321(2) 0.0233(2) 0.01375(18) 0.00458(14) 0.00271(15) 0.00533(16)
Zn2 0.0301(2) 0.0323(2) 0.0228(2) 0.00371(17) 0.00267(16) 0.00400(17)
O1 0.0572(18) 0.0238(13) 0.0485(17) 0.0045(12) 0.0064(14) 0.0038(12)
O2 0.0623(19) 0.0327(15) 0.0363(16) 0.0023(12) -0.0004(14) -0.0073(13)
O3 0.089(2) 0.0265(14) 0.0346(16) 0.0066(12) -0.0250(15) 0.0010(14)
O4 0.0581(18) 0.0257(14) 0.0449(17) 0.0095(12) -0.0165(14) -0.0032(12)
O5 0.0457(16) 0.0375(15) 0.0169(12) -0.0013(10) 0.0023(11) 0.0042(12)
O6 0.071(2) 0.0351(15) 0.0305(14) 0.0050(12) 0.0150(14) 0.0225(14)
O7 0.0421(15) 0.0424(15) 0.0199(12) 0.0141(11) 0.0056(11) 0.0112(12)
O8 0.0397(15) 0.0414(15) 0.0176(12) 0.0002(10) 0.0072(10) -0.0002(12)
N1 0.059(2) 0.0298(17) 0.0244(15) 0.0060(13) -0.0034(15) 0.0083(15)
C1 0.0307(19) 0.030(2) 0.041(2) 0.0013(16) 0.0085(16) 0.0057(15)
C2 0.042(2) 0.0259(18) 0.035(2) 0.0016(15) -0.0016(17) 0.0049(16)
C3 0.047(2) 0.0282(19) 0.0273(18) 0.0042(15) -0.0048(16) 0.0026(17)
C4 0.051(2) 0.0239(18) 0.0290(19) 0.0073(14) -0.0050(17) 0.0020(16)
C5 0.055(3) 0.0273(19) 0.0310(19) 0.0028(15) -0.0064(18) 0.0028(17)
C6 0.057(3) 0.0285(19) 0.030(2) 0.0082(16) -0.0051(18) 0.0085(17)
C7 0.058(3) 0.0246(19) 0.036(2) 0.0083(16) -0.0035(19) 0.0048(18)
C8 0.049(2) 0.0251(19) 0.0301(19) 0.0056(15) -0.0009(17) 0.0020(17)
C9 0.066(3) 0.032(2) 0.032(2) 0.0053(16) -0.006(2) 0.0102(19)
C10 0.125(5) 0.033(2) 0.038(2) 0.0026(19) -0.010(3) 0.027(3)
C11 0.165(7) 0.040(3) 0.034(2) -0.005(2) -0.008(3) 0.028(3)
C12 0.124(5) 0.044(3) 0.025(2) 0.0007(19) -0.004(3) 0.021(3)
C13 0.067(3) 0.028(2) 0.0237(18) 0.0035(15) 0.0019(18) 0.0134(18)
C14 0.047(2) 0.0307(19) 0.0200(17) 0.0017(14) -0.0004(15) 0.0100(16)
C15 0.045(2) 0.034(2) 0.0179(16) 0.0040(14) 0.0033(15) 0.0080(16)
C16 0.0297(18) 0.0351(19) 0.0153(15) 0.0052(14) 0.0033(13) 0.0039(15)
C17 0.0358(19) 0.0263(18) 0.0196(16) 0.0051(13) 0.0026(14) 0.0071(14)
C18 0.0311(18) 0.0280(17) 0.0180(16) 0.0010(13) 0.0025(13) 0.0031(14)
C19 0.049(2) 0.035(2) 0.0114(15) 0.0066(13) -0.0001(14) 0.0051(17)
C20 0.0307(18) 0.0309(18) 0.0157(15) 0.0038(13) 0.0009(13) -0.0070(14)
C21 0.0344(19) 0.034(2) 0.0185(16) 0.0010(14) 0.0047(14) -0.0007(15)
O9 0.067(5) 0.105(3) 0.045(3) 0.023(2) -0.012(3) 0.021(4)
N2 0.146(6) 0.135(6) 0.081(4) 0.029(4) -0.034(4) 0.017(5)
C22 0.085(6) 0.089(5) 0.065(5) 0.027(4) 0.005(4) 0.013(5)
C23 0.144(10) 0.149(10) 0.137(10) 0.054(8) 0.060(8) 0.024(9)
C24 0.091(8) 0.226(14) 0.137(11) -0.008(11) 0.011(8) -0.007(9)
C25 0.175(12) 0.177(12) 0.094(9) 0.015(9) -0.057(8) 0.023(11)
O9' 0.067(5) 0.105(3) 0.045(3) 0.023(2) -0.012(3) 0.021(4)
N2' 0.146(6) 0.135(6) 0.081(4) 0.029(4) -0.034(4) 0.017(5)
C22' 0.085(6) 0.089(5) 0.065(5) 0.027(4) 0.005(4) 0.013(5)
C23' 0.144(10) 0.149(10) 0.137(10) 0.054(8) 0.060(8) 0.024(9)
C24' 0.091(8) 0.226(14) 0.137(11) -0.008(11) 0.011(8) -0.007(9)
C25' 0.175(12) 0.177(12) 0.094(9) 0.015(9) -0.057(8) 0.023(11)
loop_
_atom_type_symbol
_atom_type_description
_atom_type_scat_dispersion_real
_atom_type_scat_dispersion_imag
_atom_type_scat_source
C C 0.0033 0.0016 'International Tables Vol C Tables 4.2.6.8 and 6.1.1.4'
H H 0.0000 0.0000 'International Tables Vol C Tables 4.2.6.8 and 6.1.1.4'
N N 0.0061 0.0033 'International Tables Vol C Tables 4.2.6.8 and 6.1.1.4'
O O 0.0106 0.0060 'International Tables Vol C Tables 4.2.6.8 and 6.1.1.4'
Zn Zn 0.2839 1.4301 'International Tables Vol C Tables 4.2.6.8 and 6.1.1.4'
loop_
_geom_angle_atom_site_label_1
_geom_angle_atom_site_label_2
_geom_angle_atom_site_label_3
_geom_angle
_geom_angle_site_symmetry_1
_geom_angle_site_symmetry_3
O7 Zn1 O5 121.33(11) 5_658 5_657
O7 Zn1 O1 105.91(12) 5_658 .
O5 Zn1 O1 132.61(11) 5_657 .
O7 Zn1 O8 99.71(10) 5_658 1_554
O5 Zn1 O8 90.27(10) 5_657 1_554
O1 Zn1 O8 85.14(11) . 1_554
O7 Zn1 O4 86.81(11) 5_658 4
O5 Zn1 O4 92.05(12) 5_657 4
O1 Zn1 O4 86.62(12) . 4
O8 Zn1 O4 170.64(11) 1_554 4
O6 Zn2 O3 112.82(14) 5_657 4
O6 Zn2 O2 115.98(14) 5_657 .
O3 Zn2 O2 114.20(14) 4 .
O6 Zn2 O9' 99.5(4) 5_657 .
O3 Zn2 O9' 108.0(3) 4 .
O2 Zn2 O9' 104.5(5) . .
O6 Zn2 O9 106.2(4) 5_657 .
O3 Zn2 O9 95.3(3) 4 .
O2 Zn2 O9 109.9(5) . .
C1 O1 Zn1 137.5(3) . .
C1 O2 Zn2 119.5(3) . .
C8 O3 Zn2 129.5(3) . 3
C8 O4 Zn1 134.3(3) . 3
C21 O5 Zn1 128.2(2) . 5_657
C21 O6 Zn2 136.8(2) . 5_657
C20 O7 Zn1 122.1(2) . 5_658
C20 O8 Zn1 126.9(2) . 1_556
C9 N1 C13 119.1(3) . .
O1 C1 O2 124.7(4) . .
O1 C1 C2 118.2(3) . .
O2 C1 C2 117.1(3) . .
C3 C2 C7 120.0 . .
C3 C2 C1 120.7(2) . .
C7 C2 C1 119.3(2) . .
C2 C3 C4 120.0 . .
C5 C4 C3 120.0 . .
C5 C4 C8 120.2(2) . .
C3 C4 C8 119.7(2) . .
C4 C5 C6 120.0 . .
C7 C6 C5 120.0 . .
C7 C6 C9 118.1(2) . .
C5 C6 C9 121.7(2) . .
C6 C7 C2 120.0 . .
O4 C8 O3 126.9(3) . .
O4 C8 C4 118.4(3) . .
O3 C8 C4 114.8(3) . .
N1 C9 C10 122.6(4) . .
N1 C9 C6 114.7(3) . .
C10 C9 C6 122.7(3) . .
C9 C10 C11 118.3(4) . .
C12 C11 C10 119.3(4) . .
C11 C12 C13 119.1(4) . .
N1 C13 C12 121.5(4) . .
N1 C13 C14 115.4(3) . .
C12 C13 C14 123.0(3) . .
C15 C14 C19 120.0 . .
C15 C14 C13 120.72(19) . .
C19 C14 C13 119.1(2) . .
C14 C15 C16 120.0 . .
C17 C16 C15 120.0 . .
C17 C16 C20 119.42(18) . .
C15 C16 C20 120.47(18) . .
C16 C17 C18 120.0 . .
C17 C18 C19 120.0 . .
C17 C18 C21 118.50(19) . .
C19 C18 C21 121.43(19) . .
C18 C19 C14 120.0 . .
O8 C20 O7 125.7(3) . .
O8 C20 C16 118.9(3) . .
O7 C20 C16 115.4(3) . .
O6 C21 O5 125.8(3) . .
O6 C21 C18 116.2(3) . .
O5 C21 C18 118.0(3) . .
C22 O9 Zn2 131.5(7) . .
C22 N2 C24 119.8(10) . .
C22 N2 C25 123.0(11) . .
C24 N2 C25 117.2(8) . .
O9 C22 N2 119.3(10) . .
O9 C22 C23 123.5(8) . .
N2 C22 C23 117.3(10) . .
C22' O9' Zn2 139.7(7) . .
C22' N2' C24' 121.4(10) . .
C22' N2' C25' 120.8(11) . .
C24' N2' C25' 117.8(8) . .
O9' C22' N2' 119.5(10) . .
O9' C22' C23' 121.3(8) . .
N2' C22' C23' 119.3(10) . .
loop_
_geom_bond_atom_site_label_1
_geom_bond_atom_site_label_2
_geom_bond_distance
_geom_bond_site_symmetry_2
Zn1 O7 1.953(2) 5_658
Zn1 O5 1.999(2) 5_657
Zn1 O1 2.004(3) .
Zn1 O8 2.110(3) 1_554
Zn1 O4 2.128(3) 4
Zn2 O6 1.909(3) 5_657
Zn2 O3 1.917(3) 4
Zn2 O2 1.936(3) .
Zn2 O9' 1.953(6) .
Zn2 O9 1.969(6) .
O1 C1 1.252(5) .
O2 C1 1.270(5) .
O3 C8 1.263(5) .
O3 Zn2 1.917(3) 3
O4 C8 1.237(5) .
O4 Zn1 2.128(3) 3
O5 C21 1.256(4) .
O5 Zn1 1.999(2) 5_657
O6 C21 1.250(4) .
O6 Zn2 1.909(3) 5_657
O7 C20 1.261(4) .
O7 Zn1 1.953(2) 5_658
O8 C20 1.251(4) .
O8 Zn1 2.110(3) 1_556
N1 C9 1.336(5) .
N1 C13 1.344(5) .
C1 C2 1.490(4) .
C2 C3 1.3900 .
C2 C7 1.3900 .
C3 C4 1.3900 .
C4 C5 1.3900 .
C4 C8 1.507(4) .
C5 C6 1.3900 .
C6 C7 1.3900 .
C6 C9 1.513(4) .
C9 C10 1.379(6) .
C10 C11 1.392(6) .
C11 C12 1.377(7) .
C12 C13 1.388(6) .
C13 C14 1.504(4) .
C14 C15 1.3900 .
C14 C19 1.3900 .
C15 C16 1.3900 .
C16 C17 1.3900 .
C16 C20 1.509(3) .
C17 C18 1.3900 .
C18 C19 1.3900 .
C18 C21 1.502(4) .
O9 C22 1.248(8) .
N2 C22 1.350(9) .
N2 C24 1.468(9) .
N2 C25 1.478(9) .
C22 C23 1.479(8) .
O9' C22' 1.215(8) .
N2' C22' 1.342(9) .
N2' C24' 1.456(9) .
N2' C25' 1.469(9) .
C22' C23' 1.513(8) .
