#------------------------------------------------------------------------------
#$Date: 2015-12-09 14:36:34 +0200 (Wed, 09 Dec 2015) $
#$Revision: 171036 $
#$URL: svn://www.crystallography.net/cod/cif/7/03/68/7036839.cif $
#------------------------------------------------------------------------------
#
# This file is available in the Crystallography Open Database (COD),
# http://www.crystallography.net/
#
# All data on this site have been placed in the public domain by the
# contributors.
#
data_7036839
loop_
_publ_author_name
'Liu, Jian-Qiang'
'Li, X. F.'
'Gu, C. Y.'
'da Silva, J\'ulio C. S.'
'Barros, Amanda L.'
'J\'unior, Severino Alves'
'Li, B. H.'
'Ren, Fei'
'Batten, Stuart R.'
'Soares, Thereza A.'
_publ_section_title
;
 Combined Experimental and Simulation Study of Large Nanocage-based
 Metal-Organic Frameworks for Drug Delivery
;
_journal_issue                   44
_journal_name_full               'Dalton Trans.'
_journal_page_first              19370
_journal_page_last               19382
_journal_paper_doi               10.1039/C5DT02171E
_journal_volume                  44
_journal_year                    2015
_chemical_formula_moiety
'Cu2 (H2 O)2 (C21 H17 N O8), 2.222(C4 H9 N O)'
_chemical_formula_sum            'C29.89 H41 Cu2 N3.22 O12.22'
_chemical_formula_weight         768.07
_space_group_crystal_system      trigonal
_space_group_IT_number           166
_space_group_name_Hall           '-R 3 2"'
_space_group_name_H-M_alt        'R -3 m :H'
_symmetry_space_group_name_Hall  '-R 3 2"'
_symmetry_space_group_name_H-M   'R -3 m :H'
_atom_sites_solution_hydrogens   mixed
_audit_creation_method           SHELXL-2014/7
_audit_update_record
;
2015-10-08 deposited with the CCDC.
2015-10-09 downloaded from the CCDC.
;
_cell_angle_alpha                90
_cell_angle_beta                 90
_cell_angle_gamma                120
_cell_formula_units_Z            9
_cell_length_a                   18.6342(14)
_cell_length_b                   18.6342
_cell_length_c                   37.709(3)
_cell_measurement_reflns_used    2809
_cell_measurement_temperature    293(2)
_cell_measurement_theta_max      21.3361
_cell_measurement_theta_min      2.5806
_cell_volume                     11339.6(12)
_computing_structure_refinement  'SHELXL-2014/7 (Sheldrick, 2014)'
_diffrn_ambient_temperature      293(2)
_diffrn_measured_fraction_theta_full 0.992
_diffrn_measured_fraction_theta_max 0.994
_diffrn_measurement_device_type  'Bruker SMART APEX'
_diffrn_radiation_type           MoK\a
_diffrn_radiation_wavelength     0.71073
_diffrn_reflns_av_R_equivalents  0.0844
_diffrn_reflns_av_unetI/netI     0.0529
_diffrn_reflns_laue_measured_fraction_full 0.992
_diffrn_reflns_laue_measured_fraction_max 0.994
_diffrn_reflns_limit_h_max       23
_diffrn_reflns_limit_h_min       -24
_diffrn_reflns_limit_k_max       24
_diffrn_reflns_limit_k_min       -24
_diffrn_reflns_limit_l_max       29
_diffrn_reflns_limit_l_min       -48
_diffrn_reflns_number            23422
_diffrn_reflns_point_group_measured_fraction_full 0.992
_diffrn_reflns_point_group_measured_fraction_max 0.994
_diffrn_reflns_theta_full        25.242
_diffrn_reflns_theta_max         27.494
_diffrn_reflns_theta_min         2.186
_exptl_absorpt_coefficient_mu    0.888
_exptl_absorpt_correction_type   multi-scan
_exptl_absorpt_process_details   SADABS
_exptl_crystal_colour            blue
_exptl_crystal_density_diffrn    1.012
_exptl_crystal_description       prism
_exptl_crystal_F_000             3588
_exptl_crystal_size_max          0.210
_exptl_crystal_size_mid          0.180
_exptl_crystal_size_min          0.180
_exptl_transmission_factor_max   none
_exptl_transmission_factor_min   none
_refine_diff_density_max         0.716
_refine_diff_density_min         -0.381
_refine_diff_density_rms         0.088
_refine_ls_extinction_coef       0.00052(8)
_refine_ls_extinction_expression Fc^*^=kFc[1+0.001xFc^2^\l^3^/sin(2\q)]^-1/4^
_refine_ls_extinction_method     'SHELXL-2014/7 (Sheldrick 2014'
_refine_ls_goodness_of_fit_ref   1.295
_refine_ls_hydrogen_treatment    constr
_refine_ls_matrix_type           full
_refine_ls_number_parameters     102
_refine_ls_number_reflns         3154
_refine_ls_number_restraints     30
_refine_ls_restrained_S_all      1.311
_refine_ls_R_factor_all          0.0673
_refine_ls_R_factor_gt           0.0485
_refine_ls_shift/su_max          0.001
_refine_ls_shift/su_mean         0.001
_refine_ls_structure_factor_coef Fsqd
_refine_ls_weighting_details
'w=1/[\s^2^(Fo^2^)+(0.0572P)^2^] where P=(Fo^2^+2Fc^2^)/3'
_refine_ls_weighting_scheme      calc
_refine_ls_wR_factor_gt          0.1336
_refine_ls_wR_factor_ref         0.1409
_reflns_number_gt                2226
_reflns_number_total             3154
_reflns_threshold_expression     'I > 2\s(I)'
_cod_data_source_file            c5dt02171e2.cif
_cod_data_source_block           cu
_cod_original_cell_volume        11339.7(19)
_cod_database_code               7036839
#BEGIN Tags that were not found in dictionaries:
_shelx_shelxl_version_number     2014/7
_shelx_estimated_absorpt_t_min   0.835
_shelx_estimated_absorpt_t_max   0.856
_shelx_res_file
;

    cu_sq.res created by SHELXL-2014/7


TITL  R-3m
rem   2.222 DMA per formula unit SQUEEZEd, 20 DMA per unit cell
CELL  0.71073 18.6342 18.6342 37.7095 90.000 90.000 120.000
ZERR  9        0.0014  0.0000  0.0028  0.000  0.000   0.000
LATT  3
SYMM -Y, X-Y, Z
SYMM -X+Y, -X, Z
SYMM  Y, X, -Z
SYMM  X-Y, -Y, -Z
SYMM -X, -X+Y, -Z
SFAC  C H N O Cu
UNIT  269 369 29 110 18
ACTA
OMIT -3 55
OMIT -2   4   0
OMIT -2   3   1
OMIT -1   4   1
OMIT -4   7   1
OMIT  0   4   2
OMIT -2   5   2
OMIT -1   6   2
OMIT  0   0   3
OMIT -2   4   3
OMIT -3   6   3
OMIT -2   6   4
OMIT  0   1   5
OMIT -3   4   5
OMIT -1   1   7
OMIT  0   2   7
OMIT -2   3   7
OMIT -2   2   8
SIZE  0.21 0.18 0.18
L.S.  25 0 45
BOND  $H
CONF
FMAP  2
PLAN -1
EADP  C7 C7'
EADP  N1 C8
ISOR  0.01 C7 N1
EQIV  $1 2-X,1-Y,-Z
DFIX  1.50 0.01 C5 C6
DFIX  1.39 0.01 C6 C7 C7 C8 C8 C6_$1 =
                C6 C7' C7' N1 N1 C6_$1
DFIX  2.41 0.01 C6 C8 C7 C6_$1 =
                C6 N1 C7' C6_$1
DFIX  2.78 0.01 C6 C6_$1 C7 C7_$1 C8 C8_$1 =
                C7' C7'_$1 N1 N1_$1
FLAT  0.01 C5 C6 C7 C8
FLAT  0.01 C5 C6 C7 N1
ABIN
wGHT    0.057200
EXTI    0.000520
FVAR       0.13724
CU1   5    0.856194    0.712388    0.137821    10.50000    0.03959    0.02580 =
         0.02980    0.00157    0.00078    0.01290
O1    4    0.889838    0.633924    0.122738    11.00000    0.07743    0.04207 =
         0.04621    0.00580    0.01470    0.03723
O2    4    0.850929    0.555792    0.171240    11.00000    0.07239    0.04369 =
         0.04374    0.00412    0.01052    0.03647
O1w   4    0.889573    0.779146    0.089419    10.50000    0.10119    0.08985 =
         0.05427    0.03463    0.01731    0.04493
AFIX 147  0.8400
H1w   2    0.854626    0.793522    0.084428    10.50000   -1.50000
AFIX   0
C1    1    0.878653    0.572926    0.140391    11.00000    0.04906    0.03659 =
         0.04060   -0.00324    0.00087    0.02046
C2    1    0.898431    0.513111    0.123139    11.00000    0.05915    0.03821 =
         0.04544    0.00101    0.00774    0.02775
C3    1    0.884102    0.442051    0.140770    10.50000    0.05220    0.04029 =
         0.04657    0.00118    0.00236    0.02610
C4    1    0.928227    0.528001    0.088685    11.00000    0.08768    0.04469 =
         0.04815    0.01378    0.01932    0.04118
AFIX  43
H4    2    0.938473    0.576440    0.077246    11.00000   -1.20000
AFIX   0
C5    1    0.942816    0.471408    0.071211    10.50000    0.10730    0.05469 =
         0.04626    0.01516    0.03031    0.05365
C6    1    0.973275    0.486638    0.034814    10.50000    0.12632    0.06072 =
         0.05086    0.01498    0.02996    0.06316
PART -1
C7    1    0.951280    0.531172    0.012358    10.25000    0.11857    0.07943 =
         0.06741    0.01789    0.03773    0.07027
AFIX   3
H7    2    0.921975    0.555702    0.021076    10.25000   -1.20000
AFIX   0
C8    1    0.979676    0.546176   -0.022324    10.25000    0.14940    0.08338 =
         0.05888    0.02315    0.04877    0.07778
AFIX   3
H8    2    0.966275    0.577259   -0.037382    10.25000   -1.20000
AFIX   0
PART -2
C7'   1    0.950593    0.530451    0.012269    10.25000    0.11857    0.07943 =
         0.06741    0.01789    0.03773    0.07027
AFIX   3
H7'   2    0.907818    0.539977    0.018577    10.25000   -1.20000
AFIX   0
N1    3    0.979743    0.546057   -0.022307    10.25000    0.14940    0.08338 =
         0.05888    0.02315    0.04877    0.07778
PART  0
HKLF  4

REM   R-3m
REM R1 =  0.0485 for    2226 Fo > 4sig(Fo)  and  0.0673 for all    3154 data
REM    102 parameters refined using     30 restraints

END

wGHT      0.1022      0.0000

REM Highest difference peak  0.716,  deepest hole -0.381,  1-sigma level  0.088
Q1    1   0.8625  0.4313  0.1657  10.50000  0.05    0.72
;
_shelx_res_checksum              76009
_shelx_fab_file
;
   -1    2    0    279.96      0.00
    0    3    0      0.54      0.00
   -1    5    0     33.89      0.00
   -3    6    0    -18.77      0.00
    0    6    0    -13.89      0.00
   -2    7    0     20.24      0.00
   -4    8    0      1.67      0.00
   -1    8    0     -6.55      0.00
   -3    9    0      3.93      0.00
    0    9    0     -0.53      0.00
   -5   10    0     20.35      0.00
   -2   10    0      0.28      0.00
   -4   11    0      6.23      0.00
   -1   11    0     -2.58      0.00
   -6   12    0     20.48      0.00
   -3   12    0      4.74      0.00
    0   12    0      1.67      0.00
   -5   13    0      0.55      0.00
   -2   13    0      1.13      0.00
   -7   14    0     12.14      0.00
   -4   14    0      3.26      0.00
   -1   14    0      4.11      0.00
   -6   15    0      3.97      0.00
   -3   15    0      2.38      0.00
    0   15    0      3.56      0.00
   -8   16    0      5.93      0.00
   -5   16    0      0.34      0.00
   -2   16    0      2.12      0.00
   -7   17    0      2.25      0.00
   -4   17    0      2.45      0.00
   -1   17    0      0.16      0.00
   -9   18    0      3.01      0.00
   -6   18    0      1.05      0.00
   -3   18    0      0.96      0.00
    0   18    0     -6.37      0.00
   -8   19    0     -2.85      0.00
   -5   19    0      1.44      0.00
   -2   19    0     -2.24      0.00
  -10   20    0      3.04      0.00
   -7   20    0     -2.33      0.00
   -4   20    0     -1.87      0.00
   -1   20    0      2.64      0.00
   -9   21    0     -1.30      0.00
   -6   21    0      0.36      0.00
   -3   21    0      0.82      0.00
  -11   22    0      3.19      0.00
   -8   22    0      1.22      0.00
   -5   22    0      2.45      0.00
  -10   23    0     -0.05      0.00
   -7   23    0      6.50      0.00
  -12   24    0      5.36      0.00
   -1    1    1   -329.71      0.00
    0    2    1    -80.22      0.00
   -4    4    1     58.76      0.00
   -3    5    1    -18.79      0.00
    0    5    1     -8.87      0.00
   -5    6    1    -17.93      0.00
   -2    6    1    -26.01      0.00
   -7    7    1     17.06      0.00
   -1    7    1     -8.96      0.00
   -6    8    1      4.72      0.00
   -3    8    1      5.51      0.00
    0    8    1      4.43      0.00
   -8    9    1     -4.85      0.00
   -5    9    1      2.00      0.00
   -2    9    1      5.21      0.00
  -10   10    1     -4.60      0.00
   -7   10    1      4.50      0.00
   -4   10    1      0.45      0.00
   -1   10    1     -4.47      0.00
   -9   11    1     -2.53      0.00
   -6   11    1      2.51      0.00
   -3   11    1      5.87      0.00
    0   11    1      6.40      0.00
  -11   12    1      1.19      0.00
   -8   12    1      7.18      0.00
   -5   12    1      1.94      0.00
   -2   12    1      0.41      0.00
  -13   13    1     -0.92      0.00
  -10   13    1      1.64      0.00
   -7   13    1      3.56      0.00
   -4   13    1      1.34      0.00
   -1   13    1     -0.04      0.00
  -12   14    1      0.71      0.00
   -9   14    1      2.79      0.00
   -6   14    1      2.40      0.00
   -3   14    1      2.41      0.00
    0   14    1      3.81      0.00
  -14   15    1      5.10      0.00
  -11   15    1      4.43      0.00
   -8   15    1      4.00      0.00
   -5   15    1      3.19      0.00
   -2   15    1      0.91      0.00
  -16   16    1      1.11      0.00
  -13   16    1      1.36      0.00
  -10   16    1      3.22      0.00
   -7   16    1      2.70      0.00
   -4   16    1      3.71      0.00
   -1   16    1      2.93      0.00
  -15   17    1      2.26      0.00
  -12   17    1      0.77      0.00
   -9   17    1      1.99      0.00
   -6   17    1      3.00      0.00
   -3   17    1      3.94      0.00
    0   17    1      5.07      0.00
  -17   18    1     -6.34      0.00
  -14   18    1      7.19      0.00
  -11   18    1      2.88      0.00
   -8   18    1      4.26      0.00
   -5   18    1     -0.21      0.00
   -2   18    1      3.61      0.00
  -19   19    1     -3.58      0.00
  -16   19    1      0.06      0.00
  -13   19    1     -0.47      0.00
  -10   19    1     -2.93      0.00
   -7   19    1      0.19      0.00
   -4   19    1      5.87      0.00
   -1   19    1      1.66      0.00
  -18   20    1     -4.04      0.00
  -15   20    1      4.96      0.00
  -12   20    1     -2.05      0.00
   -9   20    1     -4.10      0.00
   -6   20    1      1.24      0.00
   -3   20    1     -0.58      0.00
    0   20    1     -4.43      0.00
  -20   21    1     -2.79      0.00
  -17   21    1     -3.03      0.00
  -14   21    1      3.18      0.00
  -11   21    1     -4.24      0.00
   -8   21    1      1.53      0.00
   -5   21    1      3.87      0.00
   -2   21    1      0.41      0.00
  -19   22    1      2.36      0.00
  -16   22    1      1.58      0.00
  -13   22    1     -1.22      0.00
  -10   22    1     -1.29      0.00
   -7   22    1      3.55      0.00
   -4   22    1      1.22      0.00
  -18   23    1     -1.43      0.00
  -15   23    1      0.83      0.00
  -12   23    1      1.36      0.00
   -9   23    1     -0.28      0.00
   -6   23    1      0.63      0.00
  -14   24    1      0.55      0.00
  -11   24    1      2.48      0.00
    0    1    2    505.37      0.00
   -2    2    2    -33.24      0.00
   -1    3    2     -7.53      0.00
   -3    4    2     -9.43      0.00
   -5    5    2     -5.23      0.00
   -4    6    2      8.70      0.00
   -6    7    2    -26.92      0.00
   -3    7    2     -3.84      0.00
    0    7    2     -5.05      0.00
   -8    8    2      1.02      0.00
   -5    8    2      0.06      0.00
   -2    8    2      7.47      0.00
   -7    9    2     -7.76      0.00
   -4    9    2    -14.87      0.00
   -1    9    2      3.37      0.00
   -9   10    2      0.42      0.00
   -6   10    2     -3.95      0.00
   -3   10    2    -10.29      0.00
    0   10    2     -8.39      0.00
  -11   11    2      1.68      0.00
   -8   11    2     -2.63      0.00
   -5   11    2      7.86      0.00
   -2   11    2      0.89      0.00
  -10   12    2     -2.70      0.00
   -7   12    2     -5.83      0.00
   -4   12    2     -1.20      0.00
   -1   12    2     -2.63      0.00
  -12   13    2      1.21      0.00
   -9   13    2     -2.94      0.00
   -6   13    2      4.53      0.00
   -3   13    2      3.84      0.00
    0   13    2      0.91      0.00
  -14   14    2     -1.16      0.00
  -11   14    2     -1.37      0.00
   -8   14    2     -4.41      0.00
   -5   14    2      2.44      0.00
   -2   14    2     -0.28      0.00
  -13   15    2      1.41      0.00
  -10   15    2     -0.31      0.00
   -7   15    2      0.71      0.00
   -4   15    2      1.26      0.00
   -1   15    2      0.59      0.00
  -15   16    2     -0.49      0.00
  -12   16    2     -0.28      0.00
   -9   16    2      1.22      0.00
   -6   16    2     -2.24      0.00
   -3   16    2      1.10      0.00
    0   16    2      0.12      0.00
  -17   17    2     -1.29      0.00
  -14   17    2     -0.42      0.00
  -11   17    2      1.71      0.00
   -8   17    2      1.82      0.00
   -5   17    2     -0.61      0.00
   -2   17    2      1.15      0.00
  -16   18    2     -1.22      0.00
  -13   18    2      0.83      0.00
  -10   18    2      0.86      0.00
   -7   18    2      1.30      0.00
   -4   18    2      3.72      0.00
   -1   18    2     -6.13      0.00
  -18   19    2      1.25      0.00
  -15   19    2     -0.82      0.00
  -12   19    2     -2.11      0.00
   -9   19    2      2.41      0.00
   -6   19    2      1.51      0.00
   -3   19    2     -0.53      0.00
    0   19    2     -2.23      0.00
  -20   20    2      2.44      0.00
  -17   20    2      1.97      0.00
  -14   20    2      1.03      0.00
  -11   20    2     -3.19      0.00
   -8   20    2     -2.34      0.00
   -5   20    2     -0.11      0.00
   -2   20    2      2.03      0.00
  -19   21    2      4.23      0.00
  -16   21    2      1.17      0.00
  -13   21    2     -0.42      0.00
  -10   21    2      1.00      0.00
   -7   21    2     -0.25      0.00
   -4   21    2      2.33      0.00
   -1   21    2     10.57      0.00
  -18   22    2      3.37      0.00
  -15   22    2     -1.86      0.00
  -12   22    2     -1.20      0.00
   -9   22    2     -4.18      0.00
   -6   22    2      5.42      0.00
   -3   22    2      3.13      0.00
  -17   23    2      4.39      0.00
  -14   23    2     -0.61      0.00
  -11   23    2     -3.81      0.00
   -8   23    2      6.43      0.00
  -13   24    2     -0.75      0.00
  -10   24    2     -0.16      0.00
   -1    2    3    -49.66      0.00
   -3    3    3     38.32      0.00
    0    3    3     34.25      0.00
   -4    5    3    -60.49      0.00
   -1    5    3     26.36      0.00
   -6    6    3     -1.25      0.00
    0    6    3    -10.73      0.00
   -5    7    3    -23.33      0.00
   -2    7    3     -2.81      0.00
   -7    8    3     -1.22      0.00
   -4    8    3      1.09      0.00
   -1    8    3      3.70      0.00
   -9    9    3    -13.79      0.00
   -6    9    3     -0.21      0.00
   -3    9    3      2.47      0.00
    0    9    3     -8.84      0.00
   -8   10    3     -3.65      0.00
   -5   10    3      2.82      0.00
   -2   10    3      1.55      0.00
  -10   11    3      2.18      0.00
   -7   11    3      2.03      0.00
   -4   11    3      3.74      0.00
   -1   11    3     -2.91      0.00
  -12   12    3      1.34      0.00
   -9   12    3     -1.38      0.00
   -6   12    3      0.42      0.00
   -3   12    3     -1.37      0.00
    0   12    3     -1.58      0.00
  -11   13    3      3.63      0.00
   -8   13    3     -1.32      0.00
   -5   13    3      0.66      0.00
   -2   13    3     -2.22      0.00
  -13   14    3      3.24      0.00
  -10   14    3     -1.01      0.00
   -7   14    3      1.25      0.00
   -4   14    3     -1.66      0.00
   -1   14    3     -3.47      0.00
  -15   15    3     10.15      0.00
  -12   15    3     -0.43      0.00
   -9   15    3      0.47      0.00
   -6   15    3      2.41      0.00
   -3   15    3      3.37      0.00
    0   15    3     -0.67      0.00
  -14   16    3      6.11      0.00
  -11   16    3      4.53      0.00
   -8   16    3     -0.99      0.00
   -5   16    3      1.18      0.00
   -2   16    3     -2.30      0.00
  -16   17    3      0.56      0.00
  -13   17    3      5.57      0.00
  -10   17    3     -1.26      0.00
   -7   17    3      5.59      0.00
   -4   17    3      1.24      0.00
   -1   17    3      1.82      0.00
  -18   18    3     -7.25      0.00
  -15   18    3      6.78      0.00
  -12   18    3     -0.58      0.00
   -9   18    3     -0.06      0.00
   -6   18    3     -1.64      0.00
   -3   18    3      2.14      0.00
    0   18    3      3.48      0.00
  -17   19    3     -5.19      0.00
  -14   19    3      2.01      0.00
  -11   19    3     -1.62      0.00
   -8   19    3      0.88      0.00
   -5   19    3     -2.05      0.00
   -2   19    3     -1.97      0.00
  -19   20    3     -0.30      0.00
  -16   20    3     -1.18      0.00
  -13   20    3      0.08      0.00
  -10   20    3     -1.74      0.00
   -7   20    3     -3.15      0.00
   -4   20    3      0.26      0.00
   -1   20    3     -1.02      0.00
  -18   21    3     -3.23      0.00
  -15   21    3      3.63      0.00
  -12   21    3     -1.87      0.00
   -9   21    3      0.25      0.00
   -6   21    3      0.08      0.00
   -3   21    3     -2.22      0.00
  -17   22    3     -3.57      0.00
  -14   22    3      3.05      0.00
  -11   22    3      1.92      0.00
   -8   22    3     -0.75      0.00
   -5   22    3      1.76      0.00
  -16   23    3      5.84      0.00
  -13   23    3      3.69      0.00
  -10   23    3      0.83      0.00
   -7   23    3      1.03      0.00
  -12   24    3      7.80      0.00
   -1    1    4    110.33      0.00
    0    2    4     67.82      0.00
   -2    3    4    -28.83      0.00
   -4    4    4     64.10      0.00
   -1    4    4     -4.26      0.00
   -3    5    4     33.56      0.00
    0    5    4     32.10      0.00
   -5    6    4    -13.59      0.00
   -7    7    4     -1.92      0.00
   -4    7    4     20.72      0.00
   -1    7    4      5.36      0.00
   -6    8    4     -9.04      0.00
   -3    8    4      1.82      0.00
    0    8    4      9.87      0.00
   -8    9    4      5.02      0.00
   -5    9    4      2.10      0.00
   -2    9    4      0.99      0.00
  -10   10    4     -1.34      0.00
   -7   10    4     -2.10      0.00
   -4   10    4     -6.22      0.00
   -1   10    4      1.78      0.00
   -9   11    4     -5.96      0.00
   -6   11    4     -1.77      0.00
   -3   11    4     -3.23      0.00
    0   11    4     -4.44      0.00
  -11   12    4     -3.64      0.00
   -8   12    4     -2.73      0.00
   -5   12    4      5.62      0.00
   -2   12    4      5.51      0.00
  -13   13    4     -2.94      0.00
  -10   13    4     -5.00      0.00
   -7   13    4     -3.43      0.00
   -4   13    4      2.43      0.00
   -1   13    4      2.38      0.00
  -12   14    4      1.39      0.00
   -9   14    4     -1.37      0.00
   -6   14    4     -0.61      0.00
   -3   14    4     -0.48      0.00
    0   14    4      1.00      0.00
  -14   15    4     -0.70      0.00
  -11   15    4     -2.08      0.00
   -8   15    4     -2.32      0.00
   -5   15    4      0.13      0.00
   -2   15    4     -3.10      0.00
  -16   16    4      0.50      0.00
  -13   16    4      0.30      0.00
  -10   16    4      2.99      0.00
   -7   16    4     -4.01      0.00
   -4   16    4      0.41      0.00
   -1   16    4      1.94      0.00
  -15   17    4     -2.00      0.00
  -12   17    4      1.66      0.00
   -9   17    4      4.39      0.00
   -6   17    4     -2.37      0.00
   -3   17    4      2.28      0.00
    0   17    4     -1.92      0.00
  -17   18    4     -3.21      0.00
  -14   18    4      0.80      0.00
  -11   18    4      0.78      0.00
   -8   18    4      3.43      0.00
   -5   18    4      1.51      0.00
   -2   18    4      1.95      0.00
  -19   19    4      2.40      0.00
  -16   19    4     -0.25      0.00
  -13   19    4      0.41      0.00
  -10   19    4      0.06      0.00
   -7   19    4     -2.25      0.00
   -4   19    4     -0.70      0.00
   -1   19    4     -3.25      0.00
  -18   20    4      2.45      0.00
  -15   20    4      2.59      0.00
  -12   20    4     -4.48      0.00
   -9   20    4      2.62      0.00
   -6   20    4     -0.96      0.00
   -3   20    4      1.02      0.00
    0   20    4      3.17      0.00
  -20   21    4     -0.87      0.00
  -17   21    4     -1.27      0.00
  -14   21    4      0.15      0.00
  -11   21    4     -2.04      0.00
   -8   21    4     -0.80      0.00
   -5   21    4      1.13      0.00
   -2   21    4      5.81      0.00
  -19   22    4      4.09      0.00
  -16   22    4     -7.77      0.00
  -13   22    4      0.11      0.00
  -10   22    4     -3.88      0.00
   -7   22    4      6.27      0.00
   -4   22    4     -0.89      0.00
  -15   23    4     -8.21      0.00
  -12   23    4     -2.32      0.00
   -9   23    4      2.80      0.00
   -6   23    4     -5.21      0.00
  -14   24    4     -0.83      0.00
  -11   24    4     -1.38      0.00
   -2    2    5    -60.24      0.00
   -1    3    5    -45.63      0.00
    0    4    5     50.25      0.00
   -5    5    5      4.42      0.00
   -2    5    5    -14.30      0.00
   -4    6    5    -27.75      0.00
   -1    6    5      3.51      0.00
   -6    7    5     43.66      0.00
   -3    7    5    -12.46      0.00
    0    7    5      5.89      0.00
   -8    8    5      2.80      0.00
   -5    8    5      2.82      0.00
   -2    8    5     -6.38      0.00
   -7    9    5      7.63      0.00
   -4    9    5     -4.65      0.00
   -1    9    5      4.40      0.00
   -9   10    5      4.85      0.00
   -6   10    5      3.20      0.00
   -3   10    5     -3.86      0.00
    0   10    5     -4.04      0.00
  -11   11    5      2.37      0.00
   -8   11    5      0.60      0.00
   -5   11    5     -4.70      0.00
   -2   11    5      0.00      0.00
  -10   12    5      4.49      0.00
   -7   12    5      0.25      0.00
   -4   12    5     -5.40      0.00
   -1   12    5      3.58      0.00
  -12   13    5      0.01      0.00
   -9   13    5     -3.39      0.00
   -6   13    5     -5.81      0.00
   -3   13    5     -7.29      0.00
    0   13    5     -4.41      0.00
  -14   14    5     -2.18      0.00
  -11   14    5     -1.94      0.00
   -8   14    5     -1.04      0.00
   -5   14    5     -0.19      0.00
   -2   14    5      2.31      0.00
  -13   15    5     -4.60      0.00
  -10   15    5      0.36      0.00
   -7   15    5     -4.21      0.00
   -4   15    5     -0.52      0.00
   -1   15    5     -1.54      0.00
  -15   16    5      3.86      0.00
  -12   16    5      1.18      0.00
   -9   16    5     -1.20      0.00
   -6   16    5      1.50      0.00
   -3   16    5      3.20      0.00
    0   16    5     -2.63      0.00
  -17   17    5     -3.23      0.00
  -14   17    5      4.95      0.00
  -11   17    5      0.16      0.00
   -8   17    5      0.30      0.00
   -5   17    5     -1.09      0.00
   -2   17    5     -1.86      0.00
  -16   18    5     -0.61      0.00
  -13   18    5     -1.21      0.00
  -10   18    5     -1.44      0.00
   -7   18    5      3.64      0.00
   -4   18    5      0.19      0.00
   -1   18    5     -0.07      0.00
  -18   19    5     -2.68      0.00
  -15   19    5     -2.43      0.00
  -12   19    5      0.43      0.00
   -9   19    5      4.19      0.00
   -6   19    5     -1.36      0.00
   -3   19    5      0.29      0.00
    0   19    5      2.41      0.00
  -20   20    5      1.16      0.00
  -17   20    5     -1.77      0.00
  -14   20    5     -1.10      0.00
  -11   20    5      0.03      0.00
   -8   20    5      1.65      0.00
   -5   20    5     -0.92      0.00
   -2   20    5     -2.49      0.00
  -19   21    5      2.49      0.00
  -16   21    5      0.77      0.00
  -13   21    5     -1.36      0.00
  -10   21    5      0.58      0.00
   -7   21    5     -0.99      0.00
   -4   21    5      3.68      0.00
   -1   21    5      7.19      0.00
  -18   22    5     -1.70      0.00
  -15   22    5      1.30      0.00
  -12   22    5      0.17      0.00
   -9   22    5     -1.89      0.00
   -6   22    5      4.46      0.00
   -3   22    5      2.49      0.00
  -17   23    5      6.38      0.00
  -14   23    5      0.08      0.00
  -11   23    5     -0.23      0.00
   -8   23    5      2.06      0.00
  -13   24    5      3.04      0.00
    0    0    6    -77.34      0.00
   -1    2    6    -33.25      0.00
   -3    3    6      7.70      0.00
    0    3    6    -31.73      0.00
   -2    4    6    -18.42      0.00
   -4    5    6      5.09      0.00
   -1    5    6     -7.21      0.00
   -6    6    6    -35.93      0.00
   -3    6    6      8.63      0.00
    0    6    6     -4.85      0.00
   -5    7    6    -33.88      0.00
   -2    7    6      3.63      0.00
   -7    8    6      0.24      0.00
   -4    8    6     -1.46      0.00
   -1    8    6      3.15      0.00
   -9    9    6      7.09      0.00
   -6    9    6     -2.45      0.00
   -3    9    6     -6.20      0.00
    0    9    6      8.81      0.00
   -8   10    6      6.24      0.00
   -5   10    6    -10.51      0.00
   -2   10    6     -4.72      0.00
  -10   11    6      0.85      0.00
   -7   11    6     -3.68      0.00
   -4   11    6     -0.40      0.00
   -1   11    6     -3.45      0.00
  -12   12    6     -0.83      0.00
   -9   12    6     -4.70      0.00
   -6   12    6     -1.87      0.00
   -3   12    6     -0.46      0.00
    0   12    6      0.88      0.00
  -11   13    6      1.79      0.00
   -8   13    6      3.26      0.00
   -5   13    6      4.35      0.00
   -2   13    6      1.46      0.00
  -13   14    6      1.89      0.00
  -10   14    6     -0.66      0.00
   -7   14    6     -8.39      0.00
   -4   14    6      1.13      0.00
   -1   14    6     -2.85      0.00
  -15   15    6      4.05      0.00
  -12   15    6      0.64      0.00
   -9   15    6      0.68      0.00
   -6   15    6     -4.09      0.00
   -3   15    6     -2.69      0.00
    0   15    6      2.82      0.00
  -14   16    6      1.16      0.00
  -11   16    6      2.01      0.00
   -8   16    6     -3.17      0.00
   -5   16    6      1.33      0.00
   -2   16    6     -2.11      0.00
  -16   17    6     -0.41      0.00
  -13   17    6      1.87      0.00
  -10   17    6      3.37      0.00
   -7   17    6     -0.20      0.00
   -4   17    6      4.49      0.00
   -1   17    6      0.98      0.00
  -18   18    6     -2.21      0.00
  -15   18    6      0.39      0.00
  -12   18    6     -0.42      0.00
   -9   18    6      0.41      0.00
   -6   18    6     -2.55      0.00
   -3   18    6      2.07      0.00
    0   18    6     -3.43      0.00
  -17   19    6     -2.35      0.00
  -14   19    6     -0.11      0.00
  -11   19    6     -1.35      0.00
   -8   19    6     -1.13      0.00
   -5   19    6     -1.28      0.00
   -2   19    6     -0.07      0.00
  -19   20    6      1.78      0.00
  -16   20    6     -0.43      0.00
  -13   20    6      0.79      0.00
  -10   20    6      1.42      0.00
   -7   20    6     -3.73      0.00
   -4   20    6     -0.28      0.00
   -1   20    6      2.16      0.00
  -18   21    6     -1.05      0.00
  -15   21    6      0.28      0.00
  -12   21    6     -1.75      0.00
   -9   21    6      3.34      0.00
   -6   21    6      2.82      0.00
   -3   21    6      2.62      0.00
  -17   22    6    -12.97      0.00
  -14   22    6      1.51      0.00
  -11   22    6     -1.22      0.00
   -8   22    6      3.69      0.00
   -5   22    6     -0.45      0.00
  -16   23    6     -7.29      0.00
  -13   23    6      2.98      0.00
  -10   23    6      1.74      0.00
   -7   23    6     -1.08      0.00
  -12   24    6      0.40      0.00
   -4    4    7    -28.50      0.00
   -1    4    7     11.72      0.00
   -3    5    7    -20.00      0.00
    0    5    7     -5.38      0.00
   -5    6    7     39.68      0.00
   -2    6    7      3.74      0.00
   -7    7    7     54.84      0.00
   -4    7    7     -5.51      0.00
   -1    7    7     -4.94      0.00
   -6    8    7     27.25      0.00
   -3    8    7      2.08      0.00
    0    8    7     15.86      0.00
   -8    9    7      0.23      0.00
   -5    9    7     12.88      0.00
   -2    9    7     -7.39      0.00
  -10   10    7      2.22      0.00
   -7   10    7      1.77      0.00
   -4   10    7      4.94      0.00
   -1   10    7     -2.26      0.00
   -9   11    7      2.45      0.00
   -6   11    7      4.77      0.00
   -3   11    7      2.59      0.00
    0   11    7      3.70      0.00
  -11   12    7     -3.41      0.00
   -8   12    7     -1.77      0.00
   -5   12    7     -3.67      0.00
   -2   12    7     -1.03      0.00
  -13   13    7     -0.30      0.00
  -10   13    7     -0.56      0.00
   -7   13    7      2.67      0.00
   -4   13    7     -3.10      0.00
   -1   13    7      1.72      0.00
  -12   14    7     -3.24      0.00
   -9   14    7     -2.96      0.00
   -6   14    7     -3.23      0.00
   -3   14    7     -3.91      0.00
    0   14    7     -1.34      0.00
  -14   15    7     -0.41      0.00
  -11   15    7     -1.33      0.00
   -8   15    7      0.69      0.00
   -5   15    7      1.63      0.00
   -2   15    7      4.61      0.00
  -16   16    7      6.43      0.00
  -13   16    7      1.96      0.00
  -10   16    7     -1.83      0.00
   -7   16    7     -2.79      0.00
   -4   16    7     -1.20      0.00
   -1   16    7      0.24      0.00
  -15   17    7      6.98      0.00
  -12   17    7      2.20      0.00
   -9   17    7     -1.55      0.00
   -6   17    7     -2.44      0.00
   -3   17    7      0.80      0.00
    0   17    7      1.58      0.00
  -17   18    7      0.30      0.00
  -14   18    7      0.53      0.00
  -11   18    7     -5.62      0.00
   -8   18    7      3.17      0.00
   -5   18    7      0.27      0.00
   -2   18    7      1.75      0.00
  -19   19    7      1.15      0.00
  -16   19    7     -0.12      0.00
  -13   19    7      1.66      0.00
  -10   19    7      1.43      0.00
   -7   19    7     -2.49      0.00
   -4   19    7     -3.81      0.00
   -1   19    7     -1.14      0.00
  -18   20    7      4.01      0.00
  -15   20    7     -1.37      0.00
  -12   20    7     -1.24      0.00
   -9   20    7      5.51      0.00
   -6   20    7     -2.84      0.00
   -3   20    7     -1.36      0.00
    0   20    7      8.24      0.00
  -20   21    7      1.15      0.00
  -17   21    7      0.89      0.00
  -14   21    7     -3.37      0.00
  -11   21    7     -0.18      0.00
   -8   21    7     -2.84      0.00
   -5   21    7      0.25      0.00
   -2   21    7      1.49      0.00
  -19   22    7     -0.55      0.00
  -16   22    7      0.25      0.00
  -13   22    7      1.10      0.00
  -10   22    7     -6.04      0.00
   -7   22    7      5.12      0.00
   -4   22    7     -0.04      0.00
  -15   23    7     -4.79      0.00
  -12   23    7      3.74      0.00
   -9   23    7      1.01      0.00
   -6   23    7     -3.58      0.00
    0    1    8    -44.19      0.00
   -1    3    8    -29.14      0.00
   -3    4    8     18.84      0.00
    0    4    8    -12.70      0.00
   -5    5    8     23.89      0.00
   -2    5    8      6.58      0.00
   -4    6    8     18.02      0.00
   -1    6    8     -2.75      0.00
   -6    7    8     -0.91      0.00
   -3    7    8     12.76      0.00
    0    7    8     -8.42      0.00
   -8    8    8      2.23      0.00
   -5    8    8      7.52      0.00
   -2    8    8      9.55      0.00
   -7    9    8     17.32      0.00
   -4    9    8      3.45      0.00
   -1    9    8     10.33      0.00
   -9   10    8      6.36      0.00
   -6   10    8     10.32      0.00
   -3   10    8      1.09      0.00
    0   10    8      8.40      0.00
  -11   11    8     -2.59      0.00
   -8   11    8      2.20      0.00
   -5   11    8      0.54      0.00
   -2   11    8     -2.03      0.00
  -10   12    8     -1.58      0.00
   -7   12    8      9.83      0.00
   -4   12    8      3.48      0.00
   -1   12    8      7.38      0.00
  -12   13    8      1.01      0.00
   -9   13    8      1.49      0.00
   -6   13    8     -0.67      0.00
   -3   13    8     -0.12      0.00
    0   13    8      1.69      0.00
  -14   14    8     -1.54      0.00
  -11   14    8     -0.66      0.00
   -8   14    8      1.14      0.00
   -5   14    8      3.03      0.00
   -2   14    8     -0.42      0.00
  -13   15    8     -1.82      0.00
  -10   15    8     -1.46      0.00
   -7   15    8     -7.42      0.00
   -4   15    8     -0.56      0.00
   -1   15    8     -0.32      0.00
  -15   16    8      2.05      0.00
  -12   16    8     -1.34      0.00
   -9   16    8      5.47      0.00
   -6   16    8      1.96      0.00
   -3   16    8     -0.62      0.00
    0   16    8     -0.06      0.00
  -17   17    8     -1.95      0.00
  -14   17    8     -1.05      0.00
  -11   17    8     -0.08      0.00
   -8   17    8     -0.13      0.00
   -5   17    8      2.60      0.00
   -2   17    8     -5.04      0.00
  -16   18    8     -0.62      0.00
  -13   18    8     -5.11      0.00
  -10   18    8      0.16      0.00
   -7   18    8     -0.33      0.00
   -4   18    8      0.53      0.00
   -1   18    8     -2.01      0.00
  -18   19    8      1.39      0.00
  -15   19    8     -0.99      0.00
  -12   19    8     -1.58      0.00
   -9   19    8     -2.99      0.00
   -6   19    8     -0.62      0.00
   -3   19    8      3.31      0.00
    0   19    8     -0.28      0.00
  -20   20    8      5.46      0.00
  -17   20    8     -0.59      0.00
  -14   20    8     -1.73      0.00
  -11   20    8     -0.95      0.00
   -8   20    8      1.34      0.00
   -5   20    8      1.46      0.00
   -2   20    8     -2.44      0.00
  -19   21    8      1.29      0.00
  -16   21    8     -0.92      0.00
  -13   21    8     -3.19      0.00
  -10   21    8      0.87      0.00
   -7   21    8      4.53      0.00
   -4   21    8      3.48      0.00
   -1   21    8     -2.92      0.00
  -18   22    8     -5.82      0.00
  -15   22    8      0.04      0.00
  -12   22    8     -4.63      0.00
   -9   22    8      6.67      0.00
   -6   22    8      3.83      0.00
   -3   22    8      2.04      0.00
  -17   23    8     -6.11      0.00
  -14   23    8     -1.21      0.00
  -11   23    8      1.40      0.00
   -8   23    8     -0.53      0.00
   -1    2    9      9.00      0.00
   -3    3    9      6.87      0.00
    0    3    9     -9.68      0.00
   -2    4    9      9.38      0.00
   -4    5    9    -15.15      0.00
   -1    5    9      0.82      0.00
   -6    6    9     53.49      0.00
   -3    6    9     -3.96      0.00
    0    6    9    -26.16      0.00
   -5    7    9      8.65      0.00
   -2    7    9     23.89      0.00
   -7    8    9     23.92      0.00
   -4    8    9     -9.66      0.00
   -1    8    9      6.93      0.00
   -9    9    9      4.16      0.00
   -6    9    9      9.41      0.00
   -3    9    9     -1.91      0.00
    0    9    9      9.36      0.00
   -8   10    9      1.42      0.00
   -5   10    9      4.80      0.00
   -2   10    9     -1.09      0.00
  -10   11    9      4.46      0.00
   -7   11    9      0.60      0.00
   -4   11    9      3.61      0.00
   -1   11    9     -2.01      0.00
  -12   12    9      0.26      0.00
   -9   12    9      8.37      0.00
   -6   12    9      2.73      0.00
   -3   12    9      2.85      0.00
    0   12    9      6.02      0.00
  -11   13    9      0.64      0.00
   -8   13    9      8.47      0.00
   -5   13    9     -4.83      0.00
   -2   13    9     -2.62      0.00
  -13   14    9      1.55      0.00
  -10   14    9      4.98      0.00
   -7   14    9      0.16      0.00
   -4   14    9      4.98      0.00
   -1   14    9      0.06      0.00
  -15   15    9      0.02      0.00
  -12   15    9     -0.88      0.00
   -9   15    9      2.40      0.00
   -6   15    9     -0.53      0.00
   -3   15    9      0.83      0.00
    0   15    9      2.86      0.00
  -14   16    9      1.69      0.00
  -11   16    9      2.41      0.00
   -8   16    9      1.43      0.00
   -5   16    9      2.34      0.00
   -2   16    9      4.71      0.00
  -16   17    9      0.62      0.00
  -13   17    9      0.44      0.00
  -10   17    9     -3.75      0.00
   -7   17    9     -1.10      0.00
   -4   17    9      6.37      0.00
   -1   17    9      3.16      0.00
  -18   18    9     -4.36      0.00
  -15   18    9     -2.68      0.00
  -12   18    9      1.05      0.00
   -9   18    9      3.98      0.00
   -6   18    9     -0.76      0.00
   -3   18    9      1.68      0.00
    0   18    9      2.32      0.00
  -17   19    9     -1.55      0.00
  -14   19    9      0.54      0.00
  -11   19    9     -1.93      0.00
   -8   19    9      4.04      0.00
   -5   19    9     -0.11      0.00
   -2   19    9      2.32      0.00
  -19   20    9     -1.64      0.00
  -16   20    9     -3.67      0.00
  -13   20    9      5.34      0.00
  -10   20    9      8.05      0.00
   -7   20    9     -8.79      0.00
   -4   20    9     -2.30      0.00
   -1   20    9      8.42      0.00
  -18   21    9      2.51      0.00
  -15   21    9     -3.22      0.00
  -12   21    9      2.10      0.00
   -9   21    9      0.92      0.00
   -6   21    9      2.77      0.00
   -3   21    9      2.01      0.00
  -17   22    9     -1.38      0.00
  -14   22    9     -2.52      0.00
  -11   22    9      1.59      0.00
   -8   22    9      1.48      0.00
   -5   22    9     -0.92      0.00
  -16   23    9     -4.19      0.00
  -13   23    9     10.11      0.00
  -10   23    9     -2.63      0.00
   -7   23    9      1.51      0.00
   -1    1   10     16.86      0.00
    0    2   10     12.88      0.00
   -2    3   10     -2.05      0.00
   -4    4   10    -12.32      0.00
   -1    4   10     -7.00      0.00
   -3    5   10      4.41      0.00
    0    5   10      0.89      0.00
   -5    6   10     -7.81      0.00
   -2    6   10      0.70      0.00
   -7    7   10    -16.49      0.00
   -4    7   10     -2.29      0.00
   -1    7   10     -4.64      0.00
   -6    8   10     -2.76      0.00
   -3    8   10      7.93      0.00
    0    8   10    -10.09      0.00
   -8    9   10     -1.72      0.00
   -5    9   10     10.22      0.00
   -2    9   10      4.52      0.00
  -10   10   10     -3.89      0.00
   -7   10   10      5.02      0.00
   -4   10   10      2.09      0.00
   -1   10   10     -0.89      0.00
   -9   11   10     -1.96      0.00
   -6   11   10      3.15      0.00
   -3   11   10     -0.71      0.00
    0   11   10      3.54      0.00
  -11   12   10     -0.37      0.00
   -8   12   10     -3.36      0.00
   -5   12   10      3.84      0.00
   -2   12   10     -3.38      0.00
  -13   13   10     -1.35      0.00
  -10   13   10     -1.29      0.00
   -7   13   10     -0.43      0.00
   -4   13   10      2.91      0.00
   -1   13   10      0.30      0.00
  -12   14   10      0.40      0.00
   -9   14   10     -5.90      0.00
   -6   14   10     -3.15      0.00
   -3   14   10     -0.93      0.00
    0   14   10     -3.76      0.00
  -14   15   10      0.18      0.00
  -11   15   10     -3.12      0.00
   -8   15   10     -2.95      0.00
   -5   15   10      2.04      0.00
   -2   15   10      2.61      0.00
  -16   16   10      4.81      0.00
  -13   16   10      0.99      0.00
  -10   16   10     -0.46      0.00
   -7   16   10     -3.32      0.00
   -4   16   10     -0.58      0.00
   -1   16   10     -3.95      0.00
  -15   17   10      5.00      0.00
  -12   17   10      0.77      0.00
   -9   17   10      1.42      0.00
   -6   17   10      2.82      0.00
   -3   17   10     -3.17      0.00
    0   17   10      3.44      0.00
  -17   18   10      0.20      0.00
  -14   18   10     -1.91      0.00
  -11   18   10     -4.97      0.00
   -8   18   10     -2.93      0.00
   -5   18   10      2.88      0.00
   -2   18   10      1.08      0.00
  -19   19   10     13.66      0.00
  -16   19   10      2.11      0.00
  -13   19   10     -3.69      0.00
  -10   19   10     -1.11      0.00
   -7   19   10      1.00      0.00
   -4   19   10      1.22      0.00
   -1   19   10     -1.32      0.00
  -18   20   10      1.68      0.00
  -15   20   10      1.24      0.00
  -12   20   10      2.36      0.00
   -9   20   10     -0.91      0.00
   -6   20   10      3.79      0.00
   -3   20   10      3.89      0.00
    0   20   10      1.16      0.00
  -20   21   10      6.31      0.00
  -17   21   10      0.55      0.00
  -14   21   10     -5.87      0.00
  -11   21   10     -0.41      0.00
   -8   21   10      4.08      0.00
   -5   21   10      1.21      0.00
   -2   21   10     -3.73      0.00
  -16   22   10      1.94      0.00
  -13   22   10     -1.48      0.00
  -10   22   10      1.12      0.00
   -7   22   10      2.09      0.00
   -4   22   10      5.58      0.00
  -15   23   10      2.05      0.00
  -12   23   10      0.32      0.00
   -9   23   10     -0.09      0.00
    0    1   11     16.91      0.00
   -2    2   11     30.30      0.00
   -1    3   11      4.13      0.00
   -3    4   11     11.28      0.00
    0    4   11    -22.14      0.00
   -5    5   11     -9.69      0.00
   -2    5   11     14.24      0.00
   -4    6   11     -6.63      0.00
   -1    6   11     -4.30      0.00
   -6    7   11     23.50      0.00
   -3    7   11     10.31      0.00
    0    7   11    -24.03      0.00
   -8    8   11     -4.90      0.00
   -5    8   11      2.75      0.00
   -2    8   11     21.08      0.00
   -7    9   11     -6.00      0.00
   -4    9   11     -0.87      0.00
   -1    9   11      4.63      0.00
   -9   10   11     -6.14      0.00
   -6   10   11      8.03      0.00
   -3   10   11      0.20      0.00
    0   10   11     -3.99      0.00
  -11   11   11     -4.17      0.00
   -8   11   11     -6.24      0.00
   -5   11   11      6.11      0.00
   -2   11   11      3.03      0.00
  -10   12   11     -3.11      0.00
   -7   12   11      0.19      0.00
   -4   12   11     -3.19      0.00
   -1   12   11      3.57      0.00
  -12   13   11      0.84      0.00
   -9   13   11      5.22      0.00
   -6   13   11     -4.02      0.00
   -3   13   11      2.17      0.00
    0   13   11      1.91      0.00
  -14   14   11      5.13      0.00
  -11   14   11     -5.54      0.00
   -8   14   11      1.40      0.00
   -5   14   11     -1.10      0.00
   -2   14   11     -6.91      0.00
  -13   15   11      2.41      0.00
  -10   15   11     -1.05      0.00
   -7   15   11     -0.33      0.00
   -4   15   11     -0.02      0.00
   -1   15   11      2.11      0.00
  -15   16   11     -0.44      0.00
  -12   16   11     -1.55      0.00
   -9   16   11      1.85      0.00
   -6   16   11     -2.67      0.00
   -3   16   11      0.48      0.00
    0   16   11      3.45      0.00
  -17   17   11     -1.29      0.00
  -14   17   11     -4.03      0.00
  -11   17   11     -0.89      0.00
   -8   17   11     -1.43      0.00
   -5   17   11      4.13      0.00
   -2   17   11     -0.44      0.00
  -16   18   11     -1.17      0.00
  -13   18   11     -0.88      0.00
  -10   18   11     -5.05      0.00
   -7   18   11     -1.45      0.00
   -4   18   11      2.77      0.00
   -1   18   11      0.49      0.00
  -18   19   11     -0.61      0.00
  -15   19   11     -1.88      0.00
  -12   19   11      0.18      0.00
   -9   19   11      2.76      0.00
   -6   19   11     -4.63      0.00
   -3   19   11      1.27      0.00
    0   19   11      6.58      0.00
  -20   20   11     -6.58      0.00
  -17   20   11      1.19      0.00
  -14   20   11      4.10      0.00
  -11   20   11     -7.42      0.00
   -8   20   11     -1.71      0.00
   -5   20   11      4.23      0.00
   -2   20   11      0.27      0.00
  -19   21   11      0.30      0.00
  -16   21   11     -3.94      0.00
  -13   21   11     -2.33      0.00
  -10   21   11      2.84      0.00
   -7   21   11     -0.68      0.00
   -4   21   11     -1.84      0.00
  -18   22   11      4.57      0.00
  -15   22   11     -3.04      0.00
  -12   22   11     -3.96      0.00
   -9   22   11      2.41      0.00
   -6   22   11      3.06      0.00
  -14   23   11     -4.42      0.00
  -11   23   11      0.92      0.00
   -8   23   11     -1.47      0.00
    0    0   12    -22.88      0.00
   -1    2   12     31.13      0.00
   -3    3   12     -8.21      0.00
    0    3   12      5.97      0.00
   -2    4   12      0.37      0.00
   -4    5   12     -1.61      0.00
   -1    5   12      6.72      0.00
   -6    6   12     -7.36      0.00
   -3    6   12     10.55      0.00
    0    6   12     16.09      0.00
   -5    7   12    -11.43      0.00
   -2    7   12      4.25      0.00
   -7    8   12     -0.89      0.00
   -4    8   12     -0.44      0.00
   -1    8   12      1.16      0.00
   -9    9   12     -0.48      0.00
   -6    9   12      0.09      0.00
   -3    9   12      5.16      0.00
    0    9   12     -2.08      0.00
   -8   10   12      4.44      0.00
   -5   10   12     -3.78      0.00
   -2   10   12      5.73      0.00
  -10   11   12     -1.76      0.00
   -7   11   12      1.51      0.00
   -4   11   12     -1.48      0.00
   -1   11   12      0.67      0.00
  -12   12   12      5.01      0.00
   -9   12   12      1.81      0.00
   -6   12   12      1.68      0.00
   -3   12   12     -1.76      0.00
    0   12   12      2.75      0.00
  -11   13   12      7.34      0.00
   -8   13   12     -1.42      0.00
   -5   13   12      1.30      0.00
   -2   13   12      1.32      0.00
  -13   14   12     -4.01      0.00
  -10   14   12      1.57      0.00
   -7   14   12     -5.40      0.00
   -4   14   12      6.07      0.00
   -1   14   12     -1.83      0.00
  -15   15   12      0.79      0.00
  -12   15   12     -1.27      0.00
   -9   15   12     -0.90      0.00
   -6   15   12     -3.94      0.00
   -3   15   12      2.72      0.00
    0   15   12    -13.08      0.00
  -14   16   12      0.56      0.00
  -11   16   12      2.06      0.00
   -8   16   12     -1.33      0.00
   -5   16   12     -1.14      0.00
   -2   16   12     -1.60      0.00
  -16   17   12     -0.87      0.00
  -13   17   12      0.76      0.00
  -10   17   12     -1.68      0.00
   -7   17   12     -4.52      0.00
   -4   17   12     -1.84      0.00
   -1   17   12     -4.59      0.00
  -18   18   12      0.33      0.00
  -15   18   12      1.08      0.00
  -12   18   12     -1.81      0.00
   -9   18   12      5.00      0.00
   -6   18   12      0.79      0.00
   -3   18   12     -2.08      0.00
    0   18   12      1.42      0.00
  -17   19   12     -6.12      0.00
  -14   19   12      0.36      0.00
  -11   19   12      3.41      0.00
   -8   19   12     -0.61      0.00
   -5   19   12      2.47      0.00
   -2   19   12      3.46      0.00
  -19   20   12     14.13      0.00
  -16   20   12      2.66      0.00
  -13   20   12     -0.48      0.00
  -10   20   12      4.47      0.00
   -7   20   12      0.23      0.00
   -4   20   12      0.13      0.00
   -1   20   12      0.51      0.00
  -18   21   12     -3.08      0.00
  -15   21   12     -3.25      0.00
  -12   21   12      7.50      0.00
   -9   21   12      0.62      0.00
   -6   21   12     -0.77      0.00
   -3   21   12      7.35      0.00
  -17   22   12      5.75      0.00
  -14   22   12     -7.26      0.00
  -11   22   12      3.28      0.00
   -8   22   12      1.36      0.00
   -5   22   12      3.34      0.00
  -13   23   12      5.48      0.00
  -10   23   12      0.86      0.00
   -1    1   13      8.25      0.00
    0    2   13     27.26      0.00
   -2    3   13     -0.20      0.00
   -4    4   13    -20.76      0.00
   -1    4   13      1.19      0.00
   -3    5   13     -1.32      0.00
    0    5   13      9.60      0.00
   -5    6   13    -21.48      0.00
   -2    6   13     11.27      0.00
   -7    7   13      8.39      0.00
   -4    7   13     -6.99      0.00
   -1    7   13      0.16      0.00
   -6    8   13     -1.07      0.00
   -3    8   13      7.45      0.00
    0    8   13    -10.99      0.00
   -8    9   13    -11.28      0.00
   -5    9   13      1.88      0.00
   -2    9   13      9.66      0.00
  -10   10   13     -1.99      0.00
   -7   10   13     -6.24      0.00
   -4   10   13     -0.26      0.00
   -1   10   13     -0.47      0.00
   -9   11   13     -3.12      0.00
   -6   11   13     -0.67      0.00
   -3   11   13      1.94      0.00
    0   11   13     -3.59      0.00
  -11   12   13     -3.99      0.00
   -8   12   13     -4.36      0.00
   -5   12   13      1.74      0.00
   -2   12   13      4.95      0.00
  -13   13   13     -0.88      0.00
  -10   13   13     -3.88      0.00
   -7   13   13     -5.21      0.00
   -4   13   13     -1.41      0.00
   -1   13   13     -1.35      0.00
  -12   14   13     -3.37      0.00
   -9   14   13      3.70      0.00
   -6   14   13      0.46      0.00
   -3   14   13     -2.08      0.00
    0   14   13     -1.18      0.00
  -14   15   13      4.46      0.00
  -11   15   13     -5.91      0.00
   -8   15   13      1.84      0.00
   -5   15   13     -0.10      0.00
   -2   15   13      0.38      0.00
  -16   16   13     -2.41      0.00
  -13   16   13      0.03      0.00
  -10   16   13      1.02      0.00
   -7   16   13     -0.52      0.00
   -4   16   13      5.91      0.00
   -1   16   13      1.48      0.00
  -15   17   13     -3.29      0.00
  -12   17   13      2.90      0.00
   -9   17   13      0.30      0.00
   -6   17   13      7.32      0.00
   -3   17   13      0.78      0.00
    0   17   13      0.47      0.00
  -17   18   13      4.07      0.00
  -14   18   13     -3.04      0.00
  -11   18   13      2.82      0.00
   -8   18   13     -0.69      0.00
   -5   18   13      2.21      0.00
   -2   18   13     -1.81      0.00
  -19   19   13      2.83      0.00
  -16   19   13      1.28      0.00
  -13   19   13      2.50      0.00
  -10   19   13     -4.64      0.00
   -7   19   13     -0.01      0.00
   -4   19   13      2.15      0.00
   -1   19   13     -4.29      0.00
  -18   20   13      3.73      0.00
  -15   20   13      1.11      0.00
  -12   20   13      1.88      0.00
   -9   20   13      4.54      0.00
   -6   20   13      0.39      0.00
   -3   20   13     -4.09      0.00
    0   20   13      8.10      0.00
  -17   21   13      0.48      0.00
  -14   21   13      4.39      0.00
  -11   21   13     -2.74      0.00
   -8   21   13     -0.21      0.00
   -5   21   13      2.79      0.00
   -2   21   13     -3.93      0.00
  -16   22   13     -0.60      0.00
  -13   22   13     -3.09      0.00
  -10   22   13      3.24      0.00
   -7   22   13     -3.31      0.00
  -12   23   13     -1.73      0.00
   -9   23   13     -6.65      0.00
    0    1   14     -8.59      0.00
   -2    2   14     21.64      0.00
   -1    3   14      7.30      0.00
   -3    4   14    -19.54      0.00
    0    4   14    -15.17      0.00
   -5    5   14     -2.65      0.00
   -2    5   14      9.49      0.00
   -4    6   14      1.43      0.00
   -1    6   14      5.30      0.00
   -6    7   14     -6.41      0.00
   -3    7   14      7.08      0.00
    0    7   14      7.78      0.00
   -8    8   14      6.40      0.00
   -5    8   14     -8.18      0.00
   -2    8   14     -3.59      0.00
   -7    9   14      0.94      0.00
   -4    9   14      6.11      0.00
   -1    9   14     -3.06      0.00
   -9   10   14     -2.43      0.00
   -6   10   14     -1.79      0.00
   -3   10   14      2.82      0.00
    0   10   14     -1.91      0.00
  -11   11   14     -1.30      0.00
   -8   11   14      1.32      0.00
   -5   11   14     -3.10      0.00
   -2   11   14      1.58      0.00
  -10   12   14     -0.60      0.00
   -7   12   14     -1.82      0.00
   -4   12   14     -2.56      0.00
   -1   12   14      2.09      0.00
  -12   13   14      7.69      0.00
   -9   13   14     -4.32      0.00
   -6   13   14      1.72      0.00
   -3   13   14      4.34      0.00
    0   13   14     -2.79      0.00
  -14   14   14      2.29      0.00
  -11   14   14      4.04      0.00
   -8   14   14     -2.56      0.00
   -5   14   14      2.21      0.00
   -2   14   14     -0.75      0.00
  -13   15   14     -0.75      0.00
  -10   15   14      5.11      0.00
   -7   15   14     -2.60      0.00
   -4   15   14     -1.10      0.00
   -1   15   14     -2.42      0.00
  -15   16   14      3.90      0.00
  -12   16   14      4.38      0.00
   -9   16   14      0.27      0.00
   -6   16   14     -9.66      0.00
   -3   16   14     -4.23      0.00
    0   16   14     -5.68      0.00
  -17   17   14     -2.22      0.00
  -14   17   14      4.91      0.00
  -11   17   14     -0.82      0.00
   -8   17   14     -2.84      0.00
   -5   17   14     -5.13      0.00
   -2   17   14     -0.29      0.00
  -16   18   14     -2.17      0.00
  -13   18   14      1.90      0.00
  -10   18   14     -0.08      0.00
   -7   18   14     -5.13      0.00
   -4   18   14      1.66      0.00
   -1   18   14      2.12      0.00
  -18   19   14     -1.07      0.00
  -15   19   14      6.17      0.00
  -12   19   14     -1.05      0.00
   -9   19   14      5.16      0.00
   -6   19   14      3.12      0.00
   -3   19   14      1.90      0.00
    0   19   14     -0.08      0.00
  -20   20   14     10.97      0.00
  -17   20   14     -8.17      0.00
  -14   20   14      1.28      0.00
  -11   20   14     -0.40      0.00
   -8   20   14      0.78      0.00
   -5   20   14      3.91      0.00
   -2   20   14      5.11      0.00
  -19   21   14      0.71      0.00
  -16   21   14      0.03      0.00
  -13   21   14     -3.33      0.00
  -10   21   14     -0.43      0.00
   -7   21   14      4.21      0.00
   -4   21   14      4.16      0.00
  -15   22   14     -4.42      0.00
  -12   22   14      4.09      0.00
   -9   22   14      7.63      0.00
   -6   22   14     -0.99      0.00
  -14   23   14     -1.62      0.00
  -11   23   14      1.55      0.00
    0    0   15    -40.00      0.00
   -1    2   15     11.38      0.00
   -3    3   15    -11.15      0.00
    0    3   15      5.85      0.00
   -2    4   15     -8.51      0.00
   -4    5   15     -4.41      0.00
   -1    5   15      8.06      0.00
   -6    6   15     -5.13      0.00
   -3    6   15      4.97      0.00
    0    6   15     11.40      0.00
   -5    7   15     -1.80      0.00
   -2    7   15     -8.51      0.00
   -7    8   15      7.65      0.00
   -4    8   15     -1.28      0.00
   -1    8   15      1.28      0.00
   -9    9   15     -9.70      0.00
   -6    9   15     -5.18      0.00
   -3    9   15      1.57      0.00
    0    9   15      0.48      0.00
   -8   10   15     -3.13      0.00
   -5   10   15     -5.69      0.00
   -2   10   15      2.81      0.00
  -10   11   15     -0.85      0.00
   -7   11   15     -1.14      0.00
   -4   11   15     -0.15      0.00
   -1   11   15      1.56      0.00
  -12   12   15     -5.22      0.00
   -9   12   15     -0.34      0.00
   -6   12   15     -3.54      0.00
   -3   12   15      0.41      0.00
    0   12   15      4.78      0.00
  -11   13   15     -2.37      0.00
   -8   13   15      2.17      0.00
   -5   13   15     -3.04      0.00
   -2   13   15      2.68      0.00
  -13   14   15     -5.39      0.00
  -10   14   15     -1.97      0.00
   -7   14   15     -2.58      0.00
   -4   14   15     -6.08      0.00
   -1   14   15     -0.88      0.00
  -15   15   15      1.58      0.00
  -12   15   15     -8.85      0.00
   -9   15   15     -3.35      0.00
   -6   15   15     -1.92      0.00
   -3   15   15      3.04      0.00
    0   15   15     -9.65      0.00
  -14   16   15     -4.60      0.00
  -11   16   15     -5.66      0.00
   -8   16   15     -1.61      0.00
   -5   16   15      4.08      0.00
   -2   16   15      1.14      0.00
  -16   17   15     -5.24      0.00
  -13   17   15     -1.28      0.00
  -10   17   15      1.32      0.00
   -7   17   15     -1.22      0.00
   -4   17   15     -0.03      0.00
   -1   17   15     -1.83      0.00
  -18   18   15      4.50      0.00
  -15   18   15     -2.72      0.00
  -12   18   15      3.27      0.00
   -9   18   15     -4.38      0.00
   -6   18   15      0.05      0.00
   -3   18   15     -2.28      0.00
    0   18   15     -2.31      0.00
  -17   19   15      1.68      0.00
  -14   19   15      0.40      0.00
  -11   19   15      1.33      0.00
   -8   19   15     -0.85      0.00
   -5   19   15     -5.28      0.00
   -2   19   15     -2.16      0.00
  -19   20   15      4.30      0.00
  -16   20   15      0.32      0.00
  -13   20   15     -0.69      0.00
  -10   20   15      0.55      0.00
   -7   20   15     -0.78      0.00
   -4   20   15     -0.77      0.00
   -1   20   15      4.54      0.00
  -18   21   15      4.06      0.00
  -15   21   15      3.74      0.00
  -12   21   15      2.24      0.00
   -9   21   15      3.47      0.00
   -6   21   15     -3.12      0.00
   -3   21   15     -0.91      0.00
  -14   22   15     -4.57      0.00
  -11   22   15      1.68      0.00
   -8   22   15     -8.85      0.00
   -1    1   16    -28.55      0.00
    0    2   16      3.58      0.00
   -2    3   16     -2.98      0.00
   -4    4   16    -15.90      0.00
   -1    4   16      0.01      0.00
   -3    5   16     -7.47      0.00
    0    5   16      0.28      0.00
   -5    6   16      0.92      0.00
   -2    6   16     11.72      0.00
   -7    7   16     -1.36      0.00
   -4    7   16     -2.67      0.00
   -1    7   16      3.93      0.00
   -6    8   16     -5.10      0.00
   -3    8   16     -2.33      0.00
    0    8   16      7.27      0.00
   -8    9   16      8.33      0.00
   -5    9   16      0.07      0.00
   -2    9   16     -5.14      0.00
  -10   10   16     -4.53      0.00
   -7   10   16      5.15      0.00
   -4   10   16      4.04      0.00
   -1   10   16      1.69      0.00
   -9   11   16     -1.10      0.00
   -6   11   16     -3.46      0.00
   -3   11   16      1.84      0.00
    0   11   16      0.38      0.00
  -11   12   16     -3.40      0.00
   -8   12   16     -2.09      0.00
   -5   12   16      0.49      0.00
   -2   12   16      1.28      0.00
  -13   13   16      3.14      0.00
  -10   13   16     -4.76      0.00
   -7   13   16      1.14      0.00
   -4   13   16      2.11      0.00
   -1   13   16     -4.29      0.00
  -12   14   16     -1.56      0.00
   -9   14   16      5.21      0.00
   -6   14   16      2.82      0.00
   -3   14   16      4.01      0.00
    0   14   16     -0.20      0.00
  -14   15   16      2.14      0.00
  -11   15   16      6.60      0.00
   -8   15   16      3.44      0.00
   -5   15   16     -1.24      0.00
   -2   15   16     -0.23      0.00
  -16   16   16      1.44      0.00
  -13   16   16      3.13      0.00
  -10   16   16      3.88      0.00
   -7   16   16     -3.66      0.00
   -4   16   16     -2.29      0.00
   -1   16   16      4.68      0.00
  -15   17   16      2.30      0.00
  -12   17   16     -4.80      0.00
   -9   17   16      0.71      0.00
   -6   17   16     -2.66      0.00
   -3   17   16     -0.02      0.00
    0   17   16     -1.47      0.00
  -17   18   16      3.45      0.00
  -14   18   16      0.50      0.00
  -11   18   16     -2.10      0.00
   -8   18   16      0.91      0.00
   -5   18   16     -0.43      0.00
   -2   18   16      0.12      0.00
  -19   19   16      6.85      0.00
  -16   19   16     -1.21      0.00
  -13   19   16     -1.98      0.00
  -10   19   16      3.52      0.00
   -7   19   16     -2.49      0.00
   -4   19   16      0.77      0.00
   -1   19   16     -4.36      0.00
  -18   20   16     -0.46      0.00
  -15   20   16      0.43      0.00
  -12   20   16      1.30      0.00
   -9   20   16     -0.51      0.00
   -6   20   16      0.65      0.00
   -3   20   16      0.09      0.00
  -17   21   16     -5.23      0.00
  -14   21   16      1.03      0.00
  -11   21   16     -0.57      0.00
   -8   21   16      2.19      0.00
   -5   21   16      2.00      0.00
  -16   22   16      0.59      0.00
  -13   22   16      3.31      0.00
  -10   22   16      0.79      0.00
   -7   22   16     -2.42      0.00
    0    1   17     -8.17      0.00
   -2    2   17      6.31      0.00
   -1    3   17      6.44      0.00
   -3    4   17     -9.86      0.00
    0    4   17      0.80      0.00
   -5    5   17     -0.95      0.00
   -2    5   17      3.28      0.00
   -4    6   17      5.06      0.00
   -1    6   17     -1.83      0.00
   -6    7   17      9.12      0.00
   -3    7   17     -4.08      0.00
    0    7   17      7.80      0.00
   -8    8   17      8.53      0.00
   -5    8   17     -0.67      0.00
   -2    8   17     -5.87      0.00
   -7    9   17      1.10      0.00
   -4    9   17      2.00      0.00
   -1    9   17     -1.64      0.00
   -9   10   17     -3.95      0.00
   -6   10   17     -6.09      0.00
   -3   10   17     -0.57      0.00
    0   10   17      3.80      0.00
  -11   11   17     -0.34      0.00
   -8   11   17      3.44      0.00
   -5   11   17     -1.39      0.00
   -2   11   17     -2.72      0.00
  -10   12   17     -0.23      0.00
   -7   12   17      0.83      0.00
   -4   12   17      3.68      0.00
   -1   12   17      3.58      0.00
  -12   13   17     -4.64      0.00
   -9   13   17      0.33      0.00
   -6   13   17     -0.79      0.00
   -3   13   17     -1.50      0.00
    0   13   17      4.54      0.00
  -14   14   17      0.51      0.00
  -11   14   17     -1.79      0.00
   -8   14   17     -0.57      0.00
   -5   14   17     -4.55      0.00
   -2   14   17      0.41      0.00
  -13   15   17     -9.99      0.00
  -10   15   17     -4.46      0.00
   -7   15   17      3.03      0.00
   -4   15   17     -2.45      0.00
   -1   15   17     -4.29      0.00
  -15   16   17     -0.08      0.00
  -12   16   17     -2.57      0.00
   -9   16   17     -3.86      0.00
   -6   16   17      1.25      0.00
   -3   16   17      2.67      0.00
    0   16   17     -2.56      0.00
  -17   17   17     -0.14      0.00
  -14   17   17      1.29      0.00
  -11   17   17      6.76      0.00
   -8   17   17     -4.94      0.00
   -5   17   17      0.77      0.00
   -2   17   17      3.68      0.00
  -16   18   17      1.93      0.00
  -13   18   17      5.72      0.00
  -10   18   17     -0.98      0.00
   -7   18   17     -1.17      0.00
   -4   18   17     -0.35      0.00
   -1   18   17      4.72      0.00
  -18   19   17      0.36      0.00
  -15   19   17      3.14      0.00
  -12   19   17     -1.15      0.00
   -9   19   17      0.44      0.00
   -6   19   17      4.24      0.00
   -3   19   17     -2.07      0.00
    0   19   17      8.38      0.00
  -17   20   17     -4.78      0.00
  -14   20   17      1.59      0.00
  -11   20   17      2.01      0.00
   -8   20   17      8.98      0.00
   -5   20   17     -3.96      0.00
   -2   20   17      5.10      0.00
  -16   21   17      1.01      0.00
  -13   21   17     -4.94      0.00
  -10   21   17      5.34      0.00
   -7   21   17      0.06      0.00
   -4   21   17     -0.79      0.00
  -15   22   17      2.20      0.00
  -12   22   17      1.69      0.00
   -9   22   17      1.85      0.00
    0    0   18    -43.84      0.00
   -1    2   18    -10.30      0.00
   -3    3   18     -1.55      0.00
    0    3   18     -3.70      0.00
   -2    4   18     -9.40      0.00
   -4    5   18      1.26      0.00
   -1    5   18     -2.53      0.00
   -6    6   18     -1.33      0.00
   -3    6   18     -1.06      0.00
    0    6   18     -3.47      0.00
   -5    7   18      6.19      0.00
   -2    7   18     -6.64      0.00
   -7    8   18      1.73      0.00
   -4    8   18      1.63      0.00
   -1    8   18      3.12      0.00
   -9    9   18      4.71      0.00
   -6    9   18      1.06      0.00
   -3    9   18     -3.07      0.00
    0    9   18      5.74      0.00
   -8   10   18      7.72      0.00
   -5   10   18      6.02      0.00
   -2   10   18     -2.78      0.00
  -10   11   18     -1.63      0.00
   -7   11   18      3.82      0.00
   -4   11   18      3.64      0.00
   -1   11   18      1.85      0.00
  -12   12   18      4.13      0.00
   -9   12   18      0.00      0.00
   -6   12   18     -1.26      0.00
   -3   12   18     -1.38      0.00
    0   12   18     -0.05      0.00
  -11   13   18     -1.75      0.00
   -8   13   18      3.20      0.00
   -5   13   18     -2.50      0.00
   -2   13   18     -0.26      0.00
  -13   14   18     -0.30      0.00
  -10   14   18      2.56      0.00
   -7   14   18      3.29      0.00
   -4   14   18     -1.12      0.00
   -1   14   18     -0.65      0.00
  -15   15   18     -0.40      0.00
  -12   15   18      0.63      0.00
   -9   15   18      1.70      0.00
   -6   15   18     -2.31      0.00
   -3   15   18      3.38      0.00
    0   15   18      7.44      0.00
  -14   16   18     -0.10      0.00
  -11   16   18     -5.74      0.00
   -8   16   18      0.07      0.00
   -5   16   18     -0.76      0.00
   -2   16   18      5.72      0.00
  -16   17   18     -4.92      0.00
  -13   17   18     -4.09      0.00
  -10   17   18     -2.55      0.00
   -7   17   18     -0.58      0.00
   -4   17   18     -2.42      0.00
   -1   17   18      8.42      0.00
  -18   18   18      3.93      0.00
  -15   18   18     -2.91      0.00
  -12   18   18     -9.74      0.00
   -9   18   18      0.41      0.00
   -6   18   18     -3.58      0.00
   -3   18   18      2.64      0.00
    0   18   18     -2.77      0.00
  -17   19   18      0.91      0.00
  -14   19   18     -1.87      0.00
  -11   19   18     -0.69      0.00
   -8   19   18     -6.12      0.00
   -5   19   18     -6.81      0.00
   -2   19   18      3.45      0.00
  -16   20   18     -1.24      0.00
  -13   20   18      1.86      0.00
  -10   20   18     -0.45      0.00
   -7   20   18     -5.09      0.00
   -4   20   18      5.19      0.00
  -15   21   18      1.30      0.00
  -12   21   18      3.66      0.00
   -9   21   18     -3.77      0.00
   -6   21   18     -0.36      0.00
  -14   22   18      1.09      0.00
  -11   22   18      2.35      0.00
   -8   22   18      0.37      0.00
   -1    1   19    -13.88      0.00
    0    2   19      7.45      0.00
   -2    3   19     -0.19      0.00
   -4    4   19      0.11      0.00
   -1    4   19      1.02      0.00
   -3    5   19     -4.17      0.00
    0    5   19     -3.25      0.00
   -5    6   19     -2.10      0.00
   -2    6   19     -4.12      0.00
   -7    7   19      5.49      0.00
   -4    7   19     -1.21      0.00
   -1    7   19      0.49      0.00
   -6    8   19      1.77      0.00
   -3    8   19     -4.95      0.00
    0    8   19      0.20      0.00
   -8    9   19     -2.62      0.00
   -5    9   19     -3.76      0.00
   -2    9   19     -0.13      0.00
  -10   10   19      0.35      0.00
   -7   10   19     -0.77      0.00
   -4   10   19     -3.85      0.00
   -1   10   19      0.06      0.00
   -9   11   19     -0.23      0.00
   -6   11   19      0.41      0.00
   -3   11   19     -4.01      0.00
    0   11   19      3.78      0.00
  -11   12   19     -4.87      0.00
   -8   12   19      1.30      0.00
   -5   12   19      2.24      0.00
   -2   12   19     -4.18      0.00
  -13   13   19     -1.21      0.00
  -10   13   19     -0.51      0.00
   -7   13   19     -1.59      0.00
   -4   13   19      1.59      0.00
   -1   13   19      1.63      0.00
  -12   14   19     -4.66      0.00
   -9   14   19      0.36      0.00
   -6   14   19     -1.61      0.00
   -3   14   19     -0.15      0.00
    0   14   19     -0.75      0.00
  -14   15   19      1.79      0.00
  -11   15   19     -0.02      0.00
   -8   15   19      1.65      0.00
   -5   15   19      1.05      0.00
   -2   15   19     -3.75      0.00
  -16   16   19      2.81      0.00
  -13   16   19     -4.48      0.00
  -10   16   19      1.44      0.00
   -7   16   19      3.10      0.00
   -4   16   19      0.64      0.00
   -1   16   19     -2.76      0.00
  -15   17   19      5.11      0.00
  -12   17   19     -0.27      0.00
   -9   17   19     -4.63      0.00
   -6   17   19     -1.49      0.00
   -3   17   19      3.55      0.00
    0   17   19      1.44      0.00
  -17   18   19     10.85      0.00
  -14   18   19     -2.65      0.00
  -11   18   19      2.62      0.00
   -8   18   19     -2.56      0.00
   -5   18   19      3.18      0.00
   -2   18   19     -2.26      0.00
  -19   19   19      3.90      0.00
  -16   19   19     -0.56      0.00
  -13   19   19     -7.11      0.00
  -10   19   19      3.93      0.00
   -7   19   19      3.35      0.00
   -4   19   19     -4.92      0.00
   -1   19   19      6.56      0.00
  -18   20   19     -2.20      0.00
  -15   20   19     -3.31      0.00
  -12   20   19     -6.29      0.00
   -9   20   19      4.11      0.00
   -6   20   19     -2.85      0.00
   -3   20   19     -3.38      0.00
  -17   21   19     -4.67      0.00
  -14   21   19     -5.24      0.00
  -11   21   19      1.73      0.00
   -8   21   19      0.47      0.00
   -5   21   19     -6.43      0.00
  -13   22   19     -4.85      0.00
  -10   22   19     -0.99      0.00
    0    1   20     -9.66      0.00
   -2    2   20     -8.98      0.00
   -1    3   20     -0.19      0.00
   -3    4   20      1.51      0.00
    0    4   20      1.25      0.00
   -5    5   20      1.07      0.00
   -2    5   20     -6.97      0.00
   -4    6   20      4.61      0.00
   -1    6   20     -2.76      0.00
   -6    7   20      0.36      0.00
   -3    7   20     -1.58      0.00
    0    7   20      6.21      0.00
   -8    8   20      3.96      0.00
   -5    8   20      5.24      0.00
   -2    8   20      0.20      0.00
   -7    9   20      1.97      0.00
   -4    9   20      4.64      0.00
   -1    9   20      0.54      0.00
   -9   10   20     -1.26      0.00
   -6   10   20      1.88      0.00
   -3   10   20     -1.06      0.00
    0   10   20      2.97      0.00
  -11   11   20      2.71      0.00
   -8   11   20      7.12      0.00
   -5   11   20      5.64      0.00
   -2   11   20     -2.56      0.00
  -10   12   20     -1.38      0.00
   -7   12   20     -0.22      0.00
   -4   12   20      0.80      0.00
   -1   12   20      0.29      0.00
  -12   13   20      1.37      0.00
   -9   13   20      0.99      0.00
   -6   13   20     -2.22      0.00
   -3   13   20     -4.72      0.00
    0   13   20      3.86      0.00
  -14   14   20     -1.49      0.00
  -11   14   20     -1.48      0.00
   -8   14   20      4.48      0.00
   -5   14   20     -4.85      0.00
   -2   14   20      3.30      0.00
  -13   15   20     -5.11      0.00
  -10   15   20     -3.93      0.00
   -7   15   20      2.29      0.00
   -4   15   20     -0.93      0.00
   -1   15   20      1.99      0.00
  -15   16   20     -0.08      0.00
  -12   16   20     -1.43      0.00
   -9   16   20     -3.65      0.00
   -6   16   20      1.44      0.00
   -3   16   20      6.32      0.00
    0   16   20     10.46      0.00
  -17   17   20     -0.64      0.00
  -14   17   20      3.19      0.00
  -11   17   20     -3.58      0.00
   -8   17   20      0.24      0.00
   -5   17   20      0.83      0.00
   -2   17   20      8.34      0.00
  -16   18   20     -0.15      0.00
  -13   18   20     -1.16      0.00
  -10   18   20     -2.68      0.00
   -7   18   20      0.51      0.00
   -4   18   20     -5.25      0.00
   -1   18   20      5.16      0.00
  -18   19   20      3.47      0.00
  -15   19   20      4.09      0.00
  -12   19   20     -0.91      0.00
   -9   19   20     -4.54      0.00
   -6   19   20     -2.13      0.00
   -3   19   20      2.57      0.00
    0   19   20      1.46      0.00
  -17   20   20      3.79      0.00
  -14   20   20      2.75      0.00
  -11   20   20      0.66      0.00
   -8   20   20     -5.57      0.00
   -5   20   20     -3.34      0.00
   -2   20   20      3.72      0.00
  -16   21   20      3.03      0.00
  -13   21   20      6.86      0.00
  -10   21   20      0.16      0.00
   -7   21   20      3.54      0.00
  -12   22   20      3.79      0.00
    0    0   21     -2.08      0.00
   -1    2   21      3.38      0.00
   -3    3   21      3.54      0.00
    0    3   21      8.79      0.00
   -2    4   21      0.12      0.00
   -4    5   21      1.90      0.00
   -1    5   21      1.06      0.00
   -6    6   21     -7.52      0.00
   -3    6   21      0.50      0.00
    0    6   21      3.77      0.00
   -5    7   21      2.27      0.00
   -2    7   21     -1.89      0.00
   -7    8   21      7.06      0.00
   -4    8   21      4.71      0.00
   -1    8   21      4.32      0.00
   -9    9   21      1.99      0.00
   -6    9   21      0.96      0.00
   -3    9   21      2.60      0.00
    0    9   21     -1.10      0.00
   -8   10   21      0.04      0.00
   -5   10   21      2.03      0.00
   -2   10   21      4.05      0.00
  -10   11   21      6.34      0.00
   -7   11   21      1.33      0.00
   -4   11   21     -4.18      0.00
   -1   11   21      3.53      0.00
  -12   12   21     -1.84      0.00
   -9   12   21      3.24      0.00
   -6   12   21      3.63      0.00
   -3   12   21     -0.18      0.00
    0   12   21      1.95      0.00
  -11   13   21      2.71      0.00
   -8   13   21     -3.80      0.00
   -5   13   21      3.26      0.00
   -2   13   21      0.61      0.00
  -13   14   21      4.03      0.00
  -10   14   21      4.55      0.00
   -7   14   21     -1.18      0.00
   -4   14   21      2.57      0.00
   -1   14   21     -0.80      0.00
  -15   15   21     -0.61      0.00
  -12   15   21      2.33      0.00
   -9   15   21      4.26      0.00
   -6   15   21      3.77      0.00
   -3   15   21     -4.57      0.00
    0   15   21      1.79      0.00
  -14   16   21      1.78      0.00
  -11   16   21      2.14      0.00
   -8   16   21      1.66      0.00
   -5   16   21     -2.20      0.00
   -2   16   21     -2.89      0.00
  -16   17   21     -0.39      0.00
  -13   17   21     -4.78      0.00
  -10   17   21      0.23      0.00
   -7   17   21     -1.31      0.00
   -4   17   21      3.26      0.00
   -1   17   21     -2.08      0.00
  -18   18   21      9.49      0.00
  -15   18   21     -3.39      0.00
  -12   18   21     -2.27      0.00
   -9   18   21      1.18      0.00
   -6   18   21     -2.13      0.00
   -3   18   21      1.32      0.00
    0   18   21      0.48      0.00
  -17   19   21      4.63      0.00
  -14   19   21     -5.91      0.00
  -11   19   21      2.97      0.00
   -8   19   21      0.79      0.00
   -5   19   21     -0.24      0.00
   -2   19   21     -2.29      0.00
  -16   20   21     -1.97      0.00
  -13   20   21     -7.71      0.00
  -10   20   21      6.69      0.00
   -7   20   21     -3.23      0.00
   -4   20   21      0.08      0.00
  -15   21   21     -4.22      0.00
  -12   21   21     -3.51      0.00
   -9   21   21      0.25      0.00
   -6   21   21     -6.82      0.00
   -1    1   22     -5.28      0.00
    0    2   22      6.87      0.00
   -2    3   22      1.54      0.00
   -4    4   22      9.30      0.00
   -1    4   22      1.18      0.00
   -3    5   22     -0.47      0.00
    0    5   22      7.43      0.00
   -5    6   22     -0.38      0.00
   -2    6   22     -3.53      0.00
   -7    7   22     -0.95      0.00
   -4    7   22     11.33      0.00
   -1    7   22      6.56      0.00
   -6    8   22      2.36      0.00
   -3    8   22      2.16      0.00
    0    8   22     -0.02      0.00
   -8    9   22      1.09      0.00
   -5    9   22      2.77      0.00
   -2    9   22      1.35      0.00
  -10   10   22      3.56      0.00
   -7   10   22      4.29      0.00
   -4   10   22      0.79      0.00
   -1   10   22     -1.15      0.00
   -9   11   22      3.45      0.00
   -6   11   22      4.40      0.00
   -3   11   22     -4.01      0.00
    0   11   22      0.67      0.00
  -11   12   22      6.31      0.00
   -8   12   22      2.27      0.00
   -5   12   22     -1.93      0.00
   -2   12   22     -0.50      0.00
  -13   13   22      4.44      0.00
  -10   13   22     -1.43      0.00
   -7   13   22     -0.60      0.00
   -4   13   22      0.14      0.00
   -1   13   22      9.24      0.00
  -12   14   22      0.44      0.00
   -9   14   22      0.73      0.00
   -6   14   22     -1.63      0.00
   -3   14   22      0.82      0.00
    0   14   22     -3.34      0.00
  -14   15   22      1.98      0.00
  -11   15   22     -0.27      0.00
   -8   15   22      3.56      0.00
   -5   15   22      3.34      0.00
   -2   15   22      4.24      0.00
  -16   16   22      6.27      0.00
  -13   16   22      1.13      0.00
  -10   16   22     -4.93      0.00
   -7   16   22      3.59      0.00
   -4   16   22      5.85      0.00
   -1   16   22     -0.78      0.00
  -15   17   22      4.84      0.00
  -12   17   22     -1.10      0.00
   -9   17   22     -1.46      0.00
   -6   17   22      3.07      0.00
   -3   17   22      3.18      0.00
    0   17   22      6.56      0.00
  -17   18   22      4.86      0.00
  -14   18   22      1.50      0.00
  -11   18   22      0.83      0.00
   -8   18   22      0.52      0.00
   -5   18   22     -1.58      0.00
   -2   18   22      3.57      0.00
  -16   19   22      1.04      0.00
  -13   19   22     -6.20      0.00
  -10   19   22     -3.79      0.00
   -7   19   22     -1.19      0.00
   -4   19   22     -7.04      0.00
   -1   19   22      3.77      0.00
  -15   20   22      0.56      0.00
  -12   20   22      2.85      0.00
   -9   20   22     -5.76      0.00
   -6   20   22      2.11      0.00
   -3   20   22     -0.16      0.00
  -14   21   22     -0.80      0.00
  -11   21   22     -1.00      0.00
   -8   21   22     -2.72      0.00
    0    1   23      1.35      0.00
   -2    2   23     -7.31      0.00
   -1    3   23      3.10      0.00
   -3    4   23     -0.16      0.00
    0    4   23      4.00      0.00
   -5    5   23      1.22      0.00
   -2    5   23     -4.05      0.00
   -4    6   23     -1.11      0.00
   -1    6   23      2.91      0.00
   -6    7   23     -7.30      0.00
   -3    7   23      0.85      0.00
    0    7   23      2.23      0.00
   -8    8   23      6.26      0.00
   -5    8   23      0.72      0.00
   -2    8   23      2.21      0.00
   -7    9   23      4.20      0.00
   -4    9   23      3.66      0.00
   -1    9   23      2.69      0.00
   -9   10   23     -4.01      0.00
   -6   10   23     -1.98      0.00
   -3   10   23      2.15      0.00
    0   10   23     -0.30      0.00
  -11   11   23     -0.23      0.00
   -8   11   23      0.33      0.00
   -5   11   23     -0.10      0.00
   -2   11   23      4.26      0.00
  -10   12   23      2.93      0.00
   -7   12   23     -1.25      0.00
   -4   12   23     -2.88      0.00
   -1   12   23     -0.85      0.00
  -12   13   23      0.39      0.00
   -9   13   23     -1.78      0.00
   -6   13   23      0.67      0.00
   -3   13   23     -2.72      0.00
    0   13   23      0.17      0.00
  -14   14   23      0.85      0.00
  -11   14   23      2.00      0.00
   -8   14   23     -0.62      0.00
   -5   14   23      0.95      0.00
   -2   14   23      0.20      0.00
  -13   15   23      1.27      0.00
  -10   15   23      3.71      0.00
   -7   15   23     -0.98      0.00
   -4   15   23     -7.87      0.00
   -1   15   23     -0.55      0.00
  -15   16   23     -2.07      0.00
  -12   16   23      0.39      0.00
   -9   16   23     -1.25      0.00
   -6   16   23     -0.57      0.00
   -3   16   23     -3.32      0.00
    0   16   23     -3.70      0.00
  -17   17   23     -3.33      0.00
  -14   17   23      0.40      0.00
  -11   17   23     -0.67      0.00
   -8   17   23     -0.34      0.00
   -5   17   23     -0.78      0.00
   -2   17   23     -4.86      0.00
  -16   18   23     -1.36      0.00
  -13   18   23     -1.12      0.00
  -10   18   23     -1.14      0.00
   -7   18   23     -0.92      0.00
   -4   18   23      1.19      0.00
   -1   18   23     -9.79      0.00
  -15   19   23      0.73      0.00
  -12   19   23     -0.43      0.00
   -9   19   23      0.44      0.00
   -6   19   23     -0.73      0.00
   -3   19   23     -1.69      0.00
  -14   20   23     -6.24      0.00
  -11   20   23      0.35      0.00
   -8   20   23     -2.41      0.00
   -5   20   23     -1.40      0.00
  -13   21   23     -4.83      0.00
  -10   21   23      2.37      0.00
    0    0   24      3.36      0.00
   -1    2   24     -1.95      0.00
   -3    3   24      0.99      0.00
    0    3   24      5.13      0.00
   -2    4   24      1.36      0.00
   -4    5   24     -3.70      0.00
   -1    5   24      0.69      0.00
   -6    6   24     -1.11      0.00
   -3    6   24     -0.73      0.00
    0    6   24      7.79      0.00
   -5    7   24      4.51      0.00
   -2    7   24     -2.35      0.00
   -7    8   24      2.89      0.00
   -4    8   24      2.92      0.00
   -1    8   24      0.65      0.00
   -9    9   24      2.69      0.00
   -6    9   24     -2.26      0.00
   -3    9   24     -3.63      0.00
    0    9   24     -3.16      0.00
   -8   10   24      1.26      0.00
   -5   10   24     -0.24      0.00
   -2   10   24     -1.60      0.00
  -10   11   24      5.47      0.00
   -7   11   24     -1.13      0.00
   -4   11   24     -7.34      0.00
   -1   11   24      1.57      0.00
  -12   12   24      0.12      0.00
   -9   12   24     -1.86      0.00
   -6   12   24     -2.55      0.00
   -3   12   24      4.16      0.00
    0   12   24      4.22      0.00
  -11   13   24      0.46      0.00
   -8   13   24     -2.17      0.00
   -5   13   24      1.01      0.00
   -2   13   24      4.10      0.00
  -13   14   24     -1.49      0.00
  -10   14   24      1.37      0.00
   -7   14   24      1.53      0.00
   -4   14   24      3.04      0.00
   -1   14   24      1.46      0.00
  -15   15   24      1.57      0.00
  -12   15   24      3.11      0.00
   -9   15   24      2.33      0.00
   -6   15   24      2.51      0.00
   -3   15   24     -1.99      0.00
    0   15   24     -5.66      0.00
  -14   16   24     -1.38      0.00
  -11   16   24     -0.54      0.00
   -8   16   24      2.57      0.00
   -5   16   24      4.12      0.00
   -2   16   24      1.48      0.00
  -16   17   24      1.66      0.00
  -13   17   24     -2.88      0.00
  -10   17   24     -0.72      0.00
   -7   17   24      0.16      0.00
   -4   17   24      0.93      0.00
   -1   17   24      6.33      0.00
  -18   18   24      6.93      0.00
  -15   18   24     -2.85      0.00
  -12   18   24     -3.32      0.00
   -9   18   24      0.13      0.00
   -6   18   24     -4.15      0.00
   -3   18   24      3.46      0.00
    0   18   24      1.63      0.00
  -17   19   24      2.15      0.00
  -14   19   24     -5.86      0.00
  -11   19   24      2.70      0.00
   -8   19   24      2.02      0.00
   -5   19   24      0.64      0.00
   -2   19   24      2.00      0.00
  -13   20   24     -4.18      0.00
  -10   20   24     -3.64      0.00
   -7   20   24     -1.63      0.00
  -12   21   24      3.70      0.00
   -9   21   24      1.29      0.00
   -1    1   25      0.96      0.00
    0    2   25      2.04      0.00
   -2    3   25      0.63      0.00
   -4    4   25      5.04      0.00
   -1    4   25      2.71      0.00
   -3    5   25     -1.92      0.00
    0    5   25      7.22      0.00
   -5    6   25      0.69      0.00
   -2    6   25      2.03      0.00
   -7    7   25    -10.94      0.00
   -4    7   25      4.08      0.00
   -1    7   25     -0.50      0.00
   -6    8   25     -3.09      0.00
   -3    8   25      2.26      0.00
    0    8   25     -1.92      0.00
   -8    9   25      4.08      0.00
   -5    9   25     -1.48      0.00
   -2    9   25      3.20      0.00
  -10   10   25     -3.26      0.00
   -7   10   25     -0.64      0.00
   -4   10   25      2.97      0.00
   -1   10   25      2.11      0.00
   -9   11   25     -0.31      0.00
   -6   11   25     -2.75      0.00
   -3   11   25      1.56      0.00
    0   11   25     -0.66      0.00
  -11   12   25      3.90      0.00
   -8   12   25     -3.29      0.00
   -5   12   25     -4.90      0.00
   -2   12   25      3.18      0.00
  -13   13   25      3.06      0.00
  -10   13   25     -1.56      0.00
   -7   13   25     -0.78      0.00
   -4   13   25      0.78      0.00
   -1   13   25      6.26      0.00
  -12   14   25      2.01      0.00
   -9   14   25     -2.66      0.00
   -6   14   25      0.50      0.00
   -3   14   25     -0.48      0.00
    0   14   25     -3.03      0.00
  -14   15   25      1.44      0.00
  -11   15   25      2.28      0.00
   -8   15   25     -2.51      0.00
   -5   15   25     -2.61      0.00
   -2   15   25      4.17      0.00
  -16   16   25     -1.75      0.00
  -13   16   25      2.36      0.00
  -10   16   25     -4.43      0.00
   -7   16   25     -0.67      0.00
   -4   16   25     -0.91      0.00
   -1   16   25     -6.98      0.00
  -15   17   25      0.96      0.00
  -12   17   25      0.69      0.00
   -9   17   25     -4.80      0.00
   -6   17   25      0.67      0.00
   -3   17   25     -2.35      0.00
    0   17   25     -8.16      0.00
  -17   18   25     -6.61      0.00
  -14   18   25      3.90      0.00
  -11   18   25     -0.23      0.00
   -8   18   25     -1.16      0.00
   -5   18   25      3.59      0.00
   -2   18   25     -3.68      0.00
  -16   19   25      1.31      0.00
  -13   19   25     -1.52      0.00
  -10   19   25     -4.31      0.00
   -7   19   25      0.10      0.00
   -4   19   25      0.24      0.00
  -15   20   25     -5.01      0.00
  -12   20   25     -0.53      0.00
   -9   20   25     -2.41      0.00
   -6   20   25      0.48      0.00
    0    1   26      1.60      0.00
   -2    2   26     -5.90      0.00
   -1    3   26      2.07      0.00
   -3    4   26      2.47      0.00
    0    4   26      0.25      0.00
   -5    5   26     -1.69      0.00
   -2    5   26     -1.24      0.00
   -4    6   26     -3.83      0.00
   -1    6   26      1.58      0.00
   -6    7   26      1.52      0.00
   -3    7   26     -1.54      0.00
    0    7   26      1.32      0.00
   -8    8   26     -2.97      0.00
   -5    8   26      1.48      0.00
   -2    8   26     -0.99      0.00
   -7    9   26      0.40      0.00
   -4    9   26     -3.50      0.00
   -1    9   26     -0.73      0.00
   -9   10   26     -1.88      0.00
   -6   10   26      0.35      0.00
   -3   10   26     -5.60      0.00
    0   10   26     -2.75      0.00
  -11   11   26     -3.17      0.00
   -8   11   26     -2.52      0.00
   -5   11   26     -2.22      0.00
   -2   11   26      0.83      0.00
  -10   12   26     -4.57      0.00
   -7   12   26      0.57      0.00
   -4   12   26     -1.55      0.00
   -1   12   26     -1.15      0.00
  -12   13   26     -3.70      0.00
   -9   13   26     -1.18      0.00
   -6   13   26      0.26      0.00
   -3   13   26      1.24      0.00
    0   13   26      2.39      0.00
  -14   14   26     -0.67      0.00
  -11   14   26      1.91      0.00
   -8   14   26      4.70      0.00
   -5   14   26      1.06      0.00
   -2   14   26     -2.61      0.00
  -13   15   26     -2.08      0.00
  -10   15   26      0.05      0.00
   -7   15   26      0.75      0.00
   -4   15   26      0.22      0.00
   -1   15   26      1.45      0.00
  -15   16   26     -2.47      0.00
  -12   16   26      0.11      0.00
   -9   16   26      3.63      0.00
   -6   16   26      2.13      0.00
   -3   16   26     -7.31      0.00
    0   16   26     -0.21      0.00
  -17   17   26     -2.82      0.00
  -14   17   26     -6.73      0.00
  -11   17   26     -2.62      0.00
   -8   17   26      3.58      0.00
   -5   17   26     -2.52      0.00
   -2   17   26      3.81      0.00
  -16   18   26     -3.25      0.00
  -13   18   26     -5.02      0.00
  -10   18   26      2.61      0.00
   -7   18   26      1.46      0.00
   -4   18   26      2.10      0.00
   -1   18   26     -4.57      0.00
  -15   19   26     -1.46      0.00
  -12   19   26     -2.53      0.00
   -9   19   26      3.09      0.00
   -6   19   26     -1.07      0.00
   -3   19   26      0.63      0.00
  -11   20   26     -0.61      0.00
   -8   20   26      7.22      0.00
    0    0   27      8.24      0.00
   -1    2   27     -1.83      0.00
   -3    3   27     -0.11      0.00
    0    3   27     -0.34      0.00
   -2    4   27      1.08      0.00
   -4    5   27     -3.07      0.00
   -1    5   27      0.77      0.00
   -6    6   27      1.39      0.00
   -3    6   27     -5.51      0.00
    0    6   27     -4.06      0.00
   -5    7   27     -1.22      0.00
   -2    7   27     -1.15      0.00
   -7    8   27     -4.38      0.00
   -4    8   27     -4.53      0.00
   -1    8   27     -2.77      0.00
   -9    9   27      3.98      0.00
   -6    9   27     -5.32      0.00
   -3    9   27     -0.91      0.00
    0    9   27      2.36      0.00
   -8   10   27      2.30      0.00
   -5   10   27      0.26      0.00
   -2   10   27      4.00      0.00
  -10   11   27      2.40      0.00
   -7   11   27     -5.24      0.00
   -4   11   27     -1.08      0.00
   -1   11   27      0.28      0.00
  -12   12   27      2.32      0.00
   -9   12   27     -0.98      0.00
   -6   12   27     -4.79      0.00
   -3   12   27      4.22      0.00
    0   12   27      0.37      0.00
  -11   13   27      2.52      0.00
   -8   13   27      0.03      0.00
   -5   13   27      1.04      0.00
   -2   13   27      0.80      0.00
  -13   14   27      0.05      0.00
  -10   14   27      2.32      0.00
   -7   14   27      1.62      0.00
   -4   14   27     -2.16      0.00
   -1   14   27      0.79      0.00
  -15   15   27      1.36      0.00
  -12   15   27      2.95      0.00
   -9   15   27     -1.07      0.00
   -6   15   27     -2.03      0.00
   -3   15   27      3.22      0.00
    0   15   27     -9.75      0.00
  -14   16   27     -0.03      0.00
  -11   16   27     -0.32      0.00
   -8   16   27     -3.38      0.00
   -5   16   27     -2.81      0.00
   -2   16   27      0.46      0.00
  -16   17   27     -2.29      0.00
  -13   17   27     -3.25      0.00
  -10   17   27     -4.97      0.00
   -7   17   27     -0.36      0.00
   -4   17   27      1.46      0.00
   -1   17   27      4.44      0.00
  -15   18   27      0.62      0.00
  -12   18   27     -2.44      0.00
   -9   18   27     -7.46      0.00
   -6   18   27     -0.40      0.00
   -3   18   27      3.01      0.00
  -14   19   27     -5.21      0.00
  -11   19   27     -0.34      0.00
   -8   19   27     -1.16      0.00
   -5   19   27      1.27      0.00
  -10   20   27     -2.57      0.00
   -1    1   28      0.27      0.00
    0    2   28     -2.40      0.00
   -2    3   28     -0.98      0.00
   -4    4   28      2.99      0.00
   -1    4   28      1.24      0.00
   -3    5   28      1.38      0.00
    0    5   28     -1.12      0.00
   -5    6   28      0.20      0.00
   -2    6   28     -0.01      0.00
   -7    7   28     -5.16      0.00
   -4    7   28     -1.07      0.00
   -1    7   28     -0.42      0.00
   -6    8   28      1.45      0.00
   -3    8   28     -0.53      0.00
    0    8   28     -4.98      0.00
   -8    9   28     -4.07      0.00
   -5    9   28     -0.25      0.00
   -2    9   28      0.79      0.00
  -10   10   28     -0.54      0.00
   -7   10   28     -2.56      0.00
   -4   10   28     -3.16      0.00
   -1   10   28     -1.08      0.00
   -9   11   28     -5.29      0.00
   -6   11   28     -0.48      0.00
   -3   11   28      1.11      0.00
    0   11   28      0.92      0.00
  -11   12   28     -6.21      0.00
   -8   12   28      0.08      0.00
   -5   12   28     -1.08      0.00
   -2   12   28      2.47      0.00
  -13   13   28     -0.56      0.00
  -10   13   28     -3.27      0.00
   -7   13   28      3.13      0.00
   -4   13   28      1.83      0.00
   -1   13   28      1.86      0.00
  -12   14   28     -0.45      0.00
   -9   14   28     -0.76      0.00
   -6   14   28     -0.96      0.00
   -3   14   28      1.76      0.00
    0   14   28     10.74      0.00
  -14   15   28     -0.19      0.00
  -11   15   28      0.52      0.00
   -8   15   28      2.42      0.00
   -5   15   28      1.82      0.00
   -2   15   28     -2.70      0.00
  -16   16   28     -4.16      0.00
  -13   16   28     -2.81      0.00
  -10   16   28     -6.03      0.00
   -7   16   28     -1.71      0.00
   -4   16   28     -2.42      0.00
   -1   16   28      6.37      0.00
  -15   17   28     -2.04      0.00
  -12   17   28      2.44      0.00
   -9   17   28      0.72      0.00
   -6   17   28     -3.14      0.00
   -3   17   28     -2.22      0.00
    0   17   28     -7.98      0.00
  -14   18   28      0.43      0.00
  -11   18   28     -1.93      0.00
   -8   18   28      3.24      0.00
   -5   18   28      0.86      0.00
   -2   18   28      1.38      0.00
  -13   19   28     -1.56      0.00
  -10   19   28     -0.43      0.00
   -7   19   28      5.04      0.00
    0    1   29      7.91      0.00
   -2    2   29      4.19      0.00
   -1    3   29      2.37      0.00
   -3    4   29      3.19      0.00
    0    4   29      2.25      0.00
   -5    5   29     -0.29      0.00
   -2    5   29      1.20      0.00
   -4    6   29     -3.66      0.00
   -1    6   29      2.29      0.00
   -6    7   29     -0.88      0.00
   -3    7   29     -0.29      0.00
    0    7   29     -1.41      0.00
   -8    8   29     -5.85      0.00
   -5    8   29     -2.52      0.00
   -2    8   29      1.55      0.00
   -7    9   29     -0.77      0.00
   -4    9   29      0.11      0.00
   -1    9   29      4.61      0.00
   -9   10   29      3.79      0.00
   -6   10   29      3.25      0.00
   -3   10   29     -1.23      0.00
    0   10   29     -2.84      0.00
  -11   11   29      0.69      0.00
   -8   11   29     -1.79      0.00
   -5   11   29      3.07      0.00
   -2   11   29      1.15      0.00
  -10   12   29      1.22      0.00
   -7   12   29     -1.49      0.00
   -4   12   29     -1.43      0.00
   -1   12   29      0.05      0.00
  -12   13   29      4.96      0.00
   -9   13   29     -0.45      0.00
   -6   13   29      0.33      0.00
   -3   13   29     -1.30      0.00
    0   13   29      4.37      0.00
  -14   14   29      4.20      0.00
  -11   14   29      3.64      0.00
   -8   14   29      1.56      0.00
   -5   14   29      1.29      0.00
   -2   14   29      2.04      0.00
  -13   15   29      3.06      0.00
  -10   15   29      1.29      0.00
   -7   15   29     -0.51      0.00
   -4   15   29     -0.17      0.00
   -1   15   29     -5.36      0.00
  -15   16   29     -0.20      0.00
  -12   16   29      1.82      0.00
   -9   16   29      2.18      0.00
   -6   16   29      0.08      0.00
   -3   16   29     -1.70      0.00
    0   16   29     -2.93      0.00
  -14   17   29     -4.69      0.00
  -11   17   29      0.48      0.00
   -8   17   29     -1.43      0.00
   -5   17   29     -3.59      0.00
   -2   17   29      1.36      0.00
  -13   18   29     -5.52      0.00
  -10   18   29     -0.93      0.00
   -7   18   29      3.43      0.00
   -4   18   29      1.64      0.00
  -12   19   29      1.77      0.00
   -9   19   29     -1.56      0.00
   -6   19   29     -1.88      0.00
    0    0   30      7.96      0.00
   -1    2   30      1.77      0.00
   -3    3   30      0.64      0.00
    0    3   30      1.73      0.00
   -2    4   30      3.88      0.00
   -4    5   30      2.48      0.00
   -1    5   30     -1.19      0.00
   -6    6   30      1.77      0.00
   -3    6   30     -2.74      0.00
    0    6   30     -0.15      0.00
   -5    7   30      0.19      0.00
   -2    7   30      4.04      0.00
   -7    8   30     -1.44      0.00
   -4    8   30     -0.11      0.00
   -1    8   30     -1.58      0.00
   -9    9   30     -0.65      0.00
   -6    9   30      4.04      0.00
   -3    9   30      1.37      0.00
    0    9   30     -2.55      0.00
   -8   10   30     -4.48      0.00
   -5   10   30      0.33      0.00
   -2   10   30      7.66      0.00
  -10   11   30     -0.40      0.00
   -7   11   30      0.39      0.00
   -4   11   30      2.84      0.00
   -1   11   30     -2.09      0.00
  -12   12   30     -5.46      0.00
   -9   12   30     -0.03      0.00
   -6   12   30      0.19      0.00
   -3   12   30      0.96      0.00
    0   12   30     -6.30      0.00
  -11   13   30     -1.78      0.00
   -8   13   30      8.43      0.00
   -5   13   30     -0.15      0.00
   -2   13   30     -4.55      0.00
  -13   14   30     -0.77      0.00
  -10   14   30      2.26      0.00
   -7   14   30      2.65      0.00
   -4   14   30      1.08      0.00
   -1   14   30     -2.85      0.00
  -15   15   30     -1.55      0.00
  -12   15   30     -1.98      0.00
   -9   15   30      0.40      0.00
   -6   15   30     -2.42      0.00
   -3   15   30      1.41      0.00
    0   15   30     12.03      0.00
  -14   16   30     -0.24      0.00
  -11   16   30     -2.69      0.00
   -8   16   30      2.55      0.00
   -5   16   30      0.25      0.00
   -2   16   30     -0.35      0.00
  -16   17   30     -1.47      0.00
  -13   17   30     -4.94      0.00
  -10   17   30     -5.95      0.00
   -7   17   30     -0.23      0.00
   -4   17   30     -0.48      0.00
   -1   17   30      5.20      0.00
  -12   18   30     -1.96      0.00
   -9   18   30      2.01      0.00
   -6   18   30     -2.31      0.00
  -11   19   30      0.68      0.00
   -8   19   30      6.35      0.00
   -1    1   31      3.39      0.00
    0    2   31     -4.64      0.00
   -2    3   31      0.21      0.00
   -4    4   31     -1.08      0.00
   -1    4   31      0.78      0.00
   -3    5   31      1.71      0.00
    0    5   31     -3.50      0.00
   -5    6   31      1.45      0.00
   -2    6   31     -0.20      0.00
   -7    7   31     -4.31      0.00
   -4    7   31     -1.41      0.00
   -1    7   31      1.20      0.00
   -6    8   31     -2.41      0.00
   -3    8   31      2.39      0.00
    0    8   31      2.81      0.00
   -8    9   31      0.85      0.00
   -5    9   31      1.28      0.00
   -2    9   31     -1.02      0.00
  -10   10   31      3.42      0.00
   -7   10   31      0.28      0.00
   -4   10   31      2.28      0.00
   -1   10   31     -0.40      0.00
   -9   11   31      3.46      0.00
   -6   11   31      2.67      0.00
   -3   11   31      0.09      0.00
    0   11   31      1.26      0.00
  -11   12   31      0.59      0.00
   -8   12   31     -1.09      0.00
   -5   12   31      3.06      0.00
   -2   12   31      4.44      0.00
  -13   13   31     10.32      0.00
  -10   13   31     -1.44      0.00
   -7   13   31     -1.86      0.00
   -4   13   31      0.49      0.00
   -1   13   31      7.82      0.00
  -12   14   31      3.28      0.00
   -9   14   31     -0.99      0.00
   -6   14   31      2.56      0.00
   -3   14   31      0.77      0.00
    0   14   31      7.96      0.00
  -14   15   31      3.97      0.00
  -11   15   31      4.47      0.00
   -8   15   31     -0.07      0.00
   -5   15   31      0.63      0.00
   -2   15   31     -2.15      0.00
  -16   16   31      1.47      0.00
  -13   16   31      2.27      0.00
  -10   16   31      1.70      0.00
   -7   16   31     -7.69      0.00
   -4   16   31     -7.44      0.00
   -1   16   31     -0.58      0.00
  -15   17   31     -5.44      0.00
  -12   17   31      8.03      0.00
   -9   17   31     -4.29      0.00
   -6   17   31     -2.25      0.00
   -3   17   31     -0.97      0.00
  -11   18   31      2.58      0.00
   -8   18   31     -1.67      0.00
   -5   18   31     -0.30      0.00
    0    1   32      2.10      0.00
   -2    2   32      4.30      0.00
   -1    3   32      0.80      0.00
   -3    4   32      0.64      0.00
    0    4   32      1.82      0.00
   -5    5   32     -1.35      0.00
   -2    5   32     -0.13      0.00
   -4    6   32     -1.78      0.00
   -1    6   32      3.14      0.00
   -6    7   32     -0.68      0.00
   -3    7   32      1.63      0.00
    0    7   32     -5.47      0.00
   -8    8   32     -0.50      0.00
   -5    8   32      1.13      0.00
   -2    8   32     -1.82      0.00
   -7    9   32      1.63      0.00
   -4    9   32      0.77      0.00
   -1    9   32     -0.42      0.00
   -9   10   32     -0.96      0.00
   -6   10   32      5.68      0.00
   -3   10   32      4.28      0.00
    0   10   32     -6.49      0.00
  -11   11   32     -1.22      0.00
   -8   11   32     -5.54      0.00
   -5   11   32      0.31      0.00
   -2   11   32      1.04      0.00
  -10   12   32     -1.83      0.00
   -7   12   32      4.12      0.00
   -4   12   32     -2.85      0.00
   -1   12   32     -2.67      0.00
  -12   13   32     -2.27      0.00
   -9   13   32      1.35      0.00
   -6   13   32     -1.73      0.00
   -3   13   32     -1.70      0.00
    0   13   32     -5.65      0.00
  -14   14   32     -0.70      0.00
  -11   14   32     -0.70      0.00
   -8   14   32      3.94      0.00
   -5   14   32      1.95      0.00
   -2   14   32     -1.90      0.00
  -13   15   32      4.01      0.00
  -10   15   32      0.18      0.00
   -7   15   32      4.83      0.00
   -4   15   32      6.41      0.00
   -1   15   32     -0.31      0.00
  -15   16   32      1.49      0.00
  -12   16   32     -3.76      0.00
   -9   16   32      3.56      0.00
   -6   16   32      2.03      0.00
   -3   16   32      1.30      0.00
  -14   17   32     -0.51      0.00
  -11   17   32     -2.43      0.00
   -8   17   32      4.83      0.00
   -5   17   32     -0.13      0.00
  -10   18   32      3.08      0.00
   -7   18   32      4.10      0.00
    0    0   33      4.97      0.00
   -1    2   33     -0.64      0.00
   -3    3   33     -1.81      0.00
    0    3   33     -0.29      0.00
   -2    4   33     -0.55      0.00
   -4    5   33     -1.04      0.00
   -1    5   33     -5.99      0.00
   -6    6   33      1.22      0.00
   -3    6   33     -0.96      0.00
    0    6   33      2.94      0.00
   -5    7   33      0.03      0.00
   -2    7   33      4.86      0.00
   -7    8   33     -3.91      0.00
   -4    8   33      1.89      0.00
   -1    8   33      2.94      0.00
   -9    9   33      2.81      0.00
   -6    9   33     -1.98      0.00
   -3    9   33     -0.83      0.00
    0    9   33      2.69      0.00
   -8   10   33      1.75      0.00
   -5   10   33     -1.60      0.00
   -2   10   33      0.77      0.00
  -10   11   33      0.82      0.00
   -7   11   33     -3.19      0.00
   -4   11   33      5.29      0.00
   -1   11   33     -1.51      0.00
  -12   12   33      3.60      0.00
   -9   12   33      0.53      0.00
   -6   12   33     -3.20      0.00
   -3   12   33     -0.17      0.00
    0   12   33     -0.20      0.00
  -11   13   33     -5.57      0.00
   -8   13   33     -1.12      0.00
   -5   13   33      0.95      0.00
   -2   13   33      1.35      0.00
  -13   14   33      3.34      0.00
  -10   14   33     -0.06      0.00
   -7   14   33     -3.69      0.00
   -4   14   33     -1.28      0.00
   -1   14   33      2.22      0.00
  -15   15   33      2.82      0.00
  -12   15   33     -0.84      0.00
   -9   15   33     -1.66      0.00
   -6   15   33     -6.04      0.00
   -3   15   33     -4.74      0.00
    0   15   33      4.12      0.00
  -14   16   33     -4.34      0.00
  -11   16   33      2.91      0.00
   -8   16   33     -7.21      0.00
   -5   16   33     -2.49      0.00
   -2   16   33     -3.15      0.00
  -13   17   33      1.44      0.00
  -10   17   33     -4.93      0.00
   -7   17   33     -4.29      0.00
   -4   17   33     -4.53      0.00
   -1    1   34      0.69      0.00
    0    2   34     -6.10      0.00
   -2    3   34      1.99      0.00
   -4    4   34     -0.36      0.00
   -1    4   34      0.52      0.00
   -3    5   34      3.25      0.00
    0    5   34      3.09      0.00
   -5    6   34      2.83      0.00
   -2    6   34      0.16      0.00
   -7    7   34      1.69      0.00
   -4    7   34     -2.08      0.00
   -1    7   34     -1.27      0.00
   -6    8   34      0.05      0.00
   -3    8   34      1.19      0.00
    0    8   34     -1.69      0.00
   -8    9   34      0.66      0.00
   -5    9   34      3.82      0.00
   -2    9   34     -2.49      0.00
  -10   10   34     -3.17      0.00
   -7   10   34      1.90      0.00
   -4   10   34      4.77      0.00
   -1   10   34     -0.96      0.00
   -9   11   34     -4.03      0.00
   -6   11   34      6.70      0.00
   -3   11   34      1.98      0.00
    0   11   34     -0.69      0.00
  -11   12   34     -4.35      0.00
   -8   12   34      2.57      0.00
   -5   12   34     -1.54      0.00
   -2   12   34      1.46      0.00
  -13   13   34     -2.32      0.00
  -10   13   34     -5.28      0.00
   -7   13   34      3.83      0.00
   -4   13   34      0.97      0.00
   -1   13   34     -1.05      0.00
  -12   14   34      0.12      0.00
   -9   14   34      4.60      0.00
   -6   14   34      7.29      0.00
   -3   14   34      2.04      0.00
    0   14   34      1.69      0.00
  -14   15   34      4.07      0.00
  -11   15   34     -1.26      0.00
   -8   15   34      8.70      0.00
   -5   15   34      2.32      0.00
   -2   15   34     -1.49      0.00
  -13   16   34      3.79      0.00
  -10   16   34      2.19      0.00
   -7   16   34      0.59      0.00
   -4   16   34     -1.58      0.00
   -9   17   34      0.26      0.00
   -6   17   34      3.54      0.00
    0    1   35     -1.45      0.00
   -2    2   35      2.70      0.00
   -1    3   35      0.02      0.00
   -3    4   35     -2.15      0.00
    0    4   35     -0.18      0.00
   -5    5   35     -4.02      0.00
   -2    5   35     -1.58      0.00
   -4    6   35      2.36      0.00
   -1    6   35      0.46      0.00
   -6    7   35      2.58      0.00
   -3    7   35      3.76      0.00
    0    7   35      0.08      0.00
   -8    8   35      2.44      0.00
   -5    8   35      0.05      0.00
   -2    8   35     -3.37      0.00
   -7    9   35      0.82      0.00
   -4    9   35     -4.53      0.00
   -1    9   35     -1.60      0.00
   -9   10   35      8.16      0.00
   -6   10   35     -6.55      0.00
   -3   10   35     -1.11      0.00
    0   10   35     -2.50      0.00
  -11   11   35      6.10      0.00
   -8   11   35     -1.48      0.00
   -5   11   35     -3.36      0.00
   -2   11   35     -1.20      0.00
  -10   12   35     -1.71      0.00
   -7   12   35     -5.03      0.00
   -4   12   35      1.95      0.00
   -1   12   35      3.98      0.00
  -12   13   35      0.17      0.00
   -9   13   35      0.38      0.00
   -6   13   35     -4.46      0.00
   -3   13   35      1.56      0.00
    0   13   35      4.79      0.00
  -14   14   35      2.47      0.00
  -11   14   35     -3.39      0.00
   -8   14   35     -7.12      0.00
   -5   14   35     -2.57      0.00
   -2   14   35      2.44      0.00
  -13   15   35      0.11      0.00
  -10   15   35     -0.30      0.00
   -7   15   35     -4.91      0.00
   -4   15   35      0.94      0.00
   -1   15   35      1.52      0.00
  -12   16   35      1.56      0.00
   -9   16   35     -3.98      0.00
   -6   16   35     -2.42      0.00
    0    0   36      0.55      0.00
   -1    2   36     -0.23      0.00
   -3    3   36      0.88      0.00
    0    3   36     -3.22      0.00
   -2    4   36      0.61      0.00
   -4    5   36      2.96      0.00
   -1    5   36     -0.97      0.00
   -6    6   36      4.63      0.00
   -3    6   36     -0.19      0.00
    0    6   36      8.10      0.00
   -5    7   36     -0.48      0.00
   -2    7   36      0.53      0.00
   -7    8   36     -1.74      0.00
   -4    8   36     -0.67      0.00
   -1    8   36     -0.44      0.00
   -9    9   36     -5.75      0.00
   -6    9   36      0.37      0.00
   -3    9   36      0.18      0.00
    0    9   36      7.09      0.00
   -8   10   36     -2.92      0.00
   -5   10   36      4.55      0.00
   -2   10   36      2.28      0.00
  -10   11   36     -8.02      0.00
   -7   11   36      4.41      0.00
   -4   11   36      2.01      0.00
   -1   11   36      0.11      0.00
  -12   12   36     -1.27      0.00
   -9   12   36     -0.45      0.00
   -6   12   36     -1.11      0.00
   -3   12   36     -2.25      0.00
    0   12   36     -2.61      0.00
  -11   13   36     -6.62      0.00
   -8   13   36      8.03      0.00
   -5   13   36      1.28      0.00
   -2   13   36     -0.63      0.00
  -13   14   36      2.14      0.00
  -10   14   36      1.30      0.00
   -7   14   36      4.87      0.00
   -4   14   36      0.72      0.00
   -1   14   36     -1.81      0.00
  -12   15   36      3.13      0.00
   -9   15   36      8.55      0.00
   -6   15   36     -2.52      0.00
   -3   15   36     -1.57      0.00
  -11   16   36     -4.13      0.00
   -8   16   36     -1.74      0.00
   -5   16   36      1.22      0.00
   -1    1   37     -3.03      0.00
    0    2   37     -6.92      0.00
   -2    3   37     -1.69      0.00
   -4    4   37     -4.68      0.00
   -1    4   37     -2.01      0.00
   -3    5   37      2.62      0.00
    0    5   37     -1.00      0.00
   -5    6   37      1.00      0.00
   -2    6   37      0.12      0.00
   -7    7   37      2.23      0.00
   -4    7   37      2.91      0.00
   -1    7   37      0.42      0.00
   -6    8   37      1.93      0.00
   -3    8   37      2.51      0.00
    0    8   37     -1.78      0.00
   -8    9   37      4.83      0.00
   -5    9   37     -2.12      0.00
   -2    9   37     -3.24      0.00
  -10   10   37     14.89      0.00
   -7   10   37     -2.97      0.00
   -4   10   37     -3.12      0.00
   -1   10   37     -2.36      0.00
   -9   11   37      2.21      0.00
   -6   11   37     -4.31      0.00
   -3   11   37      0.12      0.00
    0   11   37      1.25      0.00
  -11   12   37      3.86      0.00
   -8   12   37     -0.28      0.00
   -5   12   37     -0.68      0.00
   -2   12   37      3.73      0.00
  -13   13   37     -2.60      0.00
  -10   13   37     -4.51      0.00
   -7   13   37     -5.10      0.00
   -4   13   37      2.55      0.00
   -1   13   37      8.91      0.00
  -12   14   37     -2.78      0.00
   -9   14   37     -4.43      0.00
   -6   14   37      1.34      0.00
   -3   14   37      2.45      0.00
  -11   15   37     -4.39      0.00
   -8   15   37     -4.16      0.00
   -5   15   37     -5.09      0.00
    0    1   38     -0.46      0.00
   -2    2   38      6.14      0.00
   -1    3   38      2.12      0.00
   -3    4   38      1.99      0.00
    0    4   38      0.03      0.00
   -5    5   38      1.50      0.00
   -2    5   38      1.14      0.00
   -4    6   38      3.47      0.00
   -1    6   38      2.53      0.00
   -6    7   38      1.52      0.00
   -3    7   38     -3.04      0.00
    0    7   38      0.99      0.00
   -8    8   38     -4.10      0.00
   -5    8   38     -2.94      0.00
   -2    8   38     -9.66      0.00
   -7    9   38     -1.08      0.00
   -4    9   38     -2.93      0.00
   -1    9   38      3.28      0.00
   -9   10   38     -8.98      0.00
   -6   10   38      1.11      0.00
   -3   10   38      3.23      0.00
    0   10   38      6.17      0.00
  -11   11   38     -7.47      0.00
   -8   11   38      1.72      0.00
   -5   11   38     -0.13      0.00
   -2   11   38      0.79      0.00
  -10   12   38     -5.93      0.00
   -7   12   38      1.60      0.00
   -4   12   38     -1.15      0.00
   -1   12   38      0.43      0.00
  -12   13   38     -1.95      0.00
   -9   13   38      8.05      0.00
   -6   13   38     -1.86      0.00
   -3   13   38     -4.77      0.00
    0   13   38     -2.45      0.00
  -11   14   38      0.10      0.00
   -8   14   38      3.94      0.00
   -5   14   38     -5.30      0.00
   -2   14   38     -1.41      0.00
  -10   15   38      2.92      0.00
   -7   15   38     -9.27      0.00
    0    0   39      1.39      0.00
   -1    2   39     -2.72      0.00
   -3    3   39     -3.68      0.00
    0    3   39     -2.76      0.00
   -2    4   39     -1.45      0.00
   -4    5   39      1.90      0.00
   -1    5   39     -2.64      0.00
   -6    6   39      0.46      0.00
   -3    6   39      2.51      0.00
    0    6   39      1.36      0.00
   -5    7   39      1.60      0.00
   -2    7   39      1.43      0.00
   -7    8   39      0.03      0.00
   -4    8   39      4.89      0.00
   -1    8   39     -0.69      0.00
   -9    9   39      8.02      0.00
   -6    9   39     -1.10      0.00
   -3    9   39      1.39      0.00
    0    9   39     -1.34      0.00
   -8   10   39     -2.48      0.00
   -5   10   39     -1.02      0.00
   -2   10   39     -1.03      0.00
  -10   11   39      9.77      0.00
   -7   11   39     -1.55      0.00
   -4   11   39     -5.31      0.00
   -1   11   39     -1.91      0.00
  -12   12   39      3.98      0.00
   -9   12   39      0.36      0.00
   -6   12   39     -5.87      0.00
   -3   12   39      0.49      0.00
    0   12   39      8.56      0.00
  -11   13   39      0.91      0.00
   -8   13   39     -1.28      0.00
   -5   13   39      4.22      0.00
   -2   13   39     10.07      0.00
  -10   14   39     -3.58      0.00
   -7   14   39     -0.27      0.00
   -4   14   39      1.14      0.00
   -1    1   40     -0.29      0.00
    0    2   40     -0.39      0.00
   -2    3   40      0.88      0.00
   -4    4   40     -5.58      0.00
   -1    4   40     -4.53      0.00
   -3    5   40      0.17      0.00
    0    5   40      1.84      0.00
   -5    6   40     -3.19      0.00
   -2    6   40      2.01      0.00
   -7    7   40     -4.16      0.00
   -4    7   40      1.41      0.00
   -1    7   40     -1.53      0.00
   -6    8   40      1.67      0.00
   -3    8   40     -7.53      0.00
    0    8   40      2.58      0.00
   -8    9   40     -0.39      0.00
   -5    9   40     -1.51      0.00
   -2    9   40     -1.89      0.00
  -10   10   40     -4.99      0.00
   -7   10   40      4.08      0.00
   -4   10   40      3.03      0.00
   -1   10   40      3.67      0.00
   -9   11   40     -2.63      0.00
   -6   11   40      1.42      0.00
   -3   11   40      4.75      0.00
    0   11   40      0.61      0.00
  -11   12   40     -0.37      0.00
   -8   12   40      4.98      0.00
   -5   12   40      1.95      0.00
   -2   12   40     -2.59      0.00
  -10   13   40      1.50      0.00
   -7   13   40      2.38      0.00
   -4   13   40     -6.49      0.00
    0    1   41     -1.75      0.00
   -2    2   41     -4.27      0.00
   -1    3   41     -0.75      0.00
   -3    4   41      0.10      0.00
    0    4   41     -0.74      0.00
   -5    5   41      4.14      0.00
   -2    5   41     -1.90      0.00
   -4    6   41      2.70      0.00
   -1    6   41     -5.92      0.00
   -6    7   41      1.77      0.00
   -3    7   41      1.11      0.00
    0    7   41      0.05      0.00
   -8    8   41      1.25      0.00
   -5    8   41      2.55      0.00
   -2    8   41     -1.58      0.00
   -7    9   41     -3.01      0.00
   -4    9   41      6.66      0.00
   -1    9   41      0.97      0.00
   -9   10   41      0.98      0.00
   -6   10   41      2.52      0.00
   -3   10   41      2.07      0.00
    0   10   41     -2.27      0.00
  -11   11   41      2.73      0.00
   -8   11   41     -0.74      0.00
   -5   11   41     -2.65      0.00
   -2   11   41     -0.76      0.00
  -10   12   41      3.02      0.00
   -7   12   41     -3.36      0.00
   -4   12   41     -1.01      0.00
   -6   13   41     -2.26      0.00
    0    0   42      2.08      0.00
   -1    2   42      5.89      0.00
   -3    3   42     -1.61      0.00
    0    3   42     -1.00      0.00
   -2    4   42     -2.95      0.00
   -4    5   42     -5.97      0.00
   -1    5   42      6.33      0.00
   -6    6   42    -13.51      0.00
   -3    6   42      6.06      0.00
    0    6   42      4.13      0.00
   -5    7   42      0.36      0.00
   -2    7   42     -1.58      0.00
   -7    8   42     -4.82      0.00
   -4    8   42     -4.89      0.00
   -1    8   42      0.21      0.00
   -9    9   42     -1.50      0.00
   -6    9   42      0.18      0.00
   -3    9   42     -2.59      0.00
    0    9   42      0.65      0.00
   -8   10   42     -1.00      0.00
   -5   10   42      0.16      0.00
   -2   10   42      1.75      0.00
  -10   11   42     -4.44      0.00
   -7   11   42      0.55      0.00
   -4   11   42      1.39      0.00
   -1   11   42     -0.62      0.00
   -6   12   42      0.53      0.00
   -1    1   43      1.68      0.00
    0    2   43      6.13      0.00
   -2    3   43     -0.59      0.00
   -4    4   43      3.04      0.00
   -1    4   43     -1.57      0.00
   -3    5   43     -1.89      0.00
    0    5   43     -7.42      0.00
   -5    6   43      1.27      0.00
   -2    6   43     -2.72      0.00
   -7    7   43      4.98      0.00
   -4    7   43      5.27      0.00
   -1    7   43     -3.20      0.00
   -6    8   43      3.56      0.00
   -3    8   43      2.25      0.00
    0    8   43      1.33      0.00
   -8    9   43      3.40      0.00
   -5    9   43      3.72      0.00
   -2    9   43      1.83      0.00
  -10   10   43      2.12      0.00
   -7   10   43      0.57      0.00
   -4   10   43      6.32      0.00
   -1   10   43     -2.56      0.00
   -6   11   43      2.26      0.00
   -3   11   43      0.18      0.00
    0    1   44     -3.79      0.00
   -2    2   44     -2.27      0.00
   -1    3   44     -1.97      0.00
   -3    4   44     -4.99      0.00
    0    4   44     11.07      0.00
   -5    5   44     -8.83      0.00
   -2    5   44      7.43      0.00
   -4    6   44      4.57      0.00
   -1    6   44      2.88      0.00
   -6    7   44     -6.68      0.00
   -3    7   44     -3.08      0.00
    0    7   44      2.32      0.00
   -8    8   44     -3.63      0.00
   -5    8   44      1.57      0.00
   -2    8   44     -1.02      0.00
   -7    9   44      0.54      0.00
   -4    9   44      0.40      0.00
   -1    9   44     -0.43      0.00
   -6   10   44      7.28      0.00
   -3   10   44      0.39      0.00
    0    0   45      0.27      0.00
   -1    2   45      5.54      0.00
   -3    3   45      4.40      0.00
    0    3   45      1.77      0.00
   -2    4   45     -6.14      0.00
   -4    5   45     -2.78      0.00
   -1    5   45     -3.83      0.00
   -6    6   45     -4.56      0.00
   -3    6   45      1.64      0.00
    0    6   45     -3.69      0.00
   -5    7   45      3.59      0.00
   -2    7   45     -2.22      0.00
   -7    8   45      2.32      0.00
   -4    8   45     -0.94      0.00
   -1    8   45      1.04      0.00
   -6    9   45     -4.60      0.00
   -3    9   45      4.58      0.00
   -1    1   46     -2.20      0.00
    0    2   46      2.25      0.00
   -2    3   46     -2.62      0.00
   -4    4   46     -3.57      0.00
   -1    4   46     12.58      0.00
   -3    5   46      5.11      0.00
    0    5   46      6.36      0.00
   -5    6   46     -3.43      0.00
   -2    6   46      2.16      0.00
   -7    7   46     -5.95      0.00
   -4    7   46      1.02      0.00
   -1    7   46      1.76      0.00
   -6    8   46     -3.79      0.00
   -3    8   46     -4.39      0.00
    0    1   47     -3.68      0.00
   -2    2   47      2.46      0.00
   -1    3   47     -4.28      0.00
   -3    4   47     -1.54      0.00
    0    4   47     -2.83      0.00
   -5    5   47     -6.69      0.00
   -2    5   47     -3.69      0.00
   -4    6   47      4.20      0.00
   -1    6   47     -5.10      0.00
    0    0   48     -2.70      0.00
   -1    2   48     -2.74      0.00
   -3    3   48     -1.18      0.00
    0    3   48      7.72      0.00
   -2    4   48      1.57      0.00
   -2    4    0    -26.78      0.00
    0   21    0      8.70      0.00
   -2   22    0      5.09      0.00
   -9   24    0      4.82      0.00
   -2    3    1     79.11      0.00
   -1    4    1     65.50      0.00
   -4    7    1     -3.35      0.00
    0    4    2     55.71      0.00
   -2    5    2    -22.94      0.00
   -1    6    2     34.71      0.00
   -5   23    2     -2.46      0.00
    0    0    3    -91.24      0.00
   -2    4    3      3.33      0.00
   -3    6    3    -45.02      0.00
  -21   21    3     -0.61      0.00
    0   21    3      0.75      0.00
  -20   22    3      3.61      0.00
   -2   22    3      3.06      0.00
  -15   24    3      5.03      0.00
   -9   24    3     -3.17      0.00
   -2    6    4      1.09      0.00
  -18   23    4     -2.35      0.00
    0    1    5    -12.35      0.00
   -3    4    5    -54.54      0.00
   -5   23    5     -0.18      0.00
  -10   24    5     -1.26      0.00
   -1    1    7     35.07      0.00
    0    2    7    -10.31      0.00
   -2    3    7    -23.63      0.00
  -14   24    7      3.05      0.00
  -11   24    7     -2.34      0.00
   -2    2    8      3.77      0.00
  -13   24    8     -1.51      0.00
    0    0    9      9.06      0.00
  -19   22   10     -7.48      0.00
   -6   23   10      3.65      0.00
   -1   21   11      2.78      0.00
  -16   23   12      2.10      0.00
   -7   23   12      0.59      0.00
   -4   22   13     -3.97      0.00
  -15   23   13      0.22      0.00
   -8   23   14      0.81      0.00
  -17   22   15      2.13      0.00
   -5   22   15      2.52      0.00
  -13   23   15     -5.11      0.00
  -10   23   15     -3.68      0.00
  -12   23   16      1.74      0.00
   -6   22   17     -2.63      0.00
  -19   20   18      1.79      0.00
   -1   20   18      0.91      0.00
   -7   22   19     -6.77      0.00
   -4   21   20      1.61      0.00
   -9   22   20      0.58      0.00
  -11   22   21      3.08      0.00
  -18   19   23      3.80      0.00
  -17   20   23      7.34      0.00
   -7   21   23     -3.64      0.00
  -16   20   24      0.64      0.00
   -4   20   24     -1.33      0.00
  -11   21   25      1.03      0.00
  -14   20   26     -7.10      0.00
  -13   20   27     -0.31      0.00
   -7   20   27     -4.88      0.00
   -4   19   28      7.22      0.00
   -9   20   28      5.07      0.00
  -17   17   29     -2.02      0.00
  -16   18   29     -5.30      0.00
  -15   18   30      2.18      0.00
   -3   18   30      3.92      0.00
  -14   18   31      0.89      0.00
    0   16   32      5.40      0.00
   -9   18   33     -1.39      0.00
  -12   17   34     -2.59      0.00
   -3   16   35     -0.24      0.00
   -8   17   35      1.23      0.00
   -7   16   37      0.45      0.00
   -4   15   38      1.95      0.00
   -9   14   40      3.36      0.00
   -6   14   40     -5.76      0.00
   -1   12   41      6.57      0.00
   -9   13   41      0.43      0.00
   -9   12   42     -1.45      0.00
   -3   12   42      0.14      0.00
   -9   11   43      4.66      0.00
   -9   10   44     -0.10      0.00
   -5   11   44      1.60      0.00
   -5   10   45      0.93      0.00
   -3    7   47     -2.90      0.00
   -4    5   48     -0.76      0.00
   -1    5   48      3.22      0.00
    0    0    0      0.00      0.00
loop_
  _platon_squeeze_void_nr
  _platon_squeeze_void_average_x
  _platon_squeeze_void_average_y
  _platon_squeeze_void_average_z
  _platon_squeeze_void_volume
  _platon_squeeze_void_count_electrons
  _platon_squeeze_void_content
   1 -0.036 -0.023 -0.001      7447       891 ' '
loop_
  _platon_missing_refln_index_h
  _platon_missing_refln_index_k
  _platon_missing_refln_index_l
  _platon_missing_refln_theta
   -2    4    0     4.375
   -2    3    1     3.384
   -1    4    1     4.586
   -4    7    1     7.717
    0    4    2     5.168
   -2    5    2     5.614
   -1    6    2     7.126
    0    0    3     1.620
   -2    4    3     4.666
   -3    6    3     6.769
   -2    6    4     7.035
    0    1    5     2.981
   -3    4    5     5.297
   -1    1    7     3.988
    0    2    7     4.549
   -2    3    7     5.049
   -2    2    8     5.009
    0    0    9     4.865
_platon_squeeze_void_probe_radius                  1.20
_platon_squeeze_details
)
TITL a         R -3 m :h    R = 0.07
CELL   18.6341   18.6341   37.7090     90.00     90.00    120.00
SPGR R-3m
C101 0.375 0.627 0.195 !       1.52 eA-3
C102 0.999 1.000 0.094 !       1.26 eA-3
C103 1.000 1.000 0.500 !       1.15 eA-3
C104 0.782 0.888 0.492 !       1.07 eA-3
C105 0.229 0.759 0.190 !       1.04 eA-3
C106 0.361 0.657 0.139 !       1.03 eA-3
C107 0.999 1.011 0.438 !       0.98 eA-3
C108 0.377 0.688 0.124 !       0.93 eA-3
C109 0.282 0.563 0.165 !       0.92 eA-3
C110 0.249 0.499 0.228 !       0.92 eA-3
C111 0.092 0.093 0.482 !       0.90 eA-3
C112 0.081 0.193 0.461 !       0.90 eA-3
C113 1.000 1.000 0.000 !       0.89 eA-3
C114 0.296 0.610 0.166 !       0.86 eA-3
C115 0.719 0.276 0.430 !       0.85 eA-3
C116 0.048 0.090 0.094 !       0.85 eA-3
C117 1.000 1.005 0.414 !       0.83 eA-3
C118 0.408 0.587 0.132 !       0.82 eA-3
C119 0.377 0.745 0.760 !       0.81 eA-3
C120 0.359 0.812 0.110 !       0.80 eA-3
C121 0.477 0.626 0.106 !       0.79 eA-3
C122 0.015 0.859 0.454 !       0.78 eA-3
C123 0.194 0.701 0.232 !       0.78 eA-3
C124 0.029 0.165 0.423 !       0.77 eA-3
C125 0.063 0.122 0.473 !       0.75 eA-3
C126 1.001 1.004 0.234 !       0.73 eA-3
C127 0.174 0.672 0.085 !       0.73 eA-3
C128 0.158 0.172 0.576 !       0.73 eA-3
C129 1.000 0.111 0.462 !       0.72 eA-3
C130 0.602 0.357 0.256 !       0.71 eA-3
C131 0.561 0.813 0.147 !       0.71 eA-3
C132 0.812 0.404 0.242 !       0.71 eA-3
C133 0.223 0.141 0.483 !       0.71 eA-3
Q134 0.860 0.717 0.164 !       0.70 eA-3
C135 0.332 0.562 0.092 !       0.69 eA-3
Q136 0.141 0.282 0.273 !       0.69 eA-3
C137 0.393 0.607 0.366 !       0.69 eA-3
C138 0.136 0.043 0.479 !       0.69 eA-3
C139 0.864 0.957 0.521 !       0.69 eA-3
Q140 0.954 0.199 0.041 !       0.69 eA-3
C141 0.525 0.429 0.812 !       0.68 eA-3
C142 0.466 0.733 0.117 !       0.68 eA-3
Q143 0.625 0.252 0.399 !       0.67 eA-3
C144 0.217 0.610 0.110 !       0.67 eA-3
Q145 0.235 0.477 0.494 !       0.67 eA-3
Q146 0.985 0.434 0.017 !       0.66 eA-3
C147 0.967 0.145 0.492 !       0.66 eA-3
C148 0.489 0.153 0.926 !       0.65 eA-3
C149 0.270 0.730 0.248 !       0.65 eA-3
Q150 0.399 0.208 0.195 !       0.65 eA-3
C151 0.188 0.595 0.266 !       0.64 eA-3
C152 0.295 0.423 0.701 !       0.64 eA-3
C153 0.782 0.813 0.525 !       0.63 eA-3
C154 0.218 0.187 0.475 !       0.63 eA-3
C155 0.970 0.900 0.445 !       0.63 eA-3
C156 0.638 0.745 0.125 !       0.63 eA-3
C157 0.825 0.781 0.409 !       0.63 eA-3
C158 0.740 0.486 0.848 !       0.63 eA-3
C159 0.856 0.919 0.603 !       0.63 eA-3
C160 0.793 0.201 0.861 !       0.63 eA-3
C161 0.796 0.821 0.501 !       0.62 eA-3
C162 0.204 0.179 0.499 !       0.62 eA-3
C163 0.311 0.078 0.455 !       0.62 eA-3
Q164 0.284 0.140 0.117 !       0.60 eA-3
C165 0.470 0.737 0.093 !       0.60 eA-3
C166 0.825 0.441 0.742 !       0.60 eA-3
Q167 0.751 0.259 0.242 !       0.59 eA-3
C168 0.671 0.750 0.559 !       0.58 eA-3
C169 0.347 0.857 0.215 !       0.58 eA-3
Q170 0.500 1.000 0.500 !       0.58 eA-3
C171 0.299 0.502 0.133 !       0.57 eA-3
C172 0.487 0.510 0.249 !       0.57 eA-3
C173 0.267 0.220 0.467 !       0.55 eA-3
Q174 0.780 0.211 0.227 !       0.55 eA-3
Q175 0.708 0.144 0.141 !       0.54 eA-3
Q176 0.831 0.272 0.166 !       0.54 eA-3
C177 0.387 0.682 0.252 !       0.54 eA-3
Q178 0.374 0.874 0.496 !       0.54 eA-3
C179 0.879 0.768 0.453 !       0.53 eA-3
C180 0.529 0.760 0.102 !       0.53 eA-3
C181 0.939 0.699 0.041 !       0.53 eA-3
C182 0.292 0.865 0.054 !       0.53 eA-3
C183 0.093 0.058 0.414 !       0.52 eA-3
C184 0.800 0.421 0.314 !       0.52 eA-3
C185 0.216 0.207 0.437 !       0.52 eA-3
C186 0.238 0.764 0.256 !       0.52 eA-3
C187 0.131 0.592 0.273 !       0.52 eA-3
C188 1.001 0.998 0.132 !       0.52 eA-3
C189 0.581 0.814 0.078 !       0.51 eA-3
C190 0.979 0.719 0.043 !       0.51 eA-3
C191 0.891 0.975 0.399 !       0.51 eA-3
C192 0.114 0.455 0.146 !       0.51 eA-3
C193 0.914 0.955 0.039 !       0.51 eA-3
)
;
_shelx_fab_checksum              21479
#END Tags that were not found in dictionaries
loop_
_space_group_symop_operation_xyz
'x, y, z'
'-y, x-y, z'
'-x+y, -x, z'
'y, x, -z'
'x-y, -y, -z'
'-x, -x+y, -z'
'x+2/3, y+1/3, z+1/3'
'-y+2/3, x-y+1/3, z+1/3'
'-x+y+2/3, -x+1/3, z+1/3'
'y+2/3, x+1/3, -z+1/3'
'x-y+2/3, -y+1/3, -z+1/3'
'-x+2/3, -x+y+1/3, -z+1/3'
'x+1/3, y+2/3, z+2/3'
'-y+1/3, x-y+2/3, z+2/3'
'-x+y+1/3, -x+2/3, z+2/3'
'y+1/3, x+2/3, -z+2/3'
'x-y+1/3, -y+2/3, -z+2/3'
'-x+1/3, -x+y+2/3, -z+2/3'
'-x, -y, -z'
'y, -x+y, -z'
'x-y, x, -z'
'-y, -x, z'
'-x+y, y, z'
'x, x-y, z'
'-x+2/3, -y+1/3, -z+1/3'
'y+2/3, -x+y+1/3, -z+1/3'
'x-y+2/3, x+1/3, -z+1/3'
'-y+2/3, -x+1/3, z+1/3'
'-x+y+2/3, y+1/3, z+1/3'
'x+2/3, x-y+1/3, z+1/3'
'-x+1/3, -y+2/3, -z+2/3'
'y+1/3, -x+y+2/3, -z+2/3'
'x-y+1/3, x+2/3, -z+2/3'
'-y+1/3, -x+2/3, z+2/3'
'-x+y+1/3, y+2/3, z+2/3'
'x+1/3, x-y+2/3, z+2/3'
loop_
_atom_site_label
_atom_site_type_symbol
_atom_site_fract_x
_atom_site_fract_y
_atom_site_fract_z
_atom_site_U_iso_or_equiv
_atom_site_adp_type
_atom_site_occupancy
_atom_site_site_symmetry_order
_atom_site_calc_flag
_atom_site_refinement_flags_posn
_atom_site_refinement_flags_adp
_atom_site_refinement_flags_occupancy
_atom_site_disorder_assembly
_atom_site_disorder_group
Cu1 Cu 0.85619(2) 0.71239(3) 0.13782(2) 0.03326(19) Uani 1 2 d S T P . .
O1 O 0.88984(14) 0.63392(12) 0.12274(5) 0.0520(6) Uani 1 1 d . . . . .
O2 O 0.85093(14) 0.55579(12) 0.17124(5) 0.0500(6) Uani 1 1 d . . . . .
O1w O 0.88957(13) 0.7791(3) 0.08942(9) 0.0830(12) Uani 1 2 d S T P . .
H1w H 0.8546 0.7935 0.0844 0.125 Uiso 0.5 1 calc R U P . .
C1 C 0.87865(18) 0.57293(17) 0.14039(8) 0.0425(7) Uani 1 1 d . . . . .
C2 C 0.89843(19) 0.51311(18) 0.12314(8) 0.0461(7) Uani 1 1 d . . . . .
C3 C 0.8841(3) 0.44205(14) 0.14077(11) 0.0450(10) Uani 1 2 d S T P . .
C4 C 0.9282(2) 0.52800(19) 0.08868(8) 0.0566(9) Uani 1 1 d . . . . .
H4 H 0.9385 0.5764 0.0772 0.068 Uiso 1 1 calc R U . . .
C5 C 0.9428(3) 0.47141(17) 0.07121(12) 0.0636(15) Uani 1 2 d DS T P A .
C6 C 0.9733(4) 0.48664(19) 0.03481(9) 0.0720(17) Uani 1 2 d DS T P . .
C7 C 0.9513(7) 0.5312(7) 0.0124(2) 0.079(2) Uani 0.25 1 d D U P A -1
H7 H 0.9220 0.5557 0.0211 0.095 Uiso 0.25 1 d R U P A -1
C8 C 0.9797(6) 0.5462(6) -0.02232(18) 0.089(3) Uani 0.25 1 d D . P A -1
H8 H 0.9663 0.5773 -0.0374 0.106 Uiso 0.25 1 d R U P A -1
C7' C 0.9506(14) 0.5305(14) 0.0123(3) 0.079(2) Uani 0.25 1 d D . P A -2
H7' H 0.9078 0.5400 0.0186 0.095 Uiso 0.25 1 d R U P A -2
N1 N 0.9797(6) 0.5461(6) -0.02231(18) 0.089(3) Uani 0.25 1 d D U P A -2
loop_
_atom_site_aniso_label
_atom_site_aniso_U_11
_atom_site_aniso_U_22
_atom_site_aniso_U_33
_atom_site_aniso_U_23
_atom_site_aniso_U_13
_atom_site_aniso_U_12
Cu1 0.0396(3) 0.0258(3) 0.0298(3) 0.00157(18) 0.00078(9) 0.01290(13)
O1 0.0774(16) 0.0421(12) 0.0462(12) 0.0058(10) 0.0147(11) 0.0372(11)
O2 0.0724(15) 0.0437(12) 0.0437(12) 0.0041(9) 0.0105(10) 0.0365(11)
O1w 0.101(2) 0.090(3) 0.054(2) 0.0346(19) 0.0173(10) 0.0449(15)
C1 0.0491(18) 0.0366(16) 0.0406(16) -0.0032(13) 0.0009(13) 0.0205(14)
C2 0.059(2) 0.0382(16) 0.0454(17) 0.0010(13) 0.0077(14) 0.0278(15)
C3 0.052(3) 0.0403(16) 0.047(2) 0.0012(10) 0.0024(19) 0.0261(13)
C4 0.088(3) 0.0447(18) 0.0481(18) 0.0138(14) 0.0193(17) 0.0412(19)
C5 0.107(4) 0.0547(19) 0.046(3) 0.0152(13) 0.030(3) 0.054(2)
C6 0.126(5) 0.061(2) 0.051(3) 0.0150(15) 0.030(3) 0.063(3)
C7 0.119(6) 0.079(5) 0.067(5) 0.018(4) 0.038(5) 0.070(5)
C8 0.149(7) 0.083(5) 0.059(4) 0.023(4) 0.049(5) 0.078(6)
C7' 0.119(6) 0.079(5) 0.067(5) 0.018(4) 0.038(5) 0.070(5)
N1 0.149(7) 0.083(5) 0.059(4) 0.023(4) 0.049(5) 0.078(6)
loop_
_atom_type_symbol
_atom_type_description
_atom_type_scat_dispersion_real
_atom_type_scat_dispersion_imag
_atom_type_scat_source
C C 0.0033 0.0016 'International Tables Vol C Tables 4.2.6.8 and 6.1.1.4'
H H 0.0000 0.0000 'International Tables Vol C Tables 4.2.6.8 and 6.1.1.4'
N N 0.0061 0.0033 'International Tables Vol C Tables 4.2.6.8 and 6.1.1.4'
O O 0.0106 0.0060 'International Tables Vol C Tables 4.2.6.8 and 6.1.1.4'
Cu Cu 0.3201 1.2651 'International Tables Vol C Tables 4.2.6.8 and 6.1.1.4'
loop_
_geom_angle_atom_site_label_1
_geom_angle_atom_site_label_2
_geom_angle_atom_site_label_3
_geom_angle
_geom_angle_site_symmetry_1
_geom_angle_site_symmetry_3
O1 Cu1 O1 88.74(14) . 23_655
O1 Cu1 O2 90.06(10) . 11_565
O1 Cu1 O2 167.96(8) 23_655 11_565
O1 Cu1 O2 167.97(8) . 25_665
O1 Cu1 O2 90.06(10) 23_655 25_665
O2 Cu1 O2 88.62(13) 11_565 25_665
O1 Cu1 O1w 94.54(11) . .
O1 Cu1 O1w 94.54(11) 23_655 .
O2 Cu1 O1w 97.49(11) 11_565 .
O2 Cu1 O1w 97.49(11) 25_665 .
O1 Cu1 Cu1 82.90(6) . 25_665
O1 Cu1 Cu1 82.90(6) 23_655 25_665
O2 Cu1 Cu1 85.07(6) 11_565 25_665
O2 Cu1 Cu1 85.07(6) 25_665 25_665
O1w Cu1 Cu1 176.40(13) . 25_665
C1 O1 Cu1 124.24(19) . .
C1 O2 Cu1 121.21(19) . 25_665
Cu1 O1w H1w 109.5 . .
O1 C1 O2 126.3(3) . .
O1 C1 C2 117.4(3) . .
O2 C1 C2 116.2(3) . .
C3 C2 C4 120.6(3) . .
C3 C2 C1 120.4(3) . .
C4 C2 C1 119.0(3) . .
C2 C3 C2 118.8(4) . 24
C5 C4 C2 120.4(3) . .
C5 C4 H4 119.8 . .
C2 C4 H4 119.8 . .
C4 C5 C4 119.1(4) . 24
C4 C5 C6 120.45(19) . .
C4 C5 C6 120.44(19) 24 .
N1 C6 C7' 120.0(4) 19_765 .
C8 C6 C7 120.1(3) 19_765 .
N1 C6 C5 120.6(3) 19_765 .
C8 C6 C5 120.5(3) 19_765 .
C7' C6 C5 119.3(4) . .
C7 C6 C5 119.3(4) . .
C6 C7 C8 120.1(4) . .
C6 C7 H7 120.1 . .
C8 C7 H7 119.6 . .
C7 C8 H8 120.5 . .
C6 C7' N1 119.9(4) . .
C6 C7' H7' 120.0 . .
N1 C7' H7' 118.9 . .
loop_
_geom_bond_atom_site_label_1
_geom_bond_atom_site_label_2
_geom_bond_distance
_geom_bond_site_symmetry_2
Cu1 O1 1.942(2) .
Cu1 O1 1.942(2) 23_655
Cu1 O2 1.9482(19) 11_565
Cu1 O2 1.9483(19) 25_665
Cu1 O1w 2.119(3) .
Cu1 Cu1 2.6287(8) 25_665
O1 C1 1.242(3) .
O2 C1 1.248(3) .
O2 Cu1 1.9482(19) 25_665
O1w H1w 0.8401 .
C1 C2 1.487(4) .
C2 C3 1.383(3) .
C2 C4 1.385(4) .
C3 C2 1.383(3) 24
C4 C5 1.381(4) .
C4 H4 0.9300 .
C5 C4 1.381(4) 24
C5 C6 1.458(5) .
C6 N1 1.376(7) 19_765
C6 C8 1.379(7) 19_765
C6 C7' 1.383(8) .
C6 C7 1.383(7) .
C7 C8 1.386(7) .
C7 H7 0.9300 .
C8 H8 0.9300 .
C7' N1 1.386(7) .
C7' H7' 0.9300 .
loop_
_geom_torsion_atom_site_label_1
_geom_torsion_atom_site_label_2
_geom_torsion_atom_site_label_3
_geom_torsion_atom_site_label_4
_geom_torsion
_geom_torsion_site_symmetry_1
_geom_torsion_site_symmetry_4
Cu1 O1 C1 O2 -6.2(5) . .
Cu1 O1 C1 C2 172.5(2) . .
Cu1 O2 C1 O1 5.7(4) 25_665 .
Cu1 O2 C1 C2 -173.06(19) 25_665 .
O1 C1 C2 C3 -177.3(3) . .
O2 C1 C2 C3 1.6(5) . .
O1 C1 C2 C4 0.2(4) . .
O2 C1 C2 C4 179.0(3) . .
C4 C2 C3 C2 -1.3(6) . 24
C1 C2 C3 C2 176.1(2) . 24
C3 C2 C4 C5 1.0(6) . .
C1 C2 C4 C5 -176.4(4) . .
C2 C4 C5 C4 -0.8(8) . 24
C2 C4 C5 C6 179.3(4) . .
C4 C5 C6 N1 152.1(7) . 19_765
C4 C5 C6 N1 -27.9(9) 24 19_765
C4 C5 C6 C8 152.1(7) . 19_765
C4 C5 C6 C8 -27.9(9) 24 19_765
C4 C5 C6 C7' -31.6(13) . .
C4 C5 C6 C7' 148.5(14) 24 .
C4 C5 C6 C7 -30.9(12) . .
C4 C5 C6 C7 149.1(7) 24 .
C8 C6 C7 C8 -3.0(12) 19_765 .
C5 C6 C7 C8 -180.0(3) . .
N1 C6 C7' N1 -4(3) 19_765 .
C5 C6 C7' N1 179.4(18) . .
