#------------------------------------------------------------------------------
#$Date: 2016-02-05 00:51:38 +0200 (Fri, 05 Feb 2016) $
#$Revision: 175998 $
#$URL: svn://www.crystallography.net/cod/cif/7/03/73/7037365.cif $
#------------------------------------------------------------------------------
#
# This file is available in the Crystallography Open Database (COD),
# http://www.crystallography.net/
#
# All data on this site have been placed in the public domain by the
# contributors.
#
data_7037365
loop_
_publ_author_name
'D'Vries, Richard F'
'Gomez, German E.'
'Hodak, Jos\'e H'
'Soler-Illia, Galo J A A'
'Ellena, Javier'
_publ_section_title
;
 Tuning the structure, dimensionality and luminescent properties of
 lanthanide metal-organic frameworks under ancillary ligand influence.
;
_journal_issue                   2
_journal_name_full
'Dalton transactions (Cambridge, England : 2003)'
_journal_page_first              646
_journal_page_last               656
_journal_paper_doi               10.1039/c5dt04033g
_journal_volume                  45
_journal_year                    2015
_chemical_formula_moiety         'C10 H9 O9 S2 Sm'
_chemical_formula_sum            'C10 H9 O9 S2 Sm'
_chemical_formula_weight         487.64
_space_group_crystal_system      monoclinic
_space_group_IT_number           15
_space_group_name_Hall           '-C 2yc'
_space_group_name_H-M_alt        'C 1 2/c 1'
_symmetry_space_group_name_Hall  '-C 2yc'
_symmetry_space_group_name_H-M   'C 1 2/c 1'
_atom_sites_solution_hydrogens   mixed
_audit_creation_date             2015-11-10
_audit_creation_method
;
Olex2 1.2
(compiled 2015.09.30 svn.r3233 for OlexSys, GUI svn.r5103)
;
_audit_update_record
;
2015-11-12 deposited with the CCDC.
2015-11-20 downloaded from the CCDC.
;
_cell_angle_alpha                90
_cell_angle_beta                 118.585(2)
_cell_angle_gamma                90
_cell_formula_units_Z            8
_cell_length_a                   17.5594(7)
_cell_length_b                   22.4319(9)
_cell_length_c                   8.4604(2)
_cell_measurement_temperature    293(2)
_cell_volume                     2926.27(19)
_computing_cell_refinement       'HKL Scalepack (Otwinowski & Minor 1997)'
_computing_data_collection       'Collect (Bruker AXS BV, 1997-2004)'
_computing_data_reduction
'HKL Denzo and Scalepack (Otwinowski & Minor 1997)'
_computing_molecular_graphics    'Olex2 (Dolomanov et al., 2009)'
_computing_publication_material  'Olex2 (Dolomanov et al., 2009)'
_computing_structure_refinement  'ShelXL (Sheldrick, 2015)'
_computing_structure_solution    'SHELXS-2013 (Sheldrick, 2013)'
_diffrn_ambient_temperature      293
_diffrn_detector_area_resol_mean 9
_diffrn_measured_fraction_theta_full 0.998
_diffrn_measured_fraction_theta_max 0.997
_diffrn_measurement_device_type  KappaCCD
_diffrn_measurement_method       'CCD rotation images, thick slices'
_diffrn_radiation_type           MoK\a
_diffrn_radiation_wavelength     0.71073
_diffrn_reflns_av_R_equivalents  0.1073
_diffrn_reflns_av_unetI/netI     0.0680
_diffrn_reflns_laue_measured_fraction_full 0.998
_diffrn_reflns_laue_measured_fraction_max 0.997
_diffrn_reflns_limit_h_max       21
_diffrn_reflns_limit_h_min       -21
_diffrn_reflns_limit_k_max       28
_diffrn_reflns_limit_k_min       -28
_diffrn_reflns_limit_l_max       10
_diffrn_reflns_limit_l_min       -10
_diffrn_reflns_number            24647
_diffrn_reflns_point_group_measured_fraction_full 0.998
_diffrn_reflns_point_group_measured_fraction_max 0.997
_diffrn_reflns_theta_full        25.242
_diffrn_reflns_theta_max         26.398
_diffrn_reflns_theta_min         3.028
_diffrn_source                   'Enraf Nonius FR590'
_exptl_absorpt_coefficient_mu    4.341
_exptl_absorpt_correction_T_max  0.8871
_exptl_absorpt_correction_T_min  0.7358
_exptl_absorpt_correction_type   multi-scan
_exptl_absorpt_process_details
'[c.f. r.h. blessing, acta cryst. (1995), a51, 33-38]'
_exptl_crystal_colour            'light yellow'
_exptl_crystal_colour_modifier   light
_exptl_crystal_colour_primary    yellow
_exptl_crystal_density_diffrn    2.214
_exptl_crystal_description       block
_exptl_crystal_F_000             1880
_exptl_crystal_preparation       Luminescent
_exptl_crystal_recrystallization_method Hydrothermal
_exptl_crystal_size_max          0.088
_exptl_crystal_size_mid          0.05
_exptl_crystal_size_min          0.013
_refine_diff_density_max         2.484
_refine_diff_density_min         -1.205
_refine_diff_density_rms         0.174
_refine_ls_extinction_method     none
_refine_ls_goodness_of_fit_ref   0.941
_refine_ls_hydrogen_treatment    constr
_refine_ls_matrix_type           full
_refine_ls_number_parameters     201
_refine_ls_number_reflns         3002
_refine_ls_number_restraints     0
_refine_ls_restrained_S_all      0.941
_refine_ls_R_factor_all          0.0627
_refine_ls_R_factor_gt           0.0419
_refine_ls_shift/su_max          0.001
_refine_ls_shift/su_mean         0.000
_refine_ls_structure_factor_coef Fsqd
_refine_ls_weighting_details
'w=1/[\s^2^(Fo^2^)+(0.0560P)^2^] where P=(Fo^2^+2Fc^2^)/3'
_refine_ls_weighting_scheme      calc
_refine_ls_wR_factor_gt          0.0954
_refine_ls_wR_factor_ref         0.0993
_reflns_Friedel_coverage         0.000
_reflns_number_gt                2043
_reflns_number_total             3002
_reflns_threshold_expression     'I > 2\s(I)'
_cod_data_source_file            c5dt04033g2.cif
_cod_data_source_block           Compound4
_cod_depositor_comments
'Adding full bibliography for 7037363--7037371.cif.'
_cod_database_code               7037365
_shelx_space_group_comment
;
The symmetry employed for this shelxl refinement is uniquely defined
by the following loop, which should always be used as a source of
symmetry information in preference to the above space-group names.
They are only intended as comments.
;
_shelx_estimated_absorpt_t_max   0.946
_shelx_estimated_absorpt_t_min   0.701
_olex2_refinement_description
;
1. Fixed Uiso
 At 1.2 times of:
  All C(H) groups
 At 1.5 times of:
  All O(H,H) groups
2.a Rotating group:
 O8(H8A,H8B), O9(H9A,H9B)
2.b Aromatic/amide H refined with riding coordinates:
 C2(H2), C3(H3), C5(H5), C8(H8), C10(H10)
;
_shelx_res_file
;
    shelx_sq.res created by SHELXL-2014/7

TITL shelx in C2/c
CELL 0.71073 17.5594 22.4319 8.4604 90 118.585 90
ZERR 8 0.0007 0.0009 0.0002 0 0.002 0
LATT 7
SYMM -X,+Y,0.5-Z
SFAC C H O S Sm
UNIT 80 72 72 16 8

L.S. 5 0 4
PLAN  20
SIZE 0.05 0.013 0.088
TEMP 19.85
BOND $H
ABIN
fmap 2
acta
MORE -1
CONF
MERG 2
REM <olex2.extras>
REM <HklSrc "%.\\shelx_sq.hkl">
REM </olex2.extras>

WGHT    0.056000
FVAR       0.04821
SM1   5    0.816019    0.262024    0.873262    11.00000    0.03199    0.03348 =
         0.03473   -0.00247    0.01316    0.00215
C1    1    0.836739    0.087655    0.582441    11.00000    0.04321    0.02499 =
         0.03866    0.00026    0.02405   -0.00209
C2    1    0.903995    0.062504    0.743689    11.00000    0.04599    0.04204 =
         0.03582   -0.00055    0.01029   -0.00385
AFIX  43
H2    2    0.945589    0.086676    0.832211    11.00000   -1.20000
AFIX   0
C3    1    0.905914    0.002147    0.765104    11.00000    0.05079    0.03621 =
         0.03874    0.00438    0.00762   -0.00106
AFIX  43
H3    2    0.948884   -0.014587    0.870876    11.00000   -1.20000
AFIX   0
C4    1    0.843944   -0.036028    0.630011    11.00000    0.03705    0.03565 =
         0.03477    0.00538    0.01803   -0.00255
C5    1    0.849070   -0.098204    0.654486    11.00000    0.04369    0.03338 =
         0.03546    0.00549    0.01538   -0.00063
AFIX  43
H5    2    0.894998   -0.114724    0.756294    11.00000   -1.20000
AFIX   0
C6    1    0.713367    0.365388    0.971121    11.00000    0.04277    0.02582 =
         0.04372    0.00008    0.02543    0.00303
C7    1    0.718500    0.108234    0.872993    11.00000    0.03663    0.02744 =
         0.03974    0.00280    0.01550    0.00081
C8    1    0.712861    0.047999    0.844425    11.00000    0.03603    0.04118 =
         0.03747    0.00119    0.00989    0.00187
AFIX  43
H8    2    0.667390    0.032298    0.740254    11.00000   -1.20000
AFIX   0
C9    1    0.775964   -0.009499    0.472812    11.00000    0.03419    0.03346 =
         0.04125    0.00307    0.01679    0.00329
C10   1    0.774935    0.052851    0.452832    11.00000    0.03114    0.03240 =
         0.03788    0.00656    0.01202    0.00172
AFIX  43
H10   2    0.731400    0.070492    0.349598    11.00000   -1.20000
AFIX   0
O1    3    0.853957    0.195725    0.708563    11.00000    0.04690    0.03623 =
         0.04362   -0.00818    0.01818   -0.00077
O2    3    0.922441    0.170652    0.530723    11.00000    0.04633    0.03939 =
         0.05221   -0.00168    0.02506   -0.00475
O3    3    0.733960    0.319387    0.609348    11.00000    0.04069    0.03487 =
         0.04098    0.00345    0.01194   -0.00156
O4    3    0.686059    0.202373    0.673404    11.00000    0.03767    0.03620 =
         0.04574    0.00235    0.00784   -0.00510
O5    3    0.576306    0.125633    0.569242    11.00000    0.04132    0.04167 =
         0.05287   -0.00801    0.00290   -0.00081
O6    3    0.897005    0.314220    1.170378    11.00000    0.03709    0.04279 =
         0.05965   -0.01166    0.02171    0.00263
O7    3    0.712768    0.305842    0.949489    11.00000    0.03583    0.02580 =
         0.04210   -0.00342    0.01671    0.00175
O8    3    0.965158    0.225543    1.056210    11.00000    0.04546    0.10966 =
         0.04065   -0.01186    0.01531    0.03273
AFIX   7
H8A   2    1.008028    0.256123    1.126167    11.00000   -1.50000
H8B   2    0.989567    0.206611    0.986491    11.00000   -1.50000
AFIX   0
S1    4    0.845818    0.164257    0.549311    11.00000    0.03509    0.02880 =
         0.03493   -0.00224    0.01618   -0.00164
S2    4    0.639962    0.158377    0.722254    11.00000    0.03349    0.03170 =
         0.04585   -0.00305    0.00921    0.00297
O9    3    0.906864    0.336589    0.827016    11.00000    0.06008    0.10137 =
         0.07243    0.00876    0.01297   -0.02555
AFIX   7
H9A   2    0.902722    0.332779    0.719455    11.00000   -1.50000
H9B   2    0.961794    0.332128    0.907594    11.00000   -1.50000
AFIX   0
HKLF 4

REM  shelx in C2/c
REM R1 =  0.0419 for    2043 Fo > 4sig(Fo)  and  0.0627 for all    3002 data
REM    201 parameters refined using      0 restraints

END

WGHT      0.0560      0.0000

REM Highest difference peak  2.484,  deepest hole -1.205,  1-sigma level  0.174
Q1    1   0.8162  0.2155  0.8815  11.00000  0.05    2.48
Q2    1   0.9437  0.2378  0.6138  11.00000  0.05    2.00
Q3    1   0.7292  0.2602  0.7053  11.00000  0.05    1.15
Q4    1   0.9809  0.3363  1.3007  11.00000  0.05    1.02
Q5    1   0.6533  0.2618  0.5423  11.00000  0.05    0.82
Q6    1   0.8562  0.3080  0.5594  11.00000  0.05    0.72
Q7    1   0.9803  0.1560  1.0057  11.00000  0.05    0.71
Q8    1   0.8512  0.3653  0.5575  11.00000  0.05    0.69
Q9    1   0.8958  0.2659  1.0317  11.00000  0.05    0.69
Q10   1   0.7434  0.3183  0.5563  11.00000  0.05    0.66
Q11   1   0.9675  0.2674  1.1887  11.00000  0.05    0.63
Q12   1   0.8627 -0.1815  0.7815  11.00000  0.05    0.63
Q13   1   0.8608 -0.1339  0.7639  11.00000  0.05    0.62
Q14   1   0.9415  0.1972  1.0775  11.00000  0.05    0.59
Q15   1   0.7021  0.2352  0.7583  11.00000  0.05    0.58
Q16   1   0.8935  0.2694  0.7044  11.00000  0.05    0.55
Q17   1   0.8018  0.2701  1.0667  11.00000  0.05    0.54
Q18   1   0.7698  0.3430  0.4642  11.00000  0.05    0.53
Q19   1   0.9529  0.2886  0.6201  11.00000  0.05    0.53
Q20   1   0.7156  0.3361  0.8049  11.00000  0.05    0.50
;
_shelx_res_checksum              4587
_shelx_fab_checksum              71696
_shelx_fab_file
;
    4    0    0      3.96      0.00
    6    0    0     -3.17      0.00
    8    0    0      0.45      0.00
   10    0    0      1.32      0.00
   12    0    0      0.52      0.00
   14    0    0      0.70      0.00
   16    0    0     -0.15      0.00
   18    0    0     -1.37      0.00
    3    1    0    -14.11      0.00
    5    1    0      1.83      0.00
    7    1    0      1.35      0.00
    9    1    0     -1.42      0.00
   11    1    0     -0.77      0.00
   13    1    0     -0.57      0.00
   15    1    0     -0.54      0.00
   17    1    0      0.74      0.00
   19    1    0      1.07      0.00
    2    2    0     22.42      0.00
    4    2    0      3.34      0.00
    6    2    0     -2.15      0.00
    8    2    0      0.70      0.00
   10    2    0      1.14      0.00
   12    2    0      0.36      0.00
   14    2    0      0.70      0.00
   16    2    0      0.28      0.00
   18    2    0     -0.66      0.00
    1    3    0    -22.89      0.00
    3    3    0     -8.94      0.00
    5    3    0      0.60      0.00
    7    3    0      0.15      0.00
    9    3    0     -1.23      0.00
   11    3    0     -0.34      0.00
   13    3    0     -0.28      0.00
   15    3    0     -0.81      0.00
   17    3    0     -0.36      0.00
   19    3    0      0.00      0.00
    0    4    0     15.65      0.00
    2    4    0     10.33      0.00
    4    4    0      2.05      0.00
    6    4    0     -0.09      0.00
    8    4    0      1.03      0.00
   10    4    0      0.47      0.00
   12    4    0     -0.29      0.00
   14    4    0      0.44      0.00
   16    4    0      1.07      0.00
   18    4    0      0.79      0.00
    1    5    0     -6.56      0.00
    3    5    0     -2.97      0.00
    5    5    0     -0.74      0.00
    7    5    0     -0.98      0.00
    9    5    0     -0.65      0.00
   11    5    0      0.58      0.00
   13    5    0      0.49      0.00
   15    5    0     -0.81      0.00
   17    5    0     -1.44      0.00
    0    6    0      1.23      0.00
    2    6    0      1.08      0.00
    4    6    0      0.98      0.00
    6    6    0      1.17      0.00
    8    6    0      0.87      0.00
   10    6    0     -0.44      0.00
   12    6    0     -1.24      0.00
   14    6    0     -0.23      0.00
   16    6    0      1.23      0.00
   18    6    0      1.60      0.00
    1    7    0      1.66      0.00
    3    7    0      0.11      0.00
    5    7    0     -1.05      0.00
    7    7    0     -1.04      0.00
    9    7    0      0.00      0.00
   11    7    0      1.30      0.00
   13    7    0      1.23      0.00
   15    7    0     -0.23      0.00
   17    7    0     -1.34      0.00
    0    8    0     -2.75      0.00
    2    8    0     -1.55      0.00
    4    8    0      0.30      0.00
    6    8    0      0.88      0.00
    8    8    0      0.40      0.00
   10    8    0     -0.70      0.00
   12    8    0     -1.44      0.00
   14    8    0     -0.78      0.00
   16    8    0      0.42      0.00
   18    8    0      0.96      0.00
    1    9    0      1.93      0.00
    3    9    0      0.56      0.00
    5    9    0     -0.29      0.00
    7    9    0     -0.37      0.00
    9    9    0     -0.01      0.00
   11    9    0      0.74      0.00
   13    9    0      0.97      0.00
   15    9    0      0.46      0.00
   17    9    0     -0.06      0.00
    0   10    0     -1.21      0.00
    2   10    0     -0.80      0.00
    4   10    0     -0.31      0.00
    6   10    0     -0.11      0.00
    8   10    0      0.23      0.00
   10   10    0      0.22      0.00
   12   10    0     -0.22      0.00
   14   10    0     -0.53      0.00
   16   10    0     -0.71      0.00
   18   10    0     -0.52      0.00
    1   11    0      0.53      0.00
    3   11    0      0.52      0.00
    5   11    0      0.60      0.00
    7   11    0      0.12      0.00
    9   11    0     -0.69      0.00
   11   11    0     -0.85      0.00
   13   11    0     -0.29      0.00
   15   11    0      0.65      0.00
   17   11    0      1.24      0.00
    0   12    0     -0.43      0.00
    2   12    0     -0.49      0.00
    4   12    0     -0.74      0.00
    6   12    0     -0.60      0.00
    8   12    0      0.44      0.00
   10   12    0      1.39      0.00
   12   12    0      1.31      0.00
   14   12    0      0.23      0.00
   16   12    0     -1.14      0.00
    1   13    0      0.67      0.00
    3   13    0      0.67      0.00
    5   13    0      0.73      0.00
    7   13    0      0.08      0.00
    9   13    0     -1.15      0.00
   11   13    0     -1.73      0.00
   13   13    0     -1.15      0.00
   15   13    0      0.24      0.00
   17   13    0      1.38      0.00
    0   14    0     -0.99      0.00
    2   14    0     -0.75      0.00
    4   14    0     -0.54      0.00
    6   14    0     -0.28      0.00
    8   14    0      0.60      0.00
   10   14    0      1.38      0.00
   12   14    0      1.33      0.00
   14   14    0      0.61      0.00
   16   14    0     -0.53      0.00
    1   15    0      0.92      0.00
    3   15    0      0.37      0.00
    5   15    0      0.09      0.00
    7   15    0     -0.32      0.00
    9   15    0     -0.83      0.00
   11   15    0     -0.77      0.00
   13   15    0     -0.59      0.00
   15   15    0     -0.33      0.00
    0   16    0     -0.74      0.00
    2   16    0     -0.32      0.00
    4   16    0      0.20      0.00
    6   16    0      0.44      0.00
    8   16    0      0.65      0.00
   10   16    0      0.22      0.00
   12   16    0     -0.23      0.00
   14   16    0      0.30      0.00
    1   17    0      0.16      0.00
    3   17    0     -0.36      0.00
    5   17    0     -0.70      0.00
    7   17    0     -0.90      0.00
    9   17    0     -0.33      0.00
   11   17    0      0.89      0.00
   13   17    0      0.64      0.00
   15   17    0     -0.70      0.00
    0   18    0      0.14      0.00
    2   18    0      0.39      0.00
    4   18    0      0.81      0.00
    6   18    0      1.20      0.00
    8   18    0      0.99      0.00
   10   18    0     -0.59      0.00
   12   18    0     -1.51      0.00
   14   18    0     -0.07      0.00
    1   19    0     -0.30      0.00
    3   19    0     -0.67      0.00
    5   19    0     -1.26      0.00
    7   19    0     -1.63      0.00
    9   19    0     -0.52      0.00
   11   19    0      1.32      0.00
   13   19    0      1.00      0.00
    0   20    0     -0.01      0.00
    2   20    0      0.25      0.00
    4   20    0      1.00      0.00
    6   20    0      1.89      0.00
    8   20    0      1.67      0.00
   10   20    0     -0.11      0.00
   12   20    0     -1.11      0.00
    1   21    0      0.41      0.00
    3   21    0     -0.42      0.00
    5   21    0     -1.71      0.00
    7   21    0     -2.31      0.00
    9   21    0     -1.27      0.00
   11   21    0      0.23      0.00
    0   22    0     -1.04      0.00
    2   22    0     -0.40      0.00
    4   22    0      1.17      0.00
    6   22    0      2.44      0.00
    8   22    0      2.18      0.00
   10   22    0      0.91      0.00
    1   23    0      1.14      0.00
    3   23    0     -0.35      0.00
    5   23    0     -2.16      0.00
    7   23    0     -2.59      0.00
    9   23    0     -1.69      0.00
   11   23    0     -0.86      0.00
    0   24    0     -1.33      0.00
    2   24    0     -0.45      0.00
    4   24    0      1.52      0.00
    6   24    0      2.65      0.00
    8   24    0      2.09      0.00
    1   25    0      0.84      0.00
    3   25    0     -0.69      0.00
    5   25    0     -2.34      0.00
    7   25    0     -2.33      0.00
    0   26    0     -0.69      0.00
    2   26    0      0.04      0.00
    4   26    0      1.63      0.00
    6   26    0      2.34      0.00
    1   27    0      0.26      0.00
    3   27    0     -0.80      0.00
    5   27    0     -1.91      0.00
    0   28    0     -0.34      0.00
  -19    1    1     -0.51      0.00
  -17    1    1     -0.65      0.00
  -15    1    1     -0.28      0.00
  -13    1    1     -0.16      0.00
  -11    1    1     -0.42      0.00
   -9    1    1     -0.73      0.00
   -7    1    1     -1.24      0.00
   -5    1    1     -2.06      0.00
   -3    1    1     -1.48      0.00
    1    1    1      2.73      0.00
    3    1    1      1.14      0.00
    5    1    1     -0.34      0.00
    7    1    1      0.17      0.00
    9    1    1      0.72      0.00
   11    1    1      0.47      0.00
   13    1    1      0.13      0.00
   15    1    1     -0.18      0.00
   17    1    1     -0.32      0.00
  -20    2    1      0.30      0.00
  -18    2    1      1.22      0.00
  -16    2    1      0.87      0.00
  -14    2    1      0.37      0.00
  -12    2    1      0.58      0.00
  -10    2    1      1.10      0.00
   -8    2    1      1.70      0.00
   -6    2    1      3.04      0.00
   -4    2    1      3.69      0.00
   -2    2    1      0.30      0.00
    0    2    1     -4.42      0.00
    2    2    1     -3.92      0.00
    4    2    1     -0.16      0.00
    6    2    1      0.48      0.00
    8    2    1     -1.01      0.00
   10    2    1     -1.09      0.00
   12    2    1     -0.42      0.00
   14    2    1      0.07      0.00
   16    2    1      0.50      0.00
   18    2    1      0.42      0.00
  -19    3    1     -1.13      0.00
  -17    3    1     -1.42      0.00
  -15    3    1     -0.80      0.00
  -13    3    1     -0.75      0.00
  -11    3    1     -1.26      0.00
   -9    3    1     -1.78      0.00
   -7    3    1     -2.92      0.00
   -5    3    1     -4.64      0.00
   -3    3    1     -2.96      0.00
   -1    3    1      3.33      0.00
    1    3    1      6.34      0.00
    3    3    1      2.26      0.00
    5    3    1     -1.01      0.00
    7    3    1      0.40      0.00
    9    3    1      1.50      0.00
   11    3    1      0.72      0.00
   13    3    1      0.08      0.00
   15    3    1     -0.39      0.00
   17    3    1     -0.56      0.00
  -20    4    1      0.41      0.00
  -18    4    1      1.47      0.00
  -16    4    1      1.15      0.00
  -14    4    1      1.01      0.00
  -12    4    1      1.41      0.00
  -10    4    1      1.77      0.00
   -8    4    1      2.39      0.00
   -6    4    1      4.11      0.00
   -4    4    1      4.55      0.00
   -2    4    1     -0.41      0.00
    0    4    1     -6.35      0.00
    2    4    1     -4.84      0.00
    4    4    1      0.33      0.00
    6    4    1      0.66      0.00
    8    4    1     -1.36      0.00
   10    4    1     -1.00      0.00
   12    4    1     -0.03      0.00
   14    4    1      0.26      0.00
   16    4    1      0.49      0.00
   18    4    1      0.23      0.00
  -19    5    1     -0.99      0.00
  -17    5    1     -1.13      0.00
  -15    5    1     -1.07      0.00
  -13    5    1     -1.58      0.00
  -11    5    1     -1.84      0.00
   -9    5    1     -1.91      0.00
   -7    5    1     -2.93      0.00
   -5    5    1     -4.37      0.00
   -3    5    1     -2.18      0.00
   -1    5    1      3.94      0.00
    1    5    1      5.94      0.00
    3    5    1      1.38      0.00
    5    5    1     -1.22      0.00
    7    5    1      0.68      0.00
    9    5    1      1.26      0.00
   11    5    1     -0.03      0.00
   13    5    1     -0.45      0.00
   15    5    1     -0.41      0.00
   17    5    1     -0.23      0.00
  -18    6    1      0.83      0.00
  -16    6    1      0.77      0.00
  -14    6    1      1.45      0.00
  -12    6    1      1.97      0.00
  -10    6    1      1.69      0.00
   -8    6    1      1.85      0.00
   -6    6    1      3.15      0.00
   -4    6    1      3.16      0.00
   -2    6    1     -0.85      0.00
    0    6    1     -4.74      0.00
    2    6    1     -2.76      0.00
    4    6    1      0.83      0.00
    6    6    1      0.09      0.00
    8    6    1     -1.41      0.00
   10    6    1     -0.27      0.00
   12    6    1      0.78      0.00
   14    6    1      0.61      0.00
   16    6    1      0.30      0.00
  -19    7    1     -0.52      0.00
  -17    7    1     -0.38      0.00
  -15    7    1     -0.87      0.00
  -13    7    1     -1.80      0.00
  -11    7    1     -1.69      0.00
   -9    7    1     -1.18      0.00
   -7    7    1     -1.77      0.00
   -5    7    1     -2.72      0.00
   -3    7    1     -1.31      0.00
   -1    7    1      2.12      0.00
    1    7    1      2.66      0.00
    3    7    1     -0.01      0.00
    5    7    1     -0.45      0.00
    7    7    1      1.34      0.00
    9    7    1      1.00      0.00
   11    7    1     -0.64      0.00
   13    7    1     -0.98      0.00
   15    7    1     -0.58      0.00
   17    7    1     -0.05      0.00
  -18    8    1      0.22      0.00
  -16    8    1      0.26      0.00
  -14    8    1      1.16      0.00
  -12    8    1      1.54      0.00
  -10    8    1      0.92      0.00
   -8    8    1      0.73      0.00
   -6    8    1      1.61      0.00
   -4    8    1      1.98      0.00
   -2    8    1      0.38      0.00
    0    8    1     -1.15      0.00
    2    8    1     -0.31      0.00
    4    8    1      0.36      0.00
    6    8    1     -1.13      0.00
    8    8    1     -1.75      0.00
   10    8    1     -0.20      0.00
   12    8    1      0.97      0.00
   14    8    1      0.94      0.00
   16    8    1      0.50      0.00
  -19    9    1     -0.23      0.00
  -17    9    1     -0.04      0.00
  -15    9    1     -0.45      0.00
  -13    9    1     -1.03      0.00
  -11    9    1     -0.73      0.00
   -9    9    1     -0.18      0.00
   -7    9    1     -0.52      0.00
   -5    9    1     -1.50      0.00
   -3    9    1     -1.69      0.00
   -1    9    1     -0.75      0.00
    1    9    1     -0.23      0.00
    3    9    1     -0.20      0.00
    5    9    1      0.93      0.00
    7    9    1      2.11      0.00
    9    9    1      1.33      0.00
   11    9    1     -0.24      0.00
   13    9    1     -0.92      0.00
   15    9    1     -0.90      0.00
   17    9    1     -0.44      0.00
  -18   10    1      0.12      0.00
  -16   10    1      0.19      0.00
  -14   10    1      0.47      0.00
  -12   10    1      0.37      0.00
  -10   10    1     -0.11      0.00
   -8   10    1     -0.18      0.00
   -6   10    1      0.60      0.00
   -4   10    1      1.67      0.00
   -2   10    1      1.91      0.00
    0   10    1      1.18      0.00
    2   10    1      0.31      0.00
    4   10    1     -0.79      0.00
    6   10    1     -2.02      0.00
    8   10    1     -2.06      0.00
   10   10    1     -0.83      0.00
   12   10    1      0.30      0.00
   14   10    1      0.84      0.00
   16   10    1      0.90      0.00
  -17   11    1     -0.27      0.00
  -15   11    1     -0.35      0.00
  -13   11    1     -0.05      0.00
  -11   11    1      0.42      0.00
   -9   11    1      0.55      0.00
   -7   11    1      0.11      0.00
   -5   11    1     -0.92      0.00
   -3   11    1     -1.88      0.00
   -1   11    1     -1.72      0.00
    1   11    1     -0.59      0.00
    3   11    1      0.66      0.00
    5   11    1      1.71      0.00
    7   11    1      2.13      0.00
    9   11    1      1.53      0.00
   11   11    1      0.53      0.00
   13   11    1     -0.25      0.00
   15   11    1     -0.83      0.00
  -18   12    1      0.22      0.00
  -16   12    1      0.52      0.00
  -14   12    1      0.18      0.00
  -12   12    1     -0.60      0.00
  -10   12    1     -0.87      0.00
   -8   12    1     -0.49      0.00
   -6   12    1      0.22      0.00
   -4   12    1      1.10      0.00
   -2   12    1      1.42      0.00
    0   12    1      0.62      0.00
    2   12    1     -0.57      0.00
    4   12    1     -1.41      0.00
    6   12    1     -1.80      0.00
    8   12    1     -1.58      0.00
   10   12    1     -0.96      0.00
   12   12    1     -0.42      0.00
   14   12    1      0.19      0.00
   16   12    1      0.80      0.00
  -17   13    1     -0.45      0.00
  -15   13    1     -0.57      0.00
  -13   13    1      0.31      0.00
  -11   13    1      1.07      0.00
   -9   13    1      0.81      0.00
   -7   13    1      0.12      0.00
   -5   13    1     -0.41      0.00
   -3   13    1     -0.60      0.00
   -1   13    1     -0.15      0.00
    1   13    1      0.68      0.00
    3   13    1      1.21      0.00
    5   13    1      1.40      0.00
    7   13    1      1.27      0.00
    9   13    1      0.81      0.00
   11   13    1      0.56      0.00
   13   13    1      0.46      0.00
   15   13    1     -0.14      0.00
  -16   14    1      0.60      0.00
  -14   14    1      0.27      0.00
  -12   14    1     -0.83      0.00
  -10   14    1     -1.10      0.00
   -8   14    1     -0.37      0.00
   -6   14    1      0.18      0.00
   -4   14    1      0.05      0.00
   -2   14    1     -0.48      0.00
    0   14    1     -1.00      0.00
    2   14    1     -1.17      0.00
    4   14    1     -1.14      0.00
    6   14    1     -1.00      0.00
    8   14    1     -0.50      0.00
   10   14    1     -0.14      0.00
   12   14    1     -0.47      0.00
   14   14    1     -0.57      0.00
  -17   15    1     -0.13      0.00
  -15   15    1     -0.44      0.00
  -13   15    1      0.27      0.00
  -11   15    1      1.05      0.00
   -9   15    1      0.69      0.00
   -7   15    1     -0.09      0.00
   -5   15    1     -0.05      0.00
   -3   15    1      0.68      0.00
   -1   15    1      1.21      0.00
    1   15    1      1.16      0.00
    3   15    1      0.97      0.00
    5   15    1      0.91      0.00
    7   15    1      0.46      0.00
    9   15    1     -0.28      0.00
   11   15    1     -0.16      0.00
   13   15    1      0.61      0.00
   15   15    1      0.60      0.00
  -16   16    1      0.01      0.00
  -14   16    1     -0.04      0.00
  -12   16    1     -0.67      0.00
  -10   16    1     -0.80      0.00
   -8   16    1     -0.16      0.00
   -6   16    1      0.19      0.00
   -4   16    1     -0.32      0.00
   -2   16    1     -0.89      0.00
    0   16    1     -0.85      0.00
    2   16    1     -0.71      0.00
    4   16    1     -0.91      0.00
    6   16    1     -0.75      0.00
    8   16    1      0.18      0.00
   10   16    1      0.74      0.00
   12   16    1      0.07      0.00
   14   16    1     -0.72      0.00
  -15   17    1      0.42      0.00
  -13   17    1      0.53      0.00
  -11   17    1      0.59      0.00
   -9   17    1      0.32      0.00
   -7   17    1     -0.05      0.00
   -5   17    1     -0.03      0.00
   -3   17    1      0.18      0.00
   -1   17    1      0.03      0.00
    1   17    1      0.02      0.00
    3   17    1      0.72      0.00
    5   17    1      1.17      0.00
    7   17    1      0.42      0.00
    9   17    1     -0.68      0.00
   11   17    1     -0.79      0.00
   13   17    1      0.08      0.00
  -14   18    1     -0.97      0.00
  -12   18    1     -0.55      0.00
  -10   18    1     -0.12      0.00
   -8   18    1     -0.11      0.00
   -6   18    1     -0.11      0.00
   -4   18    1      0.21      0.00
   -2   18    1      0.90      0.00
    0   18    1      1.15      0.00
    2   18    1      0.00      0.00
    4   18    1     -1.40      0.00
    6   18    1     -1.21      0.00
    8   18    1      0.04      0.00
   10   18    1      0.88      0.00
   12   18    1      0.72      0.00
  -15   19    1      1.33      0.00
  -13   19    1      1.09      0.00
  -11   19    1     -0.02      0.00
   -9   19    1     -0.15      0.00
   -7   19    1      0.43      0.00
   -5   19    1      0.17      0.00
   -3   19    1     -1.13      0.00
   -1   19    1     -2.20      0.00
    1   19    1     -1.28      0.00
    3   19    1      1.03      0.00
    5   19    1      1.88      0.00
    7   19    1      0.80      0.00
    9   19    1     -0.38      0.00
   11   19    1     -0.98      0.00
   13   19    1     -0.76      0.00
  -14   20    1     -1.66      0.00
  -12   20    1     -0.45      0.00
  -10   20    1      0.58      0.00
   -8   20    1     -0.23      0.00
   -6   20    1     -0.86      0.00
   -4   20    1      0.30      0.00
   -2   20    1      2.22      0.00
    0   20    1      2.44      0.00
    2   20    1      0.07      0.00
    4   20    1     -2.03      0.00
    6   20    1     -1.59      0.00
    8   20    1     -0.28      0.00
   10   20    1      0.65      0.00
   12   20    1      1.22      0.00
  -13   21    1      1.23      0.00
  -11   21    1     -0.46      0.00
   -9   21    1     -0.44      0.00
   -7   21    1      0.97      0.00
   -5   21    1      0.90      0.00
   -3   21    1     -0.98      0.00
   -1   21    1     -2.48      0.00
    1   21    1     -1.32      0.00
    3   21    1      1.36      0.00
    5   21    1      2.10      0.00
    7   21    1      0.91      0.00
    9   21    1     -0.15      0.00
   11   21    1     -1.07      0.00
  -12   22    1     -0.25      0.00
  -10   22    1      0.79      0.00
   -8   22    1     -0.32      0.00
   -6   22    1     -1.40      0.00
   -4   22    1     -0.63      0.00
   -2   22    1      1.14      0.00
    0   22    1      1.66      0.00
    2   22    1     -0.16      0.00
    4   22    1     -1.92      0.00
    6   22    1     -1.50      0.00
    8   22    1     -0.33      0.00
   10   22    1      0.66      0.00
  -11   23    1     -0.43      0.00
   -9   23    1     -0.32      0.00
   -7   23    1      0.93      0.00
   -5   23    1      1.37      0.00
   -3   23    1      0.56      0.00
   -1   23    1     -0.67      0.00
    1   23    1     -0.61      0.00
    3   23    1      0.96      0.00
    5   23    1      1.72      0.00
    7   23    1      0.91      0.00
    9   23    1     -0.21      0.00
  -10   24    1      0.33      0.00
   -8   24    1     -0.23      0.00
   -6   24    1     -0.95      0.00
   -4   24    1     -1.26      0.00
   -2   24    1     -0.77      0.00
    0   24    1      0.27      0.00
    2   24    1      0.12      0.00
    4   24    1     -1.15      0.00
    6   24    1     -1.44      0.00
    8   24    1     -0.43      0.00
   -9   25    1      0.07      0.00
   -7   25    1      0.21      0.00
   -5   25    1      0.69      0.00
   -3   25    1      1.29      0.00
   -1   25    1      0.67      0.00
    1   25    1     -0.47      0.00
    3   25    1      0.03      0.00
    5   25    1      1.35      0.00
    7   25    1      1.23      0.00
   -8   26    1     -0.02      0.00
   -6   26    1      0.21      0.00
   -4   26    1     -0.57      0.00
   -2   26    1     -1.04      0.00
    0   26    1      0.09      0.00
    2   26    1      0.81      0.00
    4   26    1     -0.48      0.00
    6   26    1     -1.62      0.00
   -5   27    1     -0.47      0.00
   -3   27    1      0.41      0.00
   -1   27    1      0.19      0.00
    1   27    1     -0.96      0.00
    3   27    1     -0.56      0.00
  -20    0    2      1.80      0.00
  -18    0    2      1.69      0.00
  -16    0    2      0.59      0.00
  -14    0    2     -0.45      0.00
  -12    0    2     -1.56      0.00
  -10    0    2     -0.90      0.00
   -8    0    2      0.37      0.00
   -6    0    2     -2.70      0.00
   -4    0    2     -7.20      0.00
   -2    0    2     -6.04      0.00
    0    0    2     -1.41      0.00
    2    0    2      1.46      0.00
    4    0    2      2.59      0.00
    6    0    2      2.59      0.00
    8    0    2      1.07      0.00
   10    0    2     -1.33      0.00
   12    0    2     -2.83      0.00
   14    0    2     -1.60      0.00
   16    0    2      0.47      0.00
  -19    1    2     -1.83      0.00
  -17    1    2     -1.06      0.00
  -15    1    2     -0.14      0.00
  -13    1    2      0.92      0.00
  -11    1    2      1.49      0.00
   -9    1    2      0.11      0.00
   -7    1    2      0.51      0.00
   -5    1    2      4.82      0.00
   -3    1    2      6.67      0.00
   -1    1    2      3.23      0.00
    1    1    2     -0.45      0.00
    3    1    2     -2.01      0.00
    5    1    2     -2.53      0.00
    7    1    2     -1.80      0.00
    9    1    2      0.21      0.00
   11    1    2      2.34      0.00
   13    1    2      2.47      0.00
   15    1    2      0.34      0.00
  -20    2    2      1.25      0.00
  -18    2    2      1.18      0.00
  -16    2    2      0.52      0.00
  -14    2    2     -0.04      0.00
  -12    2    2     -1.07      0.00
  -10    2    2     -1.04      0.00
   -8    2    2     -0.08      0.00
   -6    2    2     -1.80      0.00
   -4    2    2     -4.58      0.00
   -2    2    2     -3.52      0.00
    0    2    2     -0.32      0.00
    2    2    2      1.33      0.00
    4    2    2      1.81      0.00
    6    2    2      1.72      0.00
    8    2    2      0.50      0.00
   10    2    2     -1.48      0.00
   12    2    2     -2.60      0.00
   14    2    2     -1.33      0.00
   16    2    2      0.59      0.00
  -19    3    2     -0.73      0.00
  -17    3    2     -0.52      0.00
  -15    3    2     -0.53      0.00
  -13    3    2     -0.03      0.00
  -11    3    2      1.10      0.00
   -9    3    2      0.96      0.00
   -7    3    2      0.59      0.00
   -5    3    2      1.70      0.00
   -3    3    2      1.87      0.00
   -1    3    2      0.03      0.00
    1    3    2     -1.18      0.00
    3    3    2     -1.12      0.00
    5    3    2     -1.00      0.00
    7    3    2     -0.58      0.00
    9    3    2      0.71      0.00
   11    3    2      2.15      0.00
   13    3    2      1.98      0.00
   15    3    2      0.11      0.00
  -20    4    2     -0.10      0.00
  -18    4    2      0.02      0.00
  -16    4    2      0.54      0.00
  -14    4    2      0.98      0.00
  -12    4    2     -0.09      0.00
  -10    4    2     -1.48      0.00
   -8    4    2     -1.28      0.00
   -6    4    2     -0.45      0.00
   -4    4    2      0.22      0.00
   -2    4    2      1.32      0.00
    0    4    2      1.91      0.00
    2    4    2      1.13      0.00
    4    4    2      0.25      0.00
    6    4    2      0.10      0.00
    8    4    2     -0.26      0.00
   10    4    2     -1.39      0.00
   12    4    2     -2.06      0.00
   14    4    2     -1.01      0.00
   16    4    2      0.52      0.00
  -19    5    2      0.83      0.00
  -17    5    2      0.04      0.00
  -15    5    2     -1.30      0.00
  -13    5    2     -1.17      0.00
  -11    5    2      0.82      0.00
   -9    5    2      2.16      0.00
   -7    5    2      1.25      0.00
   -5    5    2     -0.78      0.00
   -3    5    2     -2.53      0.00
   -1    5    2     -3.14      0.00
    1    5    2     -2.04      0.00
    3    5    2     -0.18      0.00
    5    5    2      0.57      0.00
    7    5    2      0.25      0.00
    9    5    2      0.54      0.00
   11    5    2      1.53      0.00
   13    5    2      1.58      0.00
   15    5    2      0.37      0.00
  -20    6    2     -1.42      0.00
  -18    6    2     -1.09      0.00
  -16    6    2      0.85      0.00
  -14    6    2      1.98      0.00
  -12    6    2      0.50      0.00
  -10    6    2     -1.95      0.00
   -8    6    2     -2.49      0.00
   -6    6    2     -0.48      0.00
   -4    6    2      2.21      0.00
   -2    6    2      3.73      0.00
    0    6    2      3.23      0.00
    2    6    2      1.03      0.00
    4    6    2     -0.82      0.00
    6    6    2     -0.65      0.00
    8    6    2      0.08      0.00
   10    6    2     -0.51      0.00
   12    6    2     -1.46      0.00
   14    6    2     -1.26      0.00
   16    6    2     -0.23      0.00
  -19    7    2      1.96      0.00
  -17    7    2      0.33      0.00
  -15    7    2     -1.95      0.00
  -13    7    2     -1.69      0.00
  -11    7    2      0.82      0.00
   -9    7    2      2.69      0.00
   -7    7    2      2.05      0.00
   -5    7    2     -0.44      0.00
   -3    7    2     -2.79      0.00
   -1    7    2     -3.58      0.00
    1    7    2     -2.23      0.00
    3    7    2      0.26      0.00
    5    7    2      1.10      0.00
    7    7    2     -0.10      0.00
    9    7    2     -0.55      0.00
   11    7    2      0.60      0.00
   13    7    2      1.52      0.00
   15    7    2      1.24      0.00
  -20    8    2     -1.86      0.00
  -18    8    2     -1.63      0.00
  -16    8    2      0.96      0.00
  -14    8    2      2.20      0.00
  -12    8    2      0.49      0.00
  -10    8    2     -1.83      0.00
   -8    8    2     -2.51      0.00
   -6    8    2     -1.28      0.00
   -4    8    2      0.78      0.00
   -2    8    2      2.47      0.00
    0    8    2      2.68      0.00
    2    8    2      0.82      0.00
    4    8    2     -1.05      0.00
    6    8    2     -0.45      0.00
    8    8    2      0.97      0.00
   10    8    2      0.54      0.00
   12    8    2     -0.97      0.00
   14    8    2     -1.72      0.00
   16    8    2     -1.17      0.00
  -19    9    2      2.04      0.00
  -17    9    2      0.56      0.00
  -15    9    2     -1.71      0.00
  -13    9    2     -1.38      0.00
  -11    9    2      0.61      0.00
   -9    9    2      1.82      0.00
   -7    9    2      1.72      0.00
   -5    9    2      0.81      0.00
   -3    9    2     -0.56      0.00
   -1    9    2     -1.83      0.00
    1    9    2     -1.52      0.00
    3    9    2      0.36      0.00
    5    9    2      0.97      0.00
    7    9    2     -0.49      0.00
    9    9    2     -1.16      0.00
   11    9    2      0.02      0.00
   13    9    2      1.40      0.00
   15    9    2      1.73      0.00
  -18   10    2     -1.53      0.00
  -16   10    2      0.38      0.00
  -14   10    2      1.41      0.00
  -12   10    2      0.38      0.00
  -10   10    2     -0.73      0.00
   -8   10    2     -1.02      0.00
   -6   10    2     -1.02      0.00
   -4   10    2     -0.73      0.00
   -2   10    2      0.31      0.00
    0   10    2      1.20      0.00
    2   10    2      0.42      0.00
    4   10    2     -0.90      0.00
    6   10    2     -0.42      0.00
    8   10    2      0.80      0.00
   10   10    2      0.56      0.00
   12   10    2     -0.64      0.00
   14   10    2     -1.51      0.00
  -19   11    2      1.25      0.00
  -17   11    2      0.82      0.00
  -15   11    2     -0.54      0.00
  -13   11    2     -0.69      0.00
  -11   11    2     -0.15      0.00
   -9   11    2      0.01      0.00
   -7   11    2      0.22      0.00
   -5   11    2      0.69      0.00
   -3   11    2      0.64      0.00
   -1   11    2     -0.26      0.00
    1   11    2     -0.66      0.00
    3   11    2      0.31      0.00
    5   11    2      0.92      0.00
    7   11    2      0.19      0.00
    9   11    2     -0.29      0.00
   11   11    2      0.18      0.00
   13   11    2      0.84      0.00
   15   11    2      1.16      0.00
  -18   12    2     -0.98      0.00
  -16   12    2     -0.49      0.00
  -14   12    2      0.19      0.00
  -12   12    2      0.46      0.00
  -10   12    2      0.72      0.00
   -8   12    2      0.70      0.00
   -6   12    2      0.11      0.00
   -4   12    2     -0.51      0.00
   -2   12    2     -0.35      0.00
    0   12    2      0.38      0.00
    2   12    2      0.28      0.00
    4   12    2     -0.68      0.00
    6   12    2     -0.96      0.00
    8   12    2     -0.56      0.00
   10   12    2     -0.40      0.00
   12   12    2     -0.43      0.00
   14   12    2     -0.55      0.00
  -17   13    2      0.75      0.00
  -15   13    2      0.56      0.00
  -13   13    2     -0.03      0.00
  -11   13    2     -0.89      0.00
   -9   13    2     -1.28      0.00
   -7   13    2     -0.80      0.00
   -5   13    2     -0.04      0.00
   -3   13    2      0.31      0.00
   -1   13    2     -0.08      0.00
    1   13    2     -0.57      0.00
    3   13    2      0.00      0.00
    5   13    2      1.00      0.00
    7   13    2      1.25      0.00
    9   13    2      1.01      0.00
   11   13    2      0.60      0.00
   13   13    2      0.14      0.00
  -18   14    2     -0.26      0.00
  -16   14    2     -0.66      0.00
  -14   14    2     -0.65      0.00
  -12   14    2      0.31      0.00
  -10   14    2      1.35      0.00
   -8   14    2      1.16      0.00
   -6   14    2      0.31      0.00
   -4   14    2     -0.18      0.00
   -2   14    2     -0.03      0.00
    0   14    2      0.62      0.00
    2   14    2      0.67      0.00
    4   14    2     -0.43      0.00
    6   14    2     -1.33      0.00
    8   14    2     -1.37      0.00
   10   14    2     -0.97      0.00
   12   14    2     -0.24      0.00
   14   14    2      0.28      0.00
  -17   15    2      0.05      0.00
  -15   15    2      0.67      0.00
  -13   15    2      0.61      0.00
  -11   15    2     -0.68      0.00
   -9   15    2     -1.25      0.00
   -7   15    2     -0.37      0.00
   -5   15    2      0.42      0.00
   -3   15    2      0.35      0.00
   -1   15    2     -0.42      0.00
    1   15    2     -1.06      0.00
    3   15    2     -0.33      0.00
    5   15    2      0.95      0.00
    7   15    2      1.25      0.00
    9   15    2      0.95      0.00
   11   15    2      0.48      0.00
   13   15    2     -0.22      0.00
  -16   16    2      0.17      0.00
  -14   16    2     -0.87      0.00
  -12   16    2     -0.56      0.00
  -10   16    2      0.74      0.00
   -8   16    2      0.56      0.00
   -6   16    2     -0.63      0.00
   -4   16    2     -1.02      0.00
   -2   16    2     -0.25      0.00
    0   16    2      0.93      0.00
    2   16    2      0.92      0.00
    4   16    2     -0.44      0.00
    6   16    2     -1.01      0.00
    8   16    2     -0.49      0.00
   10   16    2     -0.22      0.00
   12   16    2      0.03      0.00
  -15   17    2      0.00      0.00
  -13   17    2      1.33      0.00
  -11   17    2      0.55      0.00
   -9   17    2     -0.51      0.00
   -7   17    2      0.23      0.00
   -5   17    2      1.34      0.00
   -3   17    2      1.20      0.00
   -1   17    2     -0.13      0.00
    1   17    2     -0.99      0.00
    3   17    2     -0.02      0.00
    5   17    2      0.95      0.00
    7   17    2      0.20      0.00
    9   17    2     -0.54      0.00
   11   17    2     -0.30      0.00
  -16   18    2      1.11      0.00
  -14   18    2     -0.79      0.00
  -12   18    2     -1.79      0.00
  -10   18    2     -0.41      0.00
   -8   18    2      0.35      0.00
   -6   18    2     -0.63      0.00
   -4   18    2     -1.51      0.00
   -2   18    2     -0.94      0.00
    0   18    2      0.34      0.00
    2   18    2      0.22      0.00
    4   18    2     -0.98      0.00
    6   18    2     -0.54      0.00
    8   18    2      1.01      0.00
   10   18    2      1.12      0.00
   12   18    2      0.35      0.00
  -15   19    2     -0.52      0.00
  -13   19    2      1.81      0.00
  -11   19    2      1.79      0.00
   -9   19    2     -0.10      0.00
   -7   19    2     -0.64      0.00
   -5   19    2      0.45      0.00
   -3   19    2      1.23      0.00
   -1   19    2      0.66      0.00
    1   19    2      0.12      0.00
    3   19    2      0.96      0.00
    5   19    2      1.20      0.00
    7   19    2     -0.54      0.00
    9   19    2     -1.74      0.00
   11   19    2     -1.01      0.00
  -14   20    2     -0.64      0.00
  -12   20    2     -2.35      0.00
  -10   20    2     -1.12      0.00
   -8   20    2      1.10      0.00
   -6   20    2      1.44      0.00
   -4   20    2      0.06      0.00
   -2   20    2     -0.94      0.00
    0   20    2     -0.81      0.00
    2   20    2     -1.02      0.00
    4   20    2     -1.59      0.00
    6   20    2     -0.55      0.00
    8   20    2      1.40      0.00
   10   20    2      1.64      0.00
  -13   21    2      1.55      0.00
  -11   21    2      2.07      0.00
   -9   21    2     -0.16      0.00
   -7   21    2     -2.53      0.00
   -5   21    2     -2.33      0.00
   -3   21    2     -0.31      0.00
   -1   21    2      1.05      0.00
    1   21    2      1.30      0.00
    3   21    2      1.59      0.00
    5   21    2      1.36      0.00
    7   21    2     -0.23      0.00
    9   21    2     -1.50      0.00
  -12   22    2     -1.75      0.00
  -10   22    2     -1.14      0.00
   -8   22    2      1.86      0.00
   -6   22    2      3.89      0.00
   -4   22    2      2.61      0.00
   -2   22    2     -0.04      0.00
    0   22    2     -1.39      0.00
    2   22    2     -1.51      0.00
    4   22    2     -1.43      0.00
    6   22    2     -0.78      0.00
    8   22    2      0.54      0.00
  -11   23    2      1.42      0.00
   -9   23    2     -0.22      0.00
   -7   23    2     -3.54      0.00
   -5   23    2     -4.41      0.00
   -3   23    2     -1.94      0.00
   -1   23    2      0.68      0.00
    1   23    2      1.39      0.00
    3   23    2      1.12      0.00
    5   23    2      0.94      0.00
    7   23    2      0.43      0.00
  -10   24    2     -0.79      0.00
   -8   24    2      1.76      0.00
   -6   24    2      4.45      0.00
   -4   24    2      3.66      0.00
   -2   24    2      0.78      0.00
    0   24    2     -0.93      0.00
    2   24    2     -0.84      0.00
    4   24    2     -0.52      0.00
    6   24    2     -0.64      0.00
   -9   25    2     -0.13      0.00
   -7   25    2     -2.95      0.00
   -5   25    2     -4.03      0.00
   -3   25    2     -2.12      0.00
   -1   25    2      0.03      0.00
    1   25    2      0.57      0.00
    3   25    2      0.15      0.00
    5   25    2      0.20      0.00
   -8   26    2      1.20      0.00
   -6   26    2      3.11      0.00
   -4   26    2      2.59      0.00
   -2   26    2      0.82      0.00
    0   26    2     -0.15      0.00
    2   26    2     -0.04      0.00
    4   26    2      0.21      0.00
   -5   27    2     -2.19      0.00
   -3   27    2     -1.14      0.00
   -1   27    2     -0.25      0.00
    1   27    2     -0.01      0.00
  -21    1    3      1.24      0.00
  -19    1    3      1.20      0.00
  -17    1    3      0.38      0.00
  -15    1    3      0.14      0.00
  -13    1    3      0.40      0.00
  -11    1    3      0.33      0.00
   -9    1    3      0.45      0.00
   -7    1    3      0.55      0.00
   -5    1    3     -0.68      0.00
   -3    1    3     -2.05      0.00
   -1    1    3     -1.57      0.00
    1    1    3     -0.32      0.00
    3    1    3      0.17      0.00
    5    1    3      0.27      0.00
    7    1    3      0.29      0.00
    9    1    3      0.19      0.00
   11    1    3      0.29      0.00
   13    1    3      0.64      0.00
   15    1    3      0.74      0.00
  -20    2    3     -2.49      0.00
  -18    2    3     -1.54      0.00
  -16    2    3     -0.34      0.00
  -14    2    3     -0.55      0.00
  -12    2    3     -0.76      0.00
  -10    2    3     -0.57      0.00
   -8    2    3     -1.00      0.00
   -6    2    3     -0.11      0.00
   -4    2    3      2.75      0.00
   -2    2    3      3.59      0.00
    0    2    3      1.51      0.00
    2    2    3     -0.10      0.00
    4    2    3     -0.47      0.00
    6    2    3     -0.65      0.00
    8    2    3     -0.48      0.00
   10    2    3     -0.28      0.00
   12    2    3     -0.71      0.00
   14    2    3     -1.26      0.00
  -21    3    3      2.68      0.00
  -19    3    3      2.91      0.00
  -17    3    3      1.25      0.00
  -15    3    3      0.57      0.00
  -13    3    3      1.06      0.00
  -11    3    3      0.82      0.00
   -9    3    3      0.85      0.00
   -7    3    3      0.93      0.00
   -5    3    3     -1.71      0.00
   -3    3    3     -4.46      0.00
   -1    3    3     -3.18      0.00
    1    3    3     -0.46      0.00
    3    3    3      0.56      0.00
    5    3    3      0.93      0.00
    7    3    3      0.97      0.00
    9    3    3      0.38      0.00
   11    3    3      0.28      0.00
   13    3    3      1.04      0.00
   15    3    3      1.52      0.00
  -20    4    3     -3.25      0.00
  -18    4    3     -2.57      0.00
  -16    4    3     -1.07      0.00
  -14    4    3     -1.11      0.00
  -12    4    3     -1.24      0.00
  -10    4    3     -0.69      0.00
   -8    4    3     -0.87      0.00
   -6    4    3      0.27      0.00
   -4    4    3      3.50      0.00
   -2    4    3      4.11      0.00
    0    4    3      1.42      0.00
    2    4    3     -0.41      0.00
    4    4    3     -0.99      0.00
    6    4    3     -1.43      0.00
    8    4    3     -0.87      0.00
   10    4    3      0.06      0.00
   12    4    3     -0.17      0.00
   14    4    3     -1.16      0.00
  -21    5    3      2.19      0.00
  -19    5    3      3.12      0.00
  -17    5    3      2.08      0.00
  -15    5    3      1.33      0.00
  -13    5    3      1.56      0.00
  -11    5    3      1.01      0.00
   -9    5    3      0.46      0.00
   -7    5    3      0.27      0.00
   -5    5    3     -1.71      0.00
   -3    5    3     -3.51      0.00
   -1    5    3     -2.09      0.00
    1    5    3      0.02      0.00
    3    5    3      0.79      0.00
    5    5    3      1.48      0.00
    7    5    3      1.50      0.00
    9    5    3      0.17      0.00
   11    5    3     -0.65      0.00
   13    5    3      0.07      0.00
   15    5    3      1.09      0.00
  -20    6    3     -2.33      0.00
  -18    6    3     -2.67      0.00
  -16    6    3     -1.92      0.00
  -14    6    3     -1.83      0.00
  -12    6    3     -1.61      0.00
  -10    6    3     -0.52      0.00
   -8    6    3     -0.04      0.00
   -6    6    3      0.50      0.00
   -4    6    3      1.90      0.00
   -2    6    3      1.82      0.00
    0    6    3      0.29      0.00
    2    6    3     -0.45      0.00
    4    6    3     -1.05      0.00
    6    6    3     -1.70      0.00
    8    6    3     -0.79      0.00
   10    6    3      0.82      0.00
   12    6    3      1.02      0.00
   14    6    3     -0.14      0.00
  -19    7    3      2.18      0.00
  -17    7    3      2.27      0.00
  -15    7    3      2.13      0.00
  -13    7    3      2.19      0.00
  -11    7    3      1.19      0.00
   -9    7    3     -0.07      0.00
   -7    7    3     -0.27      0.00
   -5    7    3     -0.46      0.00
   -3    7    3     -0.72      0.00
   -1    7    3     -0.19      0.00
    1    7    3      0.18      0.00
    3    7    3      0.39      0.00
    5    7    3      1.22      0.00
    7    7    3      1.15      0.00
    9    7    3     -0.43      0.00
   11    7    3     -1.48      0.00
   13    7    3     -0.88      0.00
  -20    8    3     -1.18      0.00
  -18    8    3     -1.83      0.00
  -16    8    3     -2.10      0.00
  -14    8    3     -2.53      0.00
  -12    8    3     -2.10      0.00
  -10    8    3     -0.43      0.00
   -8    8    3      0.40      0.00
   -6    8    3     -0.13      0.00
   -4    8    3     -0.48      0.00
   -2    8    3     -0.40      0.00
    0    8    3     -0.12      0.00
    2    8    3      0.16      0.00
    4    8    3     -0.37      0.00
    6    8    3     -0.89      0.00
    8    8    3      0.06      0.00
   10    8    3      1.38      0.00
   12    8    3      1.38      0.00
   14    8    3      0.35      0.00
  -19    9    3      1.06      0.00
  -17    9    3      1.37      0.00
  -15    9    3      2.23      0.00
  -13    9    3      2.75      0.00
  -11    9    3      1.41      0.00
   -9    9    3     -0.27      0.00
   -7    9    3      0.01      0.00
   -5    9    3      1.11      0.00
   -3    9    3      1.14      0.00
   -1    9    3      0.30      0.00
    1    9    3     -0.47      0.00
    3    9    3     -0.38      0.00
    5    9    3      0.24      0.00
    7    9    3     -0.08      0.00
    9    9    3     -1.21      0.00
   11    9    3     -1.47      0.00
   13    9    3     -0.64      0.00
  -20   10    3     -0.88      0.00
  -18   10    3     -0.49      0.00
  -16   10    3     -1.05      0.00
  -14   10    3     -2.51      0.00
  -12   10    3     -2.37      0.00
  -10   10    3     -0.38      0.00
   -8   10    3      0.31      0.00
   -6   10    3     -0.99      0.00
   -4   10    3     -1.63      0.00
   -2   10    3     -0.62      0.00
    0   10    3      0.59      0.00
    2   10    3      0.85      0.00
    4   10    3      0.31      0.00
    6   10    3      0.28      0.00
    8   10    3      1.22      0.00
   10   10    3      1.63      0.00
   12   10    3      0.76      0.00
   14   10    3     -0.12      0.00
  -19   11    3      0.43      0.00
  -17   11    3     -0.32      0.00
  -15   11    3      1.04      0.00
  -13   11    3      2.51      0.00
  -11   11    3      1.35      0.00
   -9   11    3     -0.33      0.00
   -7   11    3      0.32      0.00
   -5   11    3      1.56      0.00
   -3   11    3      0.94      0.00
   -1   11    3     -0.56      0.00
    1   11    3     -1.10      0.00
    3   11    3     -0.58      0.00
    5   11    3     -0.26      0.00
    7   11    3     -1.09      0.00
    9   11    3     -1.94      0.00
   11   11    3     -1.23      0.00
   13   11    3      0.15      0.00
  -18   12    3      0.67      0.00
  -16   12    3      0.94      0.00
  -14   12    3     -1.20      0.00
  -12   12    3     -1.92      0.00
  -10   12    3     -0.23      0.00
   -8   12    3      0.36      0.00
   -6   12    3     -0.86      0.00
   -4   12    3     -1.00      0.00
   -2   12    3      0.40      0.00
    0   12    3      1.24      0.00
    2   12    3      0.73      0.00
    4   12    3     -0.02      0.00
    6   12    3      0.46      0.00
    8   12    3      1.88      0.00
   10   12    3      2.04      0.00
   12   12    3      0.44      0.00
  -19   13    3      0.19      0.00
  -17   13    3     -1.93      0.00
  -15   13    3     -1.08      0.00
  -13   13    3      1.20      0.00
  -11   13    3      1.00      0.00
   -9   13    3     -0.41      0.00
   -7   13    3     -0.12      0.00
   -5   13    3      0.58      0.00
   -3   13    3     -0.21      0.00
   -1   13    3     -1.22      0.00
    1   13    3     -0.91      0.00
    3   13    3      0.23      0.00
    5   13    3      0.51      0.00
    7   13    3     -0.96      0.00
    9   13    3     -2.45      0.00
   11   13    3     -1.66      0.00
   13   13    3      0.21      0.00
  -18   14    3      1.29      0.00
  -16   14    3      2.75      0.00
  -14   14    3      0.81      0.00
  -12   14    3     -1.02      0.00
  -10   14    3     -0.27      0.00
   -8   14    3      0.61      0.00
   -6   14    3      0.24      0.00
   -4   14    3      0.27      0.00
   -2   14    3      1.03      0.00
    0   14    3      1.06      0.00
    2   14    3     -0.11      0.00
    4   14    3     -1.23      0.00
    6   14    3     -0.52      0.00
    8   14    3      1.76      0.00
   10   14    3      2.68      0.00
   12   14    3      1.06      0.00
  -17   15    3     -2.67      0.00
  -15   15    3     -2.79      0.00
  -13   15    3     -0.25      0.00
  -11   15    3      0.89      0.00
   -9   15    3     -0.13      0.00
   -7   15    3     -0.82      0.00
   -5   15    3     -0.68      0.00
   -3   15    3     -0.84      0.00
   -1   15    3     -1.04      0.00
    1   15    3     -0.26      0.00
    3   15    3      1.28      0.00
    5   15    3      1.75      0.00
    7   15    3     -0.17      0.00
    9   15    3     -2.57      0.00
   11   15    3     -2.42      0.00
  -16   16    3      3.32      0.00
  -14   16    3      2.01      0.00
  -12   16    3     -0.54      0.00
  -10   16    3     -0.85      0.00
   -8   16    3      0.50      0.00
   -6   16    3      1.13      0.00
   -4   16    3      0.90      0.00
   -2   16    3      0.86      0.00
    0   16    3      0.59      0.00
    2   16    3     -0.75      0.00
    4   16    3     -2.11      0.00
    6   16    3     -1.36      0.00
    8   16    3      1.33      0.00
   10   16    3      2.88      0.00
  -17   17    3     -2.41      0.00
  -15   17    3     -2.88      0.00
  -13   17    3     -0.62      0.00
  -11   17    3      1.31      0.00
   -9   17    3      0.59      0.00
   -7   17    3     -0.98      0.00
   -5   17    3     -1.19      0.00
   -3   17    3     -0.75      0.00
   -1   17    3     -0.69      0.00
    1   17    3      0.04      0.00
    3   17    3      1.65      0.00
    5   17    3      2.07      0.00
    7   17    3      0.14      0.00
    9   17    3     -2.18      0.00
   11   17    3     -2.34      0.00
  -16   18    3      2.45      0.00
  -14   18    3      1.50      0.00
  -12   18    3     -0.87      0.00
  -10   18    3     -1.59      0.00
   -8   18    3      0.06      0.00
   -6   18    3      1.30      0.00
   -4   18    3      0.92      0.00
   -2   18    3      0.64      0.00
    0   18    3      0.47      0.00
    2   18    3     -0.83      0.00
    4   18    3     -1.94      0.00
    6   18    3     -1.02      0.00
    8   18    3      1.05      0.00
   10   18    3      2.07      0.00
  -15   19    3     -1.47      0.00
  -13   19    3      0.19      0.00
  -11   19    3      1.78      0.00
   -9   19    3      1.08      0.00
   -7   19    3     -0.86      0.00
   -5   19    3     -1.26      0.00
   -3   19    3     -0.71      0.00
   -1   19    3     -0.68      0.00
    1   19    3      0.07      0.00
    3   19    3      1.42      0.00
    5   19    3      1.25      0.00
    7   19    3     -0.29      0.00
    9   19    3     -1.33      0.00
  -14   20    3      0.02      0.00
  -12   20    3     -1.39      0.00
  -10   20    3     -1.71      0.00
   -8   20    3     -0.01      0.00
   -6   20    3      1.40      0.00
   -4   20    3      1.08      0.00
   -2   20    3      0.76      0.00
    0   20    3      0.42      0.00
    2   20    3     -0.86      0.00
    4   20    3     -1.24      0.00
    6   20    3     -0.03      0.00
    8   20    3      0.83      0.00
  -13   21    3      1.05      0.00
  -11   21    3      1.64      0.00
   -9   21    3      0.78      0.00
   -7   21    3     -1.08      0.00
   -5   21    3     -1.58      0.00
   -3   21    3     -1.02      0.00
   -1   21    3     -0.66      0.00
    1   21    3      0.37      0.00
    3   21    3      1.25      0.00
    5   21    3      0.33      0.00
    7   21    3     -0.69      0.00
  -12   22    3     -1.31      0.00
  -10   22    3     -1.06      0.00
   -8   22    3      0.43      0.00
   -6   22    3      1.73      0.00
   -4   22    3      1.50      0.00
   -2   22    3      0.88      0.00
    0   22    3      0.02      0.00
    2   22    3     -1.17      0.00
    4   22    3     -0.85      0.00
    6   22    3      0.48      0.00
  -11   23    3      0.91      0.00
   -9   23    3      0.12      0.00
   -7   23    3     -1.33      0.00
   -5   23    3     -1.82      0.00
   -3   23    3     -1.21      0.00
   -1   23    3     -0.37      0.00
    1   23    3      0.86      0.00
    3   23    3      1.30      0.00
    5   23    3      0.11      0.00
  -10   24    3     -0.28      0.00
   -8   24    3      0.65      0.00
   -6   24    3      1.58      0.00
   -4   24    3      1.45      0.00
   -2   24    3      0.70      0.00
    0   24    3     -0.39      0.00
    2   24    3     -1.34      0.00
    4   24    3     -0.83      0.00
   -9   25    3     -0.20      0.00
   -7   25    3     -0.88      0.00
   -5   25    3     -1.21      0.00
   -3   25    3     -0.89      0.00
   -1   25    3     -0.12      0.00
    1   25    3      0.92      0.00
    3   25    3      1.21      0.00
   -6   26    3      0.53      0.00
   -4   26    3      0.64      0.00
   -2   26    3      0.44      0.00
    0   26    3     -0.29      0.00
  -20    0    4     -1.40      0.00
  -18    0    4     -0.11      0.00
  -16    0    4      1.49      0.00
  -14    0    4      1.01      0.00
  -12    0    4     -0.30      0.00
  -10    0    4     -0.10      0.00
   -8    0    4      0.15      0.00
   -6    0    4      0.11      0.00
   -4    0    4      1.92      0.00
   -2    0    4      3.34      0.00
    0    0    4      1.88      0.00
    2    0    4      0.05      0.00
    4    0    4     -1.23      0.00
    6    0    4     -2.39      0.00
    8    0    4     -0.99      0.00
   10    0    4      2.35      0.00
   12    0    4      3.41      0.00
  -21    1    4      1.17      0.00
  -19    1    4      0.83      0.00
  -17    1    4     -0.78      0.00
  -15    1    4     -1.38      0.00
  -13    1    4     -0.20      0.00
  -11    1    4      0.33      0.00
   -9    1    4     -0.15      0.00
   -7    1    4      0.09      0.00
   -5    1    4     -0.62      0.00
   -3    1    4     -2.71      0.00
   -1    1    4     -2.68      0.00
    1    1    4     -0.80      0.00
    3    1    4      0.48      0.00
    5    1    4      1.75      0.00
    7    1    4      1.97      0.00
    9    1    4     -0.62      0.00
   11    1    4     -3.09      0.00
   13    1    4     -2.67      0.00
  -20    2    4     -0.80      0.00
  -18    2    4      0.04      0.00
  -16    2    4      0.96      0.00
  -14    2    4      0.58      0.00
  -12    2    4     -0.21      0.00
  -10    2    4      0.02      0.00
   -8    2    4     -0.03      0.00
   -6    2    4     -0.33      0.00
   -4    2    4      1.10      0.00
   -2    2    4      2.42      0.00
    0    2    4      1.44      0.00
    2    2    4      0.15      0.00
    4    2    4     -0.70      0.00
    6    2    4     -1.65      0.00
    8    2    4     -0.84      0.00
   10    2    4      1.62      0.00
   12    2    4      2.65      0.00
  -21    3    4      0.34      0.00
  -19    3    4      0.05      0.00
  -17    3    4     -0.37      0.00
  -15    3    4     -0.40      0.00
  -13    3    4      0.02      0.00
  -11    3    4     -0.02      0.00
   -9    3    4     -0.16      0.00
   -7    3    4      0.53      0.00
   -5    3    4      0.42      0.00
   -3    3    4     -1.04      0.00
   -1    3    4     -1.39      0.00
    1    3    4     -0.50      0.00
    3    3    4     -0.01      0.00
    5    3    4      0.60      0.00
    7    3    4      1.05      0.00
    9    3    4     -0.05      0.00
   11    3    4     -1.60      0.00
   13    3    4     -1.81      0.00
  -20    4    4      0.29      0.00
  -18    4    4      0.26      0.00
  -16    4    4      0.04      0.00
  -14    4    4     -0.11      0.00
  -12    4    4      0.07      0.00
  -10    4    4      0.38      0.00
   -8    4    4     -0.12      0.00
   -6    4    4     -0.97      0.00
   -4    4    4     -0.53      0.00
   -2    4    4      0.46      0.00
    0    4    4      0.45      0.00
    2    4    4      0.16      0.00
    4    4    4      0.12      0.00
    6    4    4     -0.33      0.00
    8    4    4     -0.56      0.00
   10    4    4      0.22      0.00
   12    4    4      1.16      0.00
  -21    5    4     -0.48      0.00
  -19    5    4     -0.51      0.00
  -17    5    4     -0.01      0.00
  -15    5    4      0.29      0.00
  -13    5    4      0.04      0.00
  -11    5    4     -0.50      0.00
   -9    5    4     -0.46      0.00
   -7    5    4      0.53      0.00
   -5    5    4      1.24      0.00
   -3    5    4      0.77      0.00
   -1    5    4      0.12      0.00
    1    5    4      0.02      0.00
    3    5    4     -0.11      0.00
    5    5    4     -0.22      0.00
    7    5    4      0.23      0.00
    9    5    4      0.51      0.00
   11    5    4     -0.13      0.00
   13    5    4     -0.91      0.00
  -20    6    4      0.61      0.00
  -18    6    4      0.19      0.00
  -16    6    4     -0.19      0.00
  -14    6    4     -0.13      0.00
  -12    6    4      0.38      0.00
  -10    6    4      0.78      0.00
   -8    6    4      0.31      0.00
   -6    6    4     -0.82      0.00
   -4    6    4     -1.36      0.00
   -2    6    4     -0.89      0.00
    0    6    4     -0.37      0.00
    2    6    4     -0.24      0.00
    4    6    4      0.03      0.00
    6    6    4      0.11      0.00
    8    6    4     -0.44      0.00
   10    6    4     -0.55      0.00
   12    6    4      0.28      0.00
  -21    7    4     -0.50      0.00
  -19    7    4     -0.12      0.00
  -17    7    4      0.03      0.00
  -15    7    4     -0.06      0.00
  -13    7    4     -0.27      0.00
  -11    7    4     -0.68      0.00
   -9    7    4     -0.81      0.00
   -7    7    4     -0.12      0.00
   -5    7    4      0.93      0.00
   -3    7    4      1.22      0.00
   -1    7    4      0.71      0.00
    1    7    4      0.51      0.00
    3    7    4      0.51      0.00
    5    7    4      0.15      0.00
    7    7    4      0.19      0.00
    9    7    4      0.62      0.00
   11    7    4      0.22      0.00
   13    7    4     -0.54      0.00
  -20    8    4     -0.16      0.00
  -18    8    4     -0.28      0.00
  -16    8    4      0.27      0.00
  -14    8    4      0.45      0.00
  -12    8    4      0.46      0.00
  -10    8    4      0.71      0.00
   -8    8    4      0.70      0.00
   -6    8    4     -0.02      0.00
   -4    8    4     -0.77      0.00
   -2    8    4     -0.74      0.00
    0    8    4     -0.55      0.00
    2    8    4     -0.80      0.00
    4    8    4     -0.72      0.00
    6    8    4     -0.32      0.00
    8    8    4     -0.44      0.00
   10    8    4     -0.37      0.00
   12    8    4      0.32      0.00
  -19    9    4      0.85      0.00
  -17    9    4      0.07      0.00
  -15    9    4     -0.69      0.00
  -13    9    4     -0.49      0.00
  -11    9    4     -0.33      0.00
   -9    9    4     -0.53      0.00
   -7    9    4     -0.49      0.00
   -5    9    4     -0.03      0.00
   -3    9    4      0.27      0.00
   -1    9    4      0.31      0.00
    1    9    4      0.69      0.00
    3    9    4      1.01      0.00
    5    9    4      0.63      0.00
    7    9    4      0.35      0.00
    9    9    4      0.34      0.00
   11    9    4     -0.18      0.00
  -20   10    4     -1.08      0.00
  -18   10    4     -0.88      0.00
  -16   10    4      0.39      0.00
  -14   10    4      0.68      0.00
  -12   10    4      0.17      0.00
  -10   10    4     -0.01      0.00
   -8   10    4      0.19      0.00
   -6   10    4      0.38      0.00
   -4   10    4      0.37      0.00
   -2   10    4      0.19      0.00
    0   10    4     -0.31      0.00
    2   10    4     -0.86      0.00
    4   10    4     -0.70      0.00
    6   10    4     -0.19      0.00
    8   10    4     -0.15      0.00
   10   10    4      0.05      0.00
   12   10    4      0.50      0.00
  -19   11    4      1.41      0.00
  -17   11    4      0.50      0.00
  -15   11    4     -0.43      0.00
  -13   11    4     -0.25      0.00
  -11   11    4      0.29      0.00
   -9   11    4      0.49      0.00
   -7   11    4      0.10      0.00
   -5   11    4     -0.56      0.00
   -3   11    4     -0.72      0.00
   -1   11    4     -0.18      0.00
    1   11    4      0.49      0.00
    3   11    4      0.45      0.00
    5   11    4     -0.23      0.00
    7   11    4     -0.39      0.00
    9   11    4     -0.13      0.00
   11   11    4     -0.32      0.00
  -18   12    4     -1.22      0.00
  -16   12    4     -0.38      0.00
  -14   12    4      0.07      0.00
  -12   12    4     -0.21      0.00
  -10   12    4     -0.84      0.00
   -8   12    4     -0.94      0.00
   -6   12    4     -0.02      0.00
   -4   12    4      0.85      0.00
   -2   12    4      0.62      0.00
    0   12    4     -0.13      0.00
    2   12    4     -0.17      0.00
    4   12    4      0.75      0.00
    6   12    4      1.35      0.00
    8   12    4      0.79      0.00
   10   12    4      0.21      0.00
  -19   13    4      1.16      0.00
  -17   13    4      1.12      0.00
  -15   13    4      0.61      0.00
  -13   13    4      0.21      0.00
  -11   13    4      0.62      0.00
   -9   13    4      1.40      0.00
   -7   13    4      0.97      0.00
   -5   13    4     -0.39      0.00
   -3   13    4     -0.79      0.00
   -1   13    4     -0.16      0.00
    1   13    4      0.03      0.00
    3   13    4     -0.99      0.00
    5   13    4     -2.28      0.00
    7   13    4     -2.11      0.00
    9   13    4     -0.72      0.00
   11   13    4     -0.02      0.00
  -18   14    4     -1.13      0.00
  -16   14    4     -1.27      0.00
  -14   14    4     -0.65      0.00
  -12   14    4     -0.29      0.00
  -10   14    4     -1.13      0.00
   -8   14    4     -1.60      0.00
   -6   14    4     -0.42      0.00
   -4   14    4      0.63      0.00
   -2   14    4      0.35      0.00
    0   14    4      0.04      0.00
    2   14    4      0.88      0.00
    4   14    4      2.60      0.00
    6   14    4      3.43      0.00
    8   14    4      2.08      0.00
   10   14    4      0.23      0.00
  -17   15    4      1.28      0.00
  -15   15    4      1.18      0.00
  -13   15    4      0.31      0.00
  -11   15    4      0.47      0.00
   -9   15    4      1.52      0.00
   -7   15    4      1.11      0.00
   -5   15    4     -0.25      0.00
   -3   15    4     -0.49      0.00
   -1   15    4     -0.17      0.00
    1   15    4     -0.69      0.00
    3   15    4     -2.24      0.00
    5   15    4     -3.92      0.00
    7   15    4     -3.66      0.00
    9   15    4     -1.30      0.00
  -18   16    4     -0.73      0.00
  -16   16    4     -1.21      0.00
  -14   16    4     -0.57      0.00
  -12   16    4      0.00      0.00
  -10   16    4     -0.87      0.00
   -8   16    4     -1.35      0.00
   -6   16    4     -0.19      0.00
   -4   16    4      0.62      0.00
   -2   16    4      0.47      0.00
    0   16    4      0.73      0.00
    2   16    4      1.75      0.00
    4   16    4      3.40      0.00
    6   16    4      4.41      0.00
    8   16    4      2.85      0.00
   10   16    4      0.29      0.00
  -17   17    4      0.72      0.00
  -15   17    4      0.57      0.00
  -13   17    4     -0.18      0.00
  -11   17    4      0.11      0.00
   -9   17    4      1.11      0.00
   -7   17    4      0.61      0.00
   -5   17    4     -0.62      0.00
   -3   17    4     -0.91      0.00
   -1   17    4     -1.06      0.00
    1   17    4     -1.63      0.00
    3   17    4     -2.56      0.00
    5   17    4     -3.93      0.00
    7   17    4     -3.86      0.00
    9   17    4     -1.46      0.00
  -16   18    4     -0.23      0.00
  -14   18    4      0.30      0.00
  -12   18    4      0.48      0.00
  -10   18    4     -0.49      0.00
   -8   18    4     -0.88      0.00
   -6   18    4      0.27      0.00
   -4   18    4      1.23      0.00
   -2   18    4      1.58      0.00
    0   18    4      1.95      0.00
    2   18    4      2.16      0.00
    4   18    4      2.84      0.00
    6   18    4      3.68      0.00
    8   18    4      2.50      0.00
  -15   19    4     -0.53      0.00
  -13   19    4     -0.87      0.00
  -11   19    4     -0.28      0.00
   -9   19    4      0.73      0.00
   -7   19    4      0.37      0.00
   -5   19    4     -0.98      0.00
   -3   19    4     -1.93      0.00
   -1   19    4     -2.44      0.00
    1   19    4     -2.36      0.00
    3   19    4     -2.09      0.00
    5   19    4     -2.65      0.00
    7   19    4     -2.68      0.00
  -14   20    4      1.07      0.00
  -12   20    4      0.95      0.00
  -10   20    4     -0.07      0.00
   -8   20    4     -0.73      0.00
   -6   20    4      0.13      0.00
   -4   20    4      1.63      0.00
   -2   20    4      2.67      0.00
    0   20    4      2.77      0.00
    2   20    4      2.02      0.00
    4   20    4      1.69      0.00
    6   20    4      2.00      0.00
  -13   21    4     -1.26      0.00
  -11   21    4     -0.79      0.00
   -9   21    4      0.33      0.00
   -7   21    4      0.63      0.00
   -5   21    4     -0.56      0.00
   -3   21    4     -2.19      0.00
   -1   21    4     -2.88      0.00
    1   21    4     -2.28      0.00
    3   21    4     -1.35      0.00
    5   21    4     -1.14      0.00
  -12   22    4      1.27      0.00
  -10   22    4      0.59      0.00
   -8   22    4     -0.53      0.00
   -6   22    4     -0.55      0.00
   -4   22    4      0.92      0.00
   -2   22    4      2.30      0.00
    0   22    4      2.30      0.00
    2   22    4      1.41      0.00
    4   22    4      0.70      0.00
  -11   23    4     -1.25      0.00
   -9   23    4     -0.39      0.00
   -7   23    4      0.73      0.00
   -5   23    4      0.47      0.00
   -3   23    4     -0.98      0.00
   -1   23    4     -1.75      0.00
    1   23    4     -1.37      0.00
    3   23    4     -0.66      0.00
  -10   24    4      1.20      0.00
   -8   24    4      0.12      0.00
   -6   24    4     -0.93      0.00
   -4   24    4     -0.48      0.00
   -2   24    4      0.63      0.00
    0   24    4      0.93      0.00
    2   24    4      0.63      0.00
   -7   25    4      0.21      0.00
   -5   25    4      1.12      0.00
   -3   25    4      0.62      0.00
   -1   25    4     -0.14      0.00
  -21    1    5      0.04      0.00
  -19    1    5      0.57      0.00
  -17    1    5      0.39      0.00
  -15    1    5      0.11      0.00
  -13    1    5      0.19      0.00
  -11    1    5      0.30      0.00
   -9    1    5      0.38      0.00
   -7    1    5      0.47      0.00
   -5    1    5      0.47      0.00
   -3    1    5      0.37      0.00
   -1    1    5      0.17      0.00
    1    1    5      0.10      0.00
    3    1    5      0.19      0.00
    5    1    5     -0.19      0.00
    7    1    5     -0.75      0.00
    9    1    5     -0.55      0.00
   11    1    5     -0.05      0.00
  -20    2    5     -0.70      0.00
  -18    2    5     -1.10      0.00
  -16    2    5     -0.42      0.00
  -14    2    5     -0.20      0.00
  -12    2    5     -0.46      0.00
  -10    2    5     -0.62      0.00
   -8    2    5     -0.78      0.00
   -6    2    5     -0.83      0.00
   -4    2    5     -0.72      0.00
   -2    2    5     -0.44      0.00
    0    2    5     -0.10      0.00
    2    2    5     -0.20      0.00
    4    2    5     -0.09      0.00
    6    2    5      0.93      0.00
    8    2    5      1.31      0.00
   10    2    5      0.41      0.00
  -21    3    5      0.06      0.00
  -19    3    5      1.53      0.00
  -17    3    5      1.18      0.00
  -15    3    5      0.30      0.00
  -13    3    5      0.36      0.00
  -11    3    5      0.70      0.00
   -9    3    5      0.93      0.00
   -7    3    5      1.02      0.00
   -5    3    5      0.85      0.00
   -3    3    5      0.60      0.00
   -1    3    5      0.15      0.00
    1    3    5     -0.06      0.00
    3    3    5      0.17      0.00
    5    3    5     -0.51      0.00
    7    3    5     -1.59      0.00
    9    3    5     -1.03      0.00
   11    3    5      0.02      0.00
  -20    4    5     -1.08      0.00
  -18    4    5     -1.94      0.00
  -16    4    5     -0.86      0.00
  -14    4    5     -0.21      0.00
  -12    4    5     -0.53      0.00
  -10    4    5     -0.90      0.00
   -8    4    5     -1.07      0.00
   -6    4    5     -0.85      0.00
   -4    4    5     -0.51      0.00
   -2    4    5     -0.16      0.00
    0    4    5      0.31      0.00
    2    4    5      0.21      0.00
    4    4    5      0.17      0.00
    6    4    5      1.18      0.00
    8    4    5      1.42      0.00
   10    4    5      0.25      0.00
  -21    5    5      0.03      0.00
  -19    5    5      1.90      0.00
  -17    5    5      1.69      0.00
  -15    5    5      0.43      0.00
  -13    5    5      0.24      0.00
  -11    5    5      0.68      0.00
   -9    5    5      0.99      0.00
   -7    5    5      0.83      0.00
   -5    5    5      0.31      0.00
   -3    5    5     -0.02      0.00
   -1    5    5     -0.42      0.00
    1    5    5     -0.70      0.00
    3    5    5     -0.37      0.00
    5    5    5     -0.61      0.00
    7    5    5     -1.25      0.00
    9    5    5     -0.60      0.00
   11    5    5      0.22      0.00
  -20    6    5     -0.95      0.00
  -18    6    5     -1.98      0.00
  -16    6    5     -1.03      0.00
  -14    6    5     -0.19      0.00
  -12    6    5     -0.36      0.00
  -10    6    5     -0.76      0.00
   -8    6    5     -0.80      0.00
   -6    6    5     -0.23      0.00
   -4    6    5      0.30      0.00
   -2    6    5      0.52      0.00
    0    6    5      0.90      0.00
    2    6    5      0.85      0.00
    4    6    5      0.46      0.00
    6    6    5      0.74      0.00
    8    6    5      0.74      0.00
   10    6    5     -0.04      0.00
  -21    7    5     -0.05      0.00
  -19    7    5      1.31      0.00
  -17    7    5      1.34      0.00
  -15    7    5      0.47      0.00
  -13    7    5      0.23      0.00
  -11    7    5      0.49      0.00
   -9    7    5      0.68      0.00
   -7    7    5      0.33      0.00
   -5    7    5     -0.38      0.00
   -3    7    5     -0.66      0.00
   -1    7    5     -0.84      0.00
    1    7    5     -1.08      0.00
    3    7    5     -0.68      0.00
    5    7    5     -0.34      0.00
    7    7    5     -0.56      0.00
    9    7    5     -0.31      0.00
   11    7    5      0.11      0.00
  -20    8    5     -0.31      0.00
  -18    8    5     -0.85      0.00
  -16    8    5     -0.58      0.00
  -14    8    5     -0.34      0.00
  -12    8    5     -0.41      0.00
  -10    8    5     -0.53      0.00
   -8    8    5     -0.44      0.00
   -6    8    5      0.16      0.00
   -4    8    5      0.64      0.00
   -2    8    5      0.69      0.00
    0    8    5      0.90      0.00
    2    8    5      0.85      0.00
    4    8    5      0.23      0.00
    6    8    5      0.18      0.00
    8    8    5      0.54      0.00
   10    8    5      0.33      0.00
  -19    9    5     -0.05      0.00
  -17    9    5      0.02      0.00
  -15    9    5      0.26      0.00
  -13    9    5      0.54      0.00
  -11    9    5      0.55      0.00
   -9    9    5      0.50      0.00
   -7    9    5      0.20      0.00
   -5    9    5     -0.34      0.00
   -3    9    5     -0.46      0.00
   -1    9    5     -0.50      0.00
    1    9    5     -0.68      0.00
    3    9    5     -0.25      0.00
    5    9    5      0.21      0.00
    7    9    5     -0.38      0.00
    9    9    5     -0.90      0.00
  -20   10    5      0.49      0.00
  -18   10    5      0.90      0.00
  -16   10    5      0.45      0.00
  -14   10    5     -0.47      0.00
  -12   10    5     -0.77      0.00
  -10   10    5     -0.64      0.00
   -8   10    5     -0.52      0.00
   -6   10    5     -0.15      0.00
   -4   10    5      0.11      0.00
   -2   10    5      0.05      0.00
    0   10    5      0.25      0.00
    2   10    5      0.19      0.00
    4   10    5     -0.46      0.00
    6   10    5     -0.16      0.00
    8   10    5      1.05      0.00
   10   10    5      1.14      0.00
  -19   11    5     -1.32      0.00
  -17   11    5     -1.53      0.00
  -15   11    5     -0.29      0.00
  -13   11    5      0.81      0.00
  -11   11    5      0.91      0.00
   -9   11    5      0.79      0.00
   -7   11    5      0.61      0.00
   -5   11    5      0.34      0.00
   -3   11    5      0.37      0.00
   -1   11    5      0.26      0.00
    1   11    5     -0.01      0.00
    3   11    5      0.48      0.00
    5   11    5      0.78      0.00
    7   11    5     -0.49      0.00
    9   11    5     -1.57      0.00
  -18   12    5      2.08      0.00
  -16   12    5      1.51      0.00
  -14   12    5     -0.16      0.00
  -12   12    5     -1.03      0.00
  -10   12    5     -1.06      0.00
   -8   12    5     -0.94      0.00
   -6   12    5     -0.72      0.00
   -4   12    5     -0.71      0.00
   -2   12    5     -0.71      0.00
    0   12    5     -0.24      0.00
    2   12    5     -0.30      0.00
    4   12    5     -1.05      0.00
    6   12    5     -0.51      0.00
    8   12    5      1.17      0.00
  -19   13    5     -1.67      0.00
  -17   13    5     -2.29      0.00
  -15   13    5     -1.05      0.00
  -13   13    5      0.55      0.00
  -11   13    5      1.17      0.00
   -9   13    5      1.15      0.00
   -7   13    5      0.92      0.00
   -5   13    5      0.89      0.00
   -3   13    5      1.03      0.00
   -1   13    5      0.55      0.00
    1   13    5      0.03      0.00
    3   13    5      0.75      0.00
    5   13    5      1.28      0.00
    7   13    5     -0.01      0.00
    9   13    5     -1.16      0.00
  -18   14    5      2.02      0.00
  -16   14    5      2.00      0.00
  -14   14    5      0.52      0.00
  -12   14    5     -0.83      0.00
  -10   14    5     -1.20      0.00
   -8   14    5     -0.93      0.00
   -6   14    5     -0.81      0.00
   -4   14    5     -1.13      0.00
   -2   14    5     -0.87      0.00
    0   14    5      0.12      0.00
    2   14    5     -0.02      0.00
    4   14    5     -1.31      0.00
    6   14    5     -1.24      0.00
    8   14    5      0.16      0.00
  -17   15    5     -2.00      0.00
  -15   15    5     -1.53      0.00
  -13   15    5      0.01      0.00
  -11   15    5      1.01      0.00
   -9   15    5      0.82      0.00
   -7   15    5      0.45      0.00
   -5   15    5      0.89      0.00
   -3   15    5      1.11      0.00
   -1   15    5      0.00      0.00
    1   15    5     -0.74      0.00
    3   15    5      0.55      0.00
    5   15    5      1.86      0.00
    7   15    5      1.21      0.00
  -16   16    5      1.80      0.00
  -14   16    5      0.88      0.00
  -12   16    5     -0.58      0.00
  -10   16    5     -0.74      0.00
   -8   16    5      0.02      0.00
   -6   16    5     -0.22      0.00
   -4   16    5     -1.08      0.00
   -2   16    5     -0.37      0.00
    0   16    5      1.16      0.00
    2   16    5      0.62      0.00
    4   16    5     -1.55      0.00
    6   16    5     -2.28      0.00
  -17   17    5     -1.30      0.00
  -15   17    5     -1.32      0.00
  -13   17    5      0.06      0.00
  -11   17    5      0.79      0.00
   -9   17    5     -0.23      0.00
   -7   17    5     -0.72      0.00
   -5   17    5      0.53      0.00
   -3   17    5      0.80      0.00
   -1   17    5     -1.01      0.00
    1   17    5     -1.67      0.00
    3   17    5      0.47      0.00
    5   17    5      2.58      0.00
    7   17    5      2.33      0.00
  -16   18    5      1.20      0.00
  -14   18    5      0.33      0.00
  -12   18    5     -0.92      0.00
  -10   18    5     -0.16      0.00
   -8   18    5      1.38      0.00
   -6   18    5      0.60      0.00
   -4   18    5     -0.86      0.00
   -2   18    5      0.34      0.00
    0   18    5      2.14      0.00
    2   18    5      0.92      0.00
    4   18    5     -2.00      0.00
    6   18    5     -3.03      0.00
  -15   19    5     -0.52      0.00
  -13   19    5      0.95      0.00
  -11   19    5      1.04      0.00
   -9   19    5     -1.09      0.00
   -7   19    5     -1.76      0.00
   -5   19    5      0.16      0.00
   -3   19    5      0.41      0.00
   -1   19    5     -1.79      0.00
    1   19    5     -2.06      0.00
    3   19    5      0.75      0.00
    5   19    5      3.05      0.00
  -14   20    5     -0.72      0.00
  -12   20    5     -1.80      0.00
  -10   20    5     -0.21      0.00
   -8   20    5      2.02      0.00
   -6   20    5      1.07      0.00
   -4   20    5     -0.59      0.00
   -2   20    5      0.84      0.00
    0   20    5      2.46      0.00
    2   20    5      0.70      0.00
    4   20    5     -2.30      0.00
  -13   21    5      1.86      0.00
  -11   21    5      1.67      0.00
   -9   21    5     -0.93      0.00
   -7   21    5     -1.90      0.00
   -5   21    5     -0.07      0.00
   -3   21    5      0.08      0.00
   -1   21    5     -1.95      0.00
    1   21    5     -1.78      0.00
    3   21    5      1.01      0.00
  -12   22    5     -2.27      0.00
  -10   22    5     -0.81      0.00
   -8   22    5      1.48      0.00
   -6   22    5      0.99      0.00
   -4   22    5     -0.29      0.00
   -2   22    5      0.92      0.00
    0   22    5      2.02      0.00
    2   22    5      0.30      0.00
  -11   23    5      1.88      0.00
   -9   23    5     -0.07      0.00
   -7   23    5     -1.21      0.00
   -5   23    5     -0.16      0.00
   -3   23    5     -0.10      0.00
   -1   23    5     -1.45      0.00
    1   23    5     -1.08      0.00
   -8   24    5      0.46      0.00
   -6   24    5      0.57      0.00
   -4   24    5     -0.09      0.00
   -2   24    5      0.60      0.00
  -20    0    6     -1.28      0.00
  -18    0    6     -2.66      0.00
  -16    0    6     -0.93      0.00
  -14    0    6      0.27      0.00
  -12    0    6     -0.50      0.00
  -10    0    6     -1.07      0.00
   -8    0    6     -1.05      0.00
   -6    0    6     -0.72      0.00
   -4    0    6     -0.11      0.00
   -2    0    6      0.10      0.00
    0    0    6      0.58      0.00
    2    0    6      1.64      0.00
    4    0    6      1.54      0.00
    6    0    6      0.14      0.00
    8    0    6     -1.15      0.00
  -21    1    6     -0.21      0.00
  -19    1    6      2.17      0.00
  -17    1    6      1.93      0.00
  -15    1    6      0.14      0.00
  -13    1    6      0.07      0.00
  -11    1    6      0.77      0.00
   -9    1    6      0.89      0.00
   -7    1    6      0.80      0.00
   -5    1    6      0.35      0.00
   -3    1    6     -0.08      0.00
   -1    1    6     -0.26      0.00
    1    1    6     -1.07      0.00
    3    1    6     -1.67      0.00
    5    1    6     -0.83      0.00
    7    1    6      0.54      0.00
    9    1    6      1.42      0.00
  -20    2    6     -0.61      0.00
  -18    2    6     -1.94      0.00
  -16    2    6     -1.03      0.00
  -14    2    6     -0.20      0.00
  -12    2    6     -0.40      0.00
  -10    2    6     -0.40      0.00
   -8    2    6     -0.38      0.00
   -6    2    6     -0.37      0.00
   -4    2    6      0.03      0.00
   -2    2    6      0.25      0.00
    0    2    6      0.55      0.00
    2    2    6      1.21      0.00
    4    2    6      1.07      0.00
    6    2    6      0.06      0.00
    8    2    6     -0.85      0.00
  -21    3    6     -0.77      0.00
  -19    3    6      0.69      0.00
  -17    3    6      1.28      0.00
  -15    3    6      0.84      0.00
  -13    3    6      0.52      0.00
  -11    3    6      0.07      0.00
   -9    3    6     -0.31      0.00
   -7    3    6     -0.06      0.00
   -5    3    6     -0.01      0.00
   -3    3    6     -0.32      0.00
   -1    3    6     -0.44      0.00
    1    3    6     -0.67      0.00
    3    3    6     -0.81      0.00
    5    3    6     -0.33      0.00
    7    3    6      0.31      0.00
    9    3    6      0.72      0.00
  -20    4    6      0.77      0.00
  -18    4    6     -0.34      0.00
  -16    4    6     -1.08      0.00
  -14    4    6     -1.11      0.00
  -12    4    6     -0.33      0.00
  -10    4    6      0.70      0.00
   -8    4    6      0.78      0.00
   -6    4    6      0.28      0.00
   -4    4    6      0.32      0.00
   -2    4    6      0.55      0.00
    0    4    6      0.50      0.00
    2    4    6      0.42      0.00
    4    4    6      0.23      0.00
    6    4    6     -0.07      0.00
    8    4    6     -0.24      0.00
  -21    5    6     -1.35      0.00
  -19    5    6     -1.01      0.00
  -17    5    6      0.29      0.00
  -15    5    6      1.39      0.00
  -13    5    6      1.09      0.00
  -11    5    6     -0.35      0.00
   -9    5    6     -1.19      0.00
   -7    5    6     -0.78      0.00
   -5    5    6     -0.38      0.00
   -3    5    6     -0.58      0.00
   -1    5    6     -0.61      0.00
    1    5    6     -0.30      0.00
    3    5    6     -0.05      0.00
    5    5    6      0.07      0.00
    7    5    6      0.05      0.00
    9    5    6     -0.07      0.00
  -20    6    6      1.62      0.00
  -18    6    6      0.96      0.00
  -16    6    6     -0.74      0.00
  -14    6    6     -1.59      0.00
  -12    6    6     -0.55      0.00
  -10    6    6      0.89      0.00
   -8    6    6      1.10      0.00
   -6    6    6      0.59      0.00
   -4    6    6      0.54      0.00
   -2    6    6      0.70      0.00
    0    6    6      0.44      0.00
    2    6    6      0.05      0.00
    4    6    6     -0.06      0.00
    6    6    6     -0.03      0.00
    8    6    6      0.15      0.00
  -21    7    6     -1.34      0.00
  -19    7    6     -1.57      0.00
  -17    7    6     -0.42      0.00
  -15    7    6      1.23      0.00
  -13    7    6      1.31      0.00
  -11    7    6     -0.02      0.00
   -9    7    6     -0.87      0.00
   -7    7    6     -0.73      0.00
   -5    7    6     -0.54      0.00
   -3    7    6     -0.67      0.00
   -1    7    6     -0.58      0.00
    1    7    6     -0.20      0.00
    3    7    6     -0.07      0.00
    5    7    6     -0.10      0.00
    7    7    6     -0.10      0.00
    9    7    6     -0.34      0.00
  -20    8    6      1.24      0.00
  -18    8    6      1.08      0.00
  -16    8    6     -0.26      0.00
  -14    8    6     -1.32      0.00
  -12    8    6     -0.79      0.00
  -10    8    6      0.24      0.00
   -8    8    6      0.58      0.00
   -6    8    6      0.54      0.00
   -4    8    6      0.63      0.00
   -2    8    6      0.64      0.00
    0    8    6      0.34      0.00
    2    8    6      0.18      0.00
    4    8    6      0.33      0.00
    6    8    6      0.24      0.00
    8    8    6      0.13      0.00
  -19    9    6     -0.79      0.00
  -17    9    6     -0.40      0.00
  -15    9    6      0.69      0.00
  -13    9    6      1.04      0.00
  -11    9    6      0.37      0.00
   -9    9    6     -0.24      0.00
   -7    9    6     -0.47      0.00
   -5    9    6     -0.61      0.00
   -3    9    6     -0.67      0.00
   -1    9    6     -0.46      0.00
    1    9    6     -0.21      0.00
    3    9    6     -0.38      0.00
    5    9    6     -0.51      0.00
    7    9    6     -0.15      0.00
  -20   10    6      0.17      0.00
  -18   10    6      0.25      0.00
  -16   10    6     -0.15      0.00
  -14   10    6     -0.78      0.00
  -12   10    6     -0.63      0.00
  -10   10    6     -0.03      0.00
   -8   10    6      0.41      0.00
   -6   10    6      0.63      0.00
   -4   10    6      0.70      0.00
   -2   10    6      0.59      0.00
    0   10    6      0.28      0.00
    2   10    6      0.20      0.00
    4   10    6      0.51      0.00
    6   10    6      0.40      0.00
    8   10    6     -0.15      0.00
  -19   11    6      0.29      0.00
  -17   11    6      0.19      0.00
  -15   11    6      0.47      0.00
  -13   11    6      0.61      0.00
  -11   11    6      0.15      0.00
   -9   11    6     -0.45      0.00
   -7   11    6     -0.78      0.00
   -5   11    6     -0.76      0.00
   -3   11    6     -0.68      0.00
   -1   11    6     -0.51      0.00
    1   11    6     -0.11      0.00
    3   11    6     -0.09      0.00
    5   11    6     -0.37      0.00
    7   11    6     -0.01      0.00
  -18   12    6     -0.54      0.00
  -16   12    6     -0.48      0.00
  -14   12    6     -0.55      0.00
  -12   12    6     -0.26      0.00
  -10   12    6      0.46      0.00
   -8   12    6      1.05      0.00
   -6   12    6      0.97      0.00
   -4   12    6      0.66      0.00
   -2   12    6      0.70      0.00
    0   12    6      0.40      0.00
    2   12    6     -0.28      0.00
    4   12    6     -0.24      0.00
    6   12    6      0.01      0.00
  -19   13    6      0.63      0.00
  -17   13    6      0.65      0.00
  -15   13    6      0.63      0.00
  -13   13    6      0.44      0.00
  -11   13    6     -0.23      0.00
   -9   13    6     -1.13      0.00
   -7   13    6     -1.33      0.00
   -5   13    6     -0.68      0.00
   -3   13    6     -0.55      0.00
   -1   13    6     -0.80      0.00
    1   13    6      0.03      0.00
    3   13    6      0.96      0.00
    5   13    6      0.64      0.00
    7   13    6      0.39      0.00
  -18   14    6     -0.56      0.00
  -16   14    6     -0.70      0.00
  -14   14    6     -0.64      0.00
  -12   14    6     -0.22      0.00
  -10   14    6      0.72      0.00
   -8   14    6      1.46      0.00
   -6   14    6      0.88      0.00
   -4   14    6      0.15      0.00
   -2   14    6      0.71      0.00
    0   14    6      0.67      0.00
    2   14    6     -0.96      0.00
    4   14    6     -1.63      0.00
    6   14    6     -0.86      0.00
  -17   15    6      0.50      0.00
  -15   15    6      0.69      0.00
  -13   15    6      0.59      0.00
  -11   15    6      0.03      0.00
   -9   15    6     -0.95      0.00
   -7   15    6     -0.98      0.00
   -5   15    6      0.14      0.00
   -3   15    6      0.04      0.00
   -1   15    6     -0.96      0.00
    1   15    6      0.12      0.00
    3   15    6      2.05      0.00
    5   15    6      1.85      0.00
  -16   16    6     -0.46      0.00
  -14   16    6     -0.65      0.00
  -12   16    6     -0.62      0.00
  -10   16    6     -0.04      0.00
   -8   16    6      0.53      0.00
   -6   16    6     -0.28      0.00
   -4   16    6     -0.97      0.00
   -2   16    6      0.31      0.00
    0   16    6      0.71      0.00
    2   16    6     -1.43      0.00
    4   16    6     -2.61      0.00
  -15   17    6      0.42      0.00
  -13   17    6      0.69      0.00
  -11   17    6      0.80      0.00
   -9   17    6      0.42      0.00
   -7   17    6      0.63      0.00
   -5   17    6      1.63      0.00
   -3   17    6      0.97      0.00
   -1   17    6     -0.65      0.00
    1   17    6      0.32      0.00
    3   17    6      2.46      0.00
  -14   18    6     -0.40      0.00
  -12   18    6     -0.88      0.00
  -10   18    6     -1.17      0.00
   -8   18    6     -1.29      0.00
   -6   18    6     -2.06      0.00
   -4   18    6     -2.13      0.00
   -2   18    6     -0.35      0.00
    0   18    6      0.29      0.00
    2   18    6     -1.56      0.00
  -15   19    6      0.09      0.00
  -13   19    6      0.48      0.00
  -11   19    6      1.16      0.00
   -9   19    6      1.76      0.00
   -7   19    6      2.43      0.00
   -5   19    6      2.84      0.00
   -3   19    6      1.57      0.00
   -1   19    6     -0.03      0.00
    1   19    6      0.68      0.00
    3   19    6      2.07      0.00
  -12   20    6     -0.60      0.00
  -10   20    6     -1.51      0.00
   -8   20    6     -2.51      0.00
   -6   20    6     -3.15      0.00
   -4   20    6     -2.42      0.00
   -2   20    6     -0.67      0.00
    0   20    6     -0.31      0.00
  -11   21    6      0.72      0.00
   -9   21    6      1.94      0.00
   -7   21    6      3.03      0.00
   -5   21    6      2.81      0.00
   -3   21    6      1.26      0.00
   -1   21    6      0.31      0.00
  -10   22    6     -0.91      0.00
   -8   22    6     -2.31      0.00
   -6   22    6     -2.77      0.00
   -4   22    6     -1.55      0.00
   -2   22    6     -0.32      0.00
   -7   23    6      2.24      0.00
   -5   23    6      1.63      0.00
  -21    1    7     -0.63      0.00
  -19    1    7     -1.09      0.00
  -17    1    7     -0.82      0.00
  -15    1    7     -0.01      0.00
  -13    1    7      0.34      0.00
  -11    1    7      0.04      0.00
   -9    1    7     -0.36      0.00
   -7    1    7     -0.48      0.00
   -5    1    7     -0.23      0.00
   -3    1    7     -0.12      0.00
   -1    1    7     -0.34      0.00
    1    1    7     -0.11      0.00
    3    1    7      0.60      0.00
    5    1    7      0.65      0.00
    7    1    7      0.10      0.00
  -20    2    7      1.63      0.00
  -18    2    7      1.92      0.00
  -16    2    7      0.78      0.00
  -14    2    7     -0.43      0.00
  -12    2    7     -0.38      0.00
  -10    2    7      0.32      0.00
   -8    2    7      0.77      0.00
   -6    2    7      0.64      0.00
   -4    2    7      0.24      0.00
   -2    2    7      0.43      0.00
    0    2    7      0.55      0.00
    2    2    7     -0.52      0.00
    4    2    7     -1.32      0.00
    6    2    7     -0.57      0.00
  -21    3    7     -1.34      0.00
  -19    3    7     -2.40      0.00
  -17    3    7     -1.88      0.00
  -15    3    7     -0.14      0.00
  -13    3    7      0.57      0.00
  -11    3    7     -0.03      0.00
   -9    3    7     -0.65      0.00
   -7    3    7     -0.81      0.00
   -5    3    7     -0.50      0.00
   -3    3    7     -0.40      0.00
   -1    3    7     -0.76      0.00
    1    3    7     -0.04      0.00
    3    3    7      1.41      0.00
    5    3    7      1.15      0.00
    7    3    7     -0.18      0.00
  -20    4    7      1.92      0.00
  -18    4    7      2.42      0.00
  -16    4    7      1.12      0.00
  -14    4    7     -0.27      0.00
  -12    4    7     -0.16      0.00
  -10    4    7      0.39      0.00
   -8    4    7      0.56      0.00
   -6    4    7      0.57      0.00
   -4    4    7      0.50      0.00
   -2    4    7      0.74      0.00
    0    4    7      0.51      0.00
    2    4    7     -0.94      0.00
    4    4    7     -1.43      0.00
    6    4    7      0.02      0.00
  -21    5    7     -0.96      0.00
  -19    5    7     -1.96      0.00
  -17    5    7     -1.74      0.00
  -15    5    7     -0.41      0.00
  -13    5    7      0.06      0.00
  -11    5    7     -0.29      0.00
   -9    5    7     -0.23      0.00
   -7    5    7     -0.20      0.00
   -5    5    7     -0.50      0.00
   -3    5    7     -0.78      0.00
   -1    5    7     -0.75      0.00
    1    5    7      0.33      0.00
    3    5    7      1.29      0.00
    5    5    7      0.19      0.00
    7    5    7     -1.23      0.00
  -20    6    7      0.90      0.00
  -18    6    7      1.48      0.00
  -16    6    7      0.96      0.00
  -14    6    7      0.27      0.00
  -12    6    7      0.40      0.00
  -10    6    7      0.23      0.00
   -8    6    7     -0.23      0.00
   -6    6    7      0.12      0.00
   -4    6    7      0.81      0.00
   -2    6    7      0.96      0.00
    0    6    7      0.21      0.00
    2    6    7     -0.86      0.00
    4    6    7     -0.34      0.00
    6    6    7      1.40      0.00
  -19    7    7     -0.57      0.00
  -17    7    7     -0.91      0.00
  -15    7    7     -0.58      0.00
  -13    7    7     -0.56      0.00
  -11    7    7     -0.51      0.00
   -9    7    7      0.23      0.00
   -7    7    7      0.36      0.00
   -5    7    7     -0.55      0.00
   -3    7    7     -1.14      0.00
   -1    7    7     -0.71      0.00
    1    7    7      0.28      0.00
    3    7    7      0.34      0.00
    5    7    7     -1.22      0.00
  -20    8    7     -0.28      0.00
  -18    8    7      0.30      0.00
  -16    8    7      0.58      0.00
  -14    8    7      0.63      0.00
  -12    8    7      0.76      0.00
  -10    8    7      0.22      0.00
   -8    8    7     -0.41      0.00
   -6    8    7      0.15      0.00
   -4    8    7      1.07      0.00
   -2    8    7      1.10      0.00
    0    8    7      0.38      0.00
    2    8    7     -0.05      0.00
    4    8    7      0.86      0.00
    6    8    7      2.14      0.00
  -19    9    7      0.36      0.00
  -17    9    7     -0.25      0.00
  -15    9    7     -0.55      0.00
  -13    9    7     -0.81      0.00
  -11    9    7     -0.70      0.00
   -9    9    7     -0.06      0.00
   -7    9    7     -0.06      0.00
   -5    9    7     -0.81      0.00
   -3    9    7     -1.17      0.00
   -1    9    7     -0.90      0.00
    1    9    7     -0.49      0.00
    3    9    7     -0.67      0.00
    5    9    7     -1.65      0.00
  -18   10    7     -0.14      0.00
  -16   10    7      0.35      0.00
  -14   10    7      0.71      0.00
  -12   10    7      0.93      0.00
  -10   10    7      0.65      0.00
   -8   10    7      0.42      0.00
   -6   10    7      0.74      0.00
   -4   10    7      0.99      0.00
   -2   10    7      0.98      0.00
    0   10    7      0.98      0.00
    2   10    7      0.87      0.00
    4   10    7      1.07      0.00
  -19   11    7      0.31      0.00
  -17   11    7     -0.16      0.00
  -15   11    7     -0.55      0.00
  -13   11    7     -0.95      0.00
  -11   11    7     -1.02      0.00
   -9   11    7     -0.87      0.00
   -7   11    7     -0.96      0.00
   -5   11    7     -0.91      0.00
   -3   11    7     -0.71      0.00
   -1   11    7     -0.99      0.00
    1   11    7     -1.20      0.00
    3   11    7     -0.84      0.00
    5   11    7     -0.80      0.00
  -18   12    7      0.12      0.00
  -16   12    7      0.42      0.00
  -14   12    7      0.88      0.00
  -12   12    7      1.17      0.00
  -10   12    7      1.11      0.00
   -8   12    7      1.16      0.00
   -6   12    7      1.05      0.00
   -4   12    7      0.48      0.00
   -2   12    7      0.54      0.00
    0   12    7      1.16      0.00
    2   12    7      0.90      0.00
    4   12    7      0.19      0.00
  -17   13    7     -0.41      0.00
  -15   13    7     -0.77      0.00
  -13   13    7     -1.20      0.00
  -11   13    7     -1.13      0.00
   -9   13    7     -1.02      0.00
   -7   13    7     -1.06      0.00
   -5   13    7     -0.51      0.00
   -3   13    7     -0.07      0.00
   -1   13    7     -0.65      0.00
    1   13    7     -0.86      0.00
    3   13    7      0.07      0.00
  -16   14    7      0.70      0.00
  -14   14    7      1.16      0.00
  -12   14    7      1.11      0.00
  -10   14    7      0.64      0.00
   -8   14    7      0.60      0.00
   -6   14    7      0.46      0.00
   -4   14    7     -0.09      0.00
   -2   14    7      0.06      0.00
    0   14    7      0.51      0.00
    2   14    7     -0.18      0.00
  -17   15    7     -0.67      0.00
  -15   15    7     -1.09      0.00
  -13   15    7     -1.10      0.00
  -11   15    7     -0.28      0.00
   -9   15    7      0.24      0.00
   -7   15    7      0.07      0.00
   -5   15    7      0.14      0.00
   -3   15    7      0.20      0.00
   -1   15    7     -0.08      0.00
    1   15    7      0.34      0.00
    3   15    7      1.29      0.00
  -16   16    7      1.00      0.00
  -14   16    7      1.13      0.00
  -12   16    7      0.12      0.00
  -10   16    7     -1.07      0.00
   -8   16    7     -1.09      0.00
   -6   16    7     -0.54      0.00
   -4   16    7     -0.23      0.00
   -2   16    7     -0.07      0.00
    0   16    7     -0.44      0.00
    2   16    7     -1.38      0.00
  -15   17    7     -1.19      0.00
  -13   17    7     -0.24      0.00
  -11   17    7      1.55      0.00
   -9   17    7      2.20      0.00
   -7   17    7      1.42      0.00
   -5   17    7      0.44      0.00
   -3   17    7     -0.03      0.00
   -1   17    7      0.29      0.00
    1   17    7      1.24      0.00
  -14   18    7      0.62      0.00
  -12   18    7     -1.48      0.00
  -10   18    7     -2.96      0.00
   -8   18    7     -2.46      0.00
   -6   18    7     -1.01      0.00
   -4   18    7      0.06      0.00
   -2   18    7      0.06      0.00
    0   18    7     -0.86      0.00
  -13   19    7      0.84      0.00
  -11   19    7      3.07      0.00
   -9   19    7      3.27      0.00
   -7   19    7      1.77      0.00
   -5   19    7      0.20      0.00
   -3   19    7     -0.35      0.00
   -1   19    7      0.35      0.00
  -10   20    7     -3.51      0.00
   -8   20    7     -2.41      0.00
   -6   20    7     -0.64      0.00
   -4   20    7      0.39      0.00
   -7   21    7      1.03      0.00
  -20    0    8      2.97      0.00
  -18    0    8      4.05      0.00
  -16    0    8      2.93      0.00
  -14    0    8      1.12      0.00
  -12    0    8      0.45      0.00
  -10    0    8     -0.13      0.00
   -8    0    8     -0.84      0.00
   -6    0    8     -0.16      0.00
   -4    0    8      0.92      0.00
   -2    0    8      1.12      0.00
    0    0    8      1.18      0.00
    2    0    8      0.79      0.00
    4    0    8     -0.09      0.00
  -19    1    8     -3.66      0.00
  -17    1    8     -3.65      0.00
  -15    1    8     -1.86      0.00
  -13    1    8     -0.59      0.00
  -11    1    8     -0.22      0.00
   -9    1    8      0.58      0.00
   -7    1    8      0.72      0.00
   -5    1    8     -0.40      0.00
   -3    1    8     -1.04      0.00
   -1    1    8     -1.07      0.00
    1    1    8     -1.01      0.00
    3    1    8     -0.30      0.00
  -20    2    8      2.61      0.00
  -18    2    8      3.69      0.00
  -16    2    8      2.64      0.00
  -14    2    8      0.86      0.00
  -12    2    8      0.28      0.00
  -10    2    8     -0.14      0.00
   -8    2    8     -0.85      0.00
   -6    2    8     -0.36      0.00
   -4    2    8      0.70      0.00
   -2    2    8      0.90      0.00
    0    2    8      0.82      0.00
    2    2    8      0.54      0.00
    4    2    8      0.01      0.00
  -19    3    8     -2.97      0.00
  -17    3    8     -3.09      0.00
  -15    3    8     -1.47      0.00
  -13    3    8     -0.32      0.00
  -11    3    8     -0.15      0.00
   -9    3    8      0.50      0.00
   -7    3    8      0.86      0.00
   -5    3    8     -0.03      0.00
   -3    3    8     -0.69      0.00
   -1    3    8     -0.50      0.00
    1    3    8     -0.33      0.00
    3    3    8     -0.20      0.00
  -20    4    8      1.81      0.00
  -18    4    8      2.87      0.00
  -16    4    8      2.15      0.00
  -14    4    8      0.74      0.00
  -12    4    8      0.34      0.00
  -10    4    8      0.04      0.00
   -8    4    8     -0.77      0.00
   -6    4    8     -0.60      0.00
   -4    4    8      0.31      0.00
   -2    4    8      0.30      0.00
    0    4    8     -0.16      0.00
    2    4    8     -0.04      0.00
    4    4    8      0.28      0.00
  -19    5    8     -2.07      0.00
  -17    5    8     -2.43      0.00
  -15    5    8     -1.49      0.00
  -13    5    8     -0.81      0.00
  -11    5    8     -0.61      0.00
   -9    5    8      0.20      0.00
   -7    5    8      0.79      0.00
   -5    5    8      0.16      0.00
   -3    5    8     -0.21      0.00
   -1    5    8      0.49      0.00
    1    5    8      0.69      0.00
    3    5    8     -0.11      0.00
  -18    6    8      2.10      0.00
  -16    6    8      2.04      0.00
  -14    6    8      1.59      0.00
  -12    6    8      1.36      0.00
  -10    6    8      0.61      0.00
   -8    6    8     -0.44      0.00
   -6    6    8     -0.41      0.00
   -4    6    8      0.14      0.00
   -2    6    8     -0.45      0.00
    0    6    8     -1.29      0.00
    2    6    8     -0.59      0.00
  -19    7    8     -1.46      0.00
  -17    7    8     -2.02      0.00
  -15    7    8     -2.20      0.00
  -13    7    8     -2.30      0.00
  -11    7    8     -1.63      0.00
   -9    7    8     -0.24      0.00
   -7    7    8      0.37      0.00
   -5    7    8     -0.09      0.00
   -3    7    8      0.15      0.00
   -1    7    8      1.38      0.00
    1    7    8      1.44      0.00
    3    7    8     -0.05      0.00
  -18    8    8      1.61      0.00
  -16    8    8      2.21      0.00
  -14    8    8      2.97      0.00
  -12    8    8      2.77      0.00
  -10    8    8      1.17      0.00
   -8    8    8     -0.11      0.00
   -6    8    8      0.02      0.00
   -4    8    8      0.15      0.00
   -2    8    8     -0.94      0.00
    0    8    8     -1.81      0.00
    2    8    8     -0.82      0.00
  -17    9    8     -1.75      0.00
  -15    9    8     -2.91      0.00
  -13    9    8     -3.60      0.00
  -11    9    8     -2.26      0.00
   -9    9    8     -0.30      0.00
   -7    9    8      0.14      0.00
   -5    9    8     -0.19      0.00
   -3    9    8      0.38      0.00
   -1    9    8      1.49      0.00
    1    9    8      1.39      0.00
    3    9    8      0.10      0.00
  -18   10    8      1.26      0.00
  -16   10    8      2.24      0.00
  -14   10    8      3.67      0.00
  -12   10    8      3.19      0.00
  -10   10    8      0.89      0.00
   -8   10    8     -0.39      0.00
   -6   10    8     -0.16      0.00
   -4   10    8     -0.19      0.00
   -2   10    8     -0.89      0.00
    0   10    8     -1.24      0.00
    2   10    8     -0.63      0.00
  -17   11    8     -1.46      0.00
  -15   11    8     -3.02      0.00
  -13   11    8     -3.59      0.00
  -11   11    8     -1.58      0.00
   -9   11    8      0.55      0.00
   -7   11    8      0.84      0.00
   -5   11    8      0.58      0.00
   -3   11    8      0.69      0.00
   -1   11    8      0.71      0.00
    1   11    8      0.53      0.00
  -16   12    8      2.08      0.00
  -14   12    8      3.40      0.00
  -12   12    8      2.18      0.00
  -10   12    8     -0.48      0.00
   -8   12    8     -1.59      0.00
   -6   12    8     -1.41      0.00
   -4   12    8     -1.17      0.00
   -2   12    8     -0.57      0.00
    0   12    8      0.00      0.00
  -15   13    8     -2.81      0.00
  -13   13    8     -2.63      0.00
  -11   13    8      0.07      0.00
   -9   13    8      2.13      0.00
   -7   13    8      2.35      0.00
   -5   13    8      2.07      0.00
   -3   13    8      1.18      0.00
   -1   13    8     -0.20      0.00
  -16   14    8      1.99      0.00
  -14   14    8      2.88      0.00
  -12   14    8      0.76      0.00
  -10   14    8     -2.14      0.00
   -8   14    8     -3.11      0.00
   -6   14    8     -2.96      0.00
   -4   14    8     -2.22      0.00
   -2   14    8     -0.42      0.00
    0   14    8      0.87      0.00
  -15   15    8     -2.68      0.00
  -13   15    8     -1.82      0.00
  -11   15    8      1.38      0.00
   -9   15    8      3.38      0.00
   -7   15    8      3.56      0.00
   -5   15    8      3.09      0.00
   -3   15    8      1.53      0.00
   -1   15    8     -0.46      0.00
  -14   16    8      2.52      0.00
  -12   16    8      0.05      0.00
  -10   16    8     -2.86      0.00
   -8   16    8     -3.74      0.00
   -6   16    8     -3.48      0.00
   -4   16    8     -2.44      0.00
   -2   16    8     -0.52      0.00
  -11   17    8      1.49      0.00
   -9   17    8      3.29      0.00
   -7   17    8      3.39      0.00
   -5   17    8      2.73      0.00
  -10   18    8     -2.13      0.00
   -8   18    8     -2.87      0.00
   -6   18    8     -2.50      0.00
  -19    1    9      0.63      0.00
  -17    1    9      0.66      0.00
  -15    1    9      0.17      0.00
  -13    1    9     -0.18      0.00
  -11    1    9      0.10      0.00
   -9    1    9      0.29      0.00
   -7    1    9      0.01      0.00
   -5    1    9     -0.19      0.00
   -3    1    9     -0.20      0.00
   -1    1    9     -0.19      0.00
    1    1    9     -0.11      0.00
  -18    2    9     -1.40      0.00
  -16    2    9     -0.97      0.00
  -14    2    9      0.12      0.00
  -12    2    9      0.28      0.00
  -10    2    9     -0.37      0.00
   -8    2    9     -0.33      0.00
   -6    2    9      0.20      0.00
   -4    2    9      0.38      0.00
   -2    2    9      0.42      0.00
    0    2    9      0.30      0.00
  -17    3    9      2.03      0.00
  -15    3    9      0.73      0.00
  -13    3    9     -0.63      0.00
  -11    3    9     -0.22      0.00
   -9    3    9      0.51      0.00
   -7    3    9      0.13      0.00
   -5    3    9     -0.38      0.00
   -3    3    9     -0.58      0.00
   -1    3    9     -0.59      0.00
  -18    4    9     -2.52      0.00
  -16    4    9     -2.12      0.00
  -14    4    9      0.10      0.00
  -12    4    9      1.07      0.00
  -10    4    9      0.04      0.00
   -8    4    9     -0.49      0.00
   -6    4    9      0.04      0.00
   -4    4    9      0.51      0.00
   -2    4    9      0.80      0.00
    0    4    9      0.52      0.00
  -17    5    9      3.07      0.00
  -15    5    9      1.36      0.00
  -13    5    9     -1.19      0.00
  -11    5    9     -1.15      0.00
   -9    5    9      0.27      0.00
   -7    5    9      0.47      0.00
   -5    5    9     -0.11      0.00
   -3    5    9     -0.68      0.00
   -1    5    9     -0.85      0.00
  -18    6    9     -2.79      0.00
  -16    6    9     -2.71      0.00
  -14    6    9      0.16      0.00
  -12    6    9      1.87      0.00
  -10    6    9      0.61      0.00
   -8    6    9     -0.68      0.00
   -6    6    9     -0.51      0.00
   -4    6    9      0.15      0.00
   -2    6    9      0.77      0.00
    0    6    9      0.57      0.00
  -17    7    9      2.93      0.00
  -15    7    9      1.26      0.00
  -13    7    9     -1.54      0.00
  -11    7    9     -1.49      0.00
   -9    7    9      0.37      0.00
   -7    7    9      1.00      0.00
   -5    7    9      0.56      0.00
   -3    7    9     -0.15      0.00
   -1    7    9     -0.65      0.00
  -16    8    9     -1.93      0.00
  -14    8    9      0.53      0.00
  -12    8    9      1.69      0.00
  -10    8    9      0.13      0.00
   -8    8    9     -1.19      0.00
   -6    8    9     -1.12      0.00
   -4    8    9     -0.66      0.00
   -2    8    9      0.06      0.00
  -15    9    9      0.23      0.00
  -13    9    9     -1.29      0.00
  -11    9    9     -0.37      0.00
   -9    9    9      1.27      0.00
   -7    9    9      1.48      0.00
   -5    9    9      1.20      0.00
   -3    9    9      0.83      0.00
   -1    9    9     -0.01      0.00
  -16   10    9     -0.34      0.00
  -14   10    9      0.89      0.00
  -12   10    9      0.38      0.00
  -10   10    9     -1.39      0.00
   -8   10    9     -1.85      0.00
   -6   10    9     -1.41      0.00
   -4   10    9     -1.37      0.00
   -2   10    9     -0.85      0.00
  -15   11    9     -0.75      0.00
  -13   11    9     -0.50      0.00
  -11   11    9      1.38      0.00
   -9   11    9      2.32      0.00
   -7   11    9      1.66      0.00
   -5   11    9      1.38      0.00
   -3   11    9      1.42      0.00
  -14   12    9      0.75      0.00
  -12   12    9     -0.96      0.00
  -10   12    9     -2.54      0.00
   -8   12    9     -2.13      0.00
   -6   12    9     -1.31      0.00
   -4   12    9     -1.35      0.00
  -13   13    9      0.27      0.00
  -11   13    9      2.13      0.00
   -9   13    9      2.47      0.00
   -7   13    9      1.52      0.00
   -5   13    9      1.05      0.00
  -12   14    9     -1.26      0.00
  -10   14    9     -2.20      0.00
   -8   14    9     -1.79      0.00
   -6   14    9     -1.04      0.00
  -16    0   10     -1.61      0.00
  -14    0   10      0.63      0.00
  -12    0   10      1.74      0.00
  -10    0   10     -1.61      0.00
   -8    0   10     -4.66      0.00
   -6    0   10     -3.40      0.00
   -4    0   10     -1.09      0.00
  -15    1   10      0.66      0.00
  -13    1   10     -1.67      0.00
  -11    1   10     -0.52      0.00
   -9    1   10      3.44      0.00
   -7    1   10      4.36      0.00
   -5    1   10      2.09      0.00
  -16    2   10     -1.18      0.00
  -14    2   10      0.65      0.00
  -12    2   10      1.66      0.00
  -10    2   10     -1.19      0.00
   -8    2   10     -4.06      0.00
   -6    2   10     -3.21      0.00
   -4    2   10     -1.15      0.00
  -15    3   10      0.23      0.00
  -13    3   10     -1.44      0.00
  -11    3   10     -0.73      0.00
   -9    3   10      2.42      0.00
   -7    3   10      3.62      0.00
   -5    3   10      2.05      0.00
  -14    4   10      0.67      0.00
  -12    4   10      1.38      0.00
  -10    4   10     -0.46      0.00
   -8    4   10     -2.87      0.00
   -6    4   10     -2.76      0.00
  -15    5   10     -0.25      0.00
  -13    5   10     -1.07      0.00
  -11    5   10     -0.70      0.00
   -9    5   10      1.45      0.00
   -7    5   10      2.76      0.00
   -5    5   10      1.84      0.00
  -14    6   10      0.63      0.00
  -12    6   10      0.87      0.00
  -10    6   10     -0.31      0.00
   -8    6   10     -2.10      0.00
   -6    6   10     -2.25      0.00
  -13    7   10     -0.63      0.00
  -11    7   10     -0.14      0.00
   -9    7   10      1.33      0.00
   -7    7   10      2.23      0.00
  -12    8   10      0.15      0.00
  -10    8   10     -0.84      0.00
   -8    8   10     -1.91      0.00
    2    0    0     28.12      0.00
    1    1    0    -36.91      0.00
    0    2    0     34.43      0.00
   19    5    0     -1.14      0.00
   16   16    0      0.51      0.00
   13   21    0      0.25      0.00
   12   22    0      0.18      0.00
   10   24    0      1.26      0.00
    9   25    0     -1.38      0.00
    2   28    0      0.12      0.00
   -1    1    1      1.22      0.00
   -2   28    1      0.08      0.00
    0   28    1      0.77      0.00
  -21    1    2     -1.10      0.00
   17    1    2     -0.68      0.00
   17    3    2     -0.82      0.00
  -17   17    2     -0.87      0.00
   13   17    2     -0.19      0.00
  -21    7    3      1.01      0.00
   15    7    3      0.29      0.00
  -18   16    3      1.41      0.00
   12   16    3      1.66      0.00
   -8   26    3      0.32      0.00
    2   26    3     -1.02      0.00
   -3   27    3     -0.31      0.00
   14    0    4      1.88      0.00
   14    2    4      1.66      0.00
  -20   12    4     -1.20      0.00
   12   12    4      0.26      0.00
   -9   25    4     -1.05      0.00
    1   25    4     -0.36      0.00
   -6   26    4     -0.56      0.00
   -4   26    4     -1.23      0.00
   -2   26    4     -0.71      0.00
   12    2    5     -0.06      0.00
   11    9    5     -0.42      0.00
  -20   12    5      0.95      0.00
   10   12    5      1.31      0.00
  -18   16    5      1.20      0.00
    8   16    5     -1.22      0.00
   10    0    6     -1.65      0.00
   10    2    6     -1.22      0.00
  -17   17    6      0.03      0.00
    5   17    6      2.22      0.00
  -16   18    6     -0.07      0.00
    4   18    6     -2.46      0.00
  -14   20    6     -0.11      0.00
    2   20    6     -1.43      0.00
  -13   21    6      0.11      0.00
    1   21    6      0.92      0.00
    6   10    7      1.55      0.00
  -18   14    7      0.47      0.00
    4   14    7     -0.99      0.00
  -12   20    7     -2.38      0.00
   -2   20    7      0.09      0.00
   -9   21    7      2.67      0.00
   -5   21    7     -0.25      0.00
  -20    6    8      1.14      0.00
    4    6    8      0.58      0.00
  -19    9    8     -1.19      0.00
  -17   13    8     -1.18      0.00
    1   13    8     -0.50      0.00
  -13   17    8     -1.44      0.00
   -3   17    8      1.34      0.00
  -19    3    9      1.67      0.00
    1    3    9     -0.21      0.00
  -17    9    9      1.55      0.00
   -9   15    9      1.58      0.00
  -16    4   10     -0.31      0.00
   -4    4   10     -1.17      0.00
   -6    8   10     -1.73      0.00
  -11    9   10      0.62      0.00
   -9    9   10      1.53      0.00
    0    0    0      0.00      0.00
loop_
  _platon_squeeze_void_nr
  _platon_squeeze_void_average_x
  _platon_squeeze_void_average_y
  _platon_squeeze_void_average_z
  _platon_squeeze_void_volume
  _platon_squeeze_void_count_electrons
  _platon_squeeze_void_content
   1  0.000  0.500 -0.017       149        15 ' '
   2  0.500  1.000  0.036       149        15 ' '
loop_
  _platon_missing_refln_index_h
  _platon_missing_refln_index_k
  _platon_missing_refln_index_l
  _platon_missing_refln_theta
    2    0    0     2.642
    1    1    0     1.603
    0    2    0     1.816
   -1    1    1     2.573
_platon_squeeze_void_probe_radius                  1.20
_platon_squeeze_details
)
TITL shelx     C 2/c        R = 0.04
CELL   17.5594   22.4319    8.4604     90.00    118.58     90.00
SPGR C2/c
Q101 0.682 0.281 0.129 !       2.52 eA-3
Q102 0.445 0.266 0.122 !       1.97 eA-3
Q103 0.230 0.240 0.218 !       1.37 eA-3
Q104 0.320 0.239 0.369 !       1.04 eA-3
Q105 0.016 0.337 0.190 !       0.99 eA-3
Q106 0.858 0.180 0.289 !       0.91 eA-3
Q107 0.751 0.182 0.403 !       0.91 eA-3
C108 0.500 0.008 0.243 !       0.89 eA-3
Q109 0.064 0.194 0.437 !       0.89 eA-3
Q110 0.105 0.275 0.467 !       0.88 eA-3
C111 0.434 0.019 0.496 !       0.86 eA-3
C112 0.594 0.040 0.210 !       0.84 eA-3
Q113 0.642 0.189 0.444 !       0.82 eA-3
Q114 0.985 0.302 0.473 !       0.81 eA-3
Q115 0.132 0.360 0.116 !       0.81 eA-3
Q116 0.842 0.241 0.464 !       0.81 eA-3
Q117 0.980 0.166-0.005 !       0.79 eA-3
Q118 0.221 0.160 0.321 !       0.79 eA-3
Q119 0.267 0.048 0.477 !       0.77 eA-3
Q120 0.608 0.228 0.284 !       0.75 eA-3
Q121 0.133 0.135 0.218 !       0.75 eA-3
Q122 0.354 0.132 0.070 !       0.74 eA-3
Q123 0.381 0.163 0.468 !       0.74 eA-3
Q124 0.793 0.269 0.210 !       0.73 eA-3
Q125 0.406 0.142 0.402 !       0.72 eA-3
Q126 0.910 0.312 0.121 !       0.71 eA-3
C127 0.484 0.025 0.347 !       0.70 eA-3
C128 0.984 0.525 0.347 !       0.70 eA-3
Q129 0.206 0.276 0.436 !       0.70 eA-3
C130 0.986 0.466 0.162 !       0.69 eA-3
Q131 0.530 0.172 0.308 !       0.69 eA-3
Q132 0.333 0.264 0.098 !       0.68 eA-3
C133 1.000 0.453 0.236 !       0.68 eA-3
Q134 0.044 0.245 0.412 !       0.68 eA-3
Q135 0.753 0.282 0.373 !       0.68 eA-3
C136 0.554 0.013 0.383 !       0.68 eA-3
Q137 0.190 0.028 0.469 !       0.68 eA-3
Q138 0.247 0.156 0.161 !       0.67 eA-3
C139 0.468 0.062 0.276 !       0.67 eA-3
Q140 0.035 0.444 0.473 !       0.67 eA-3
Q141 0.652 0.376 0.441 !       0.66 eA-3
Q142 0.030 0.269 0.314 !       0.66 eA-3
Q143 0.554 0.218 0.366 !       0.66 eA-3
C144 0.577 0.020 0.318 !       0.66 eA-3
Q145 1.005 0.213 0.440 !       0.65 eA-3
Q146 0.982 0.234 0.065 !       0.65 eA-3
Q147 0.026 0.140 0.224 !       0.65 eA-3
Q148 0.242 0.463 0.404 !       0.65 eA-3
Q149 0.602 0.092 0.442 !       0.65 eA-3
Q150 0.824 0.382 0.127 !       0.64 eA-3
Q151 0.232 0.406 0.445 !       0.63 eA-3
Q152 0.421 0.071 0.188 !       0.63 eA-3
Q153 0.955 0.039 0.368 !       0.63 eA-3
Q154 0.355 0.493 0.271 !       0.61 eA-3
Q155 0.889 0.015 0.444 !       0.61 eA-3
Q156 0.528 0.096 0.285 !       0.61 eA-3
Q157 0.214 0.376 0.315 !       0.61 eA-3
Q158 0.351 0.103 0.155 !       0.60 eA-3
Q159 0.895 0.482 0.282 !       0.60 eA-3
Q160 0.586 0.161 0.188 !       0.59 eA-3
Q161 0.139 0.103 0.406 !       0.59 eA-3
Q162 0.406 0.268 0.474 !       0.59 eA-3
Q163 0.387 0.110-0.004 !       0.58 eA-3
Q164 0.345 0.329 0.062 !       0.58 eA-3
Q165 0.653 0.416 0.122 !       0.58 eA-3
Q166 0.405 0.132 0.474 !       0.58 eA-3
Q167 0.786 0.458 0.442 !       0.58 eA-3
Q168 0.638 0.111 0.065 !       0.58 eA-3
C169 0.471 0.008 0.438 !       0.58 eA-3
Q170 0.316 0.136 0.406 !       0.58 eA-3
Q171 0.470 0.147 0.066 !       0.57 eA-3
Q172 0.076 0.381 0.122 !       0.57 eA-3
Q173 0.782 0.017 0.160 !       0.57 eA-3
C174 0.465 0.038 0.225 !       0.57 eA-3
Q175 0.461 0.321 0.247 !       0.57 eA-3
Q176 0.146 0.349 0.253 !       0.56 eA-3
Q177 0.066 0.016 0.476 !       0.56 eA-3
Q178 0.262 0.199 0.188 !       0.56 eA-3
Q179 0.608 0.027 0.121 !       0.56 eA-3
Q180 0.916 0.149 0.002 !       0.56 eA-3
Q181 0.500 0.250 0.252 !       0.56 eA-3
Q182 0.945 0.328 0.067 !       0.55 eA-3
Q183 0.748 0.307 0.261 !       0.55 eA-3
Q184 0.234 0.360 0.434 !       0.55 eA-3
Q185 0.605 0.315 0.182 !       0.55 eA-3
Q186 0.862 0.435 0.312 !       0.55 eA-3
Q187 0.986 0.188 0.323 !       0.54 eA-3
Q188 0.799 0.278 0.342 !       0.54 eA-3
Q189 0.376 0.322 0.403 !       0.54 eA-3
Q190 0.521 0.315 0.383 !       0.53 eA-3
Q191 0.406 0.391 0.184 !       0.53 eA-3
Q192 0.112 0.295 0.116 !       0.53 eA-3
Q193 0.659 0.410 0.377 !       0.52 eA-3
Q194 0.853 0.312 0.014 !       0.52 eA-3
Q195 0.159 0.352 0.475 !       0.52 eA-3
Q196 0.750 0.046 0.220 !       0.52 eA-3
Q197 0.525 0.125 0.074 !       0.52 eA-3
Q198 0.147 0.420 0.377 !       0.52 eA-3
Q199 0.223 0.344 0.032 !       0.52 eA-3
)
;
_shelx_shelxl_version_number     2014/7
_olex2_submission_special_instructions 'No special instructions were received'
loop_
_space_group_symop_operation_xyz
'x, y, z'
'-x, y, -z+1/2'
'x+1/2, y+1/2, z'
'-x+1/2, y+1/2, -z+1/2'
'-x, -y, -z'
'x, -y, z-1/2'
'-x+1/2, -y+1/2, -z'
'x+1/2, -y+1/2, z-1/2'
loop_
_atom_site_label
_atom_site_type_symbol
_atom_site_fract_x
_atom_site_fract_y
_atom_site_fract_z
_atom_site_U_iso_or_equiv
_atom_site_adp_type
_atom_site_occupancy
_atom_site_site_symmetry_order
_atom_site_calc_flag
_atom_site_refinement_flags_posn
Sm1 Sm 0.81602(2) 0.26202(2) 0.87326(4) 0.03456(15) Uani 1 1 d .
C1 C 0.8367(4) 0.0877(3) 0.5824(8) 0.0338(14) Uani 1 1 d .
C2 C 0.9040(5) 0.0625(3) 0.7437(8) 0.0451(17) Uani 1 1 d .
H2 H 0.9456 0.0867 0.8322 0.054 Uiso 1 1 calc R
C3 C 0.9059(5) 0.0021(3) 0.7651(9) 0.0476(18) Uani 1 1 d .
H3 H 0.9489 -0.0146 0.8709 0.057 Uiso 1 1 calc R
C4 C 0.8439(4) -0.0360(3) 0.6300(8) 0.0355(15) Uani 1 1 d .
C5 C 0.8491(4) -0.0982(3) 0.6545(8) 0.0390(16) Uani 1 1 d .
H5 H 0.8950 -0.1147 0.7563 0.047 Uiso 1 1 calc R
C6 C 0.7134(4) 0.3654(3) 0.9711(8) 0.0355(15) Uani 1 1 d .
C7 C 0.7185(4) 0.1082(3) 0.8730(8) 0.0357(15) Uani 1 1 d .
C8 C 0.7129(4) 0.0480(3) 0.8444(8) 0.0414(16) Uani 1 1 d .
H8 H 0.6674 0.0323 0.7403 0.050 Uiso 1 1 calc R
C9 C 0.7760(4) -0.0095(3) 0.4728(8) 0.0368(15) Uani 1 1 d .
C10 C 0.7749(4) 0.0529(3) 0.4528(8) 0.0357(15) Uani 1 1 d .
H10 H 0.7314 0.0705 0.3496 0.043 Uiso 1 1 calc R
O1 O 0.8540(3) 0.1957(2) 0.7086(5) 0.0437(11) Uani 1 1 d .
O2 O 0.9224(3) 0.1707(2) 0.5307(6) 0.0454(11) Uani 1 1 d .
O3 O 0.7340(3) 0.31939(19) 0.6093(5) 0.0420(11) Uani 1 1 d .
O4 O 0.6861(3) 0.2024(2) 0.6734(5) 0.0449(12) Uani 1 1 d .
O5 O 0.5763(3) 0.1256(2) 0.5692(6) 0.0534(12) Uani 1 1 d .
O6 O 0.8970(3) 0.3142(2) 1.1704(6) 0.0471(12) Uani 1 1 d .
O7 O 0.7128(3) 0.30584(18) 0.9495(5) 0.0354(10) Uani 1 1 d .
O8 O 0.9652(3) 0.2255(3) 1.0562(6) 0.0674(17) Uani 1 1 d .
H8A H 1.0080 0.2561 1.1262 0.101 Uiso 1 1 d GR
H8B H 0.9896 0.2066 0.9865 0.101 Uiso 1 1 d GR
S1 S 0.84582(10) 0.16426(7) 0.5493(2) 0.0332(4) Uani 1 1 d .
S2 S 0.63996(11) 0.15838(8) 0.7223(2) 0.0411(4) Uani 1 1 d .
O9 O 0.9069(4) 0.3366(3) 0.8270(8) 0.0857(19) Uani 1 1 d .
H9A H 0.9027 0.3328 0.7195 0.129 Uiso 1 1 d GR
H9B H 0.9618 0.3321 0.9076 0.129 Uiso 1 1 d GR
loop_
_atom_site_aniso_label
_atom_site_aniso_U_11
_atom_site_aniso_U_22
_atom_site_aniso_U_33
_atom_site_aniso_U_23
_atom_site_aniso_U_13
_atom_site_aniso_U_12
Sm1 0.0320(2) 0.0335(2) 0.0347(2) -0.00247(15) 0.01316(15) 0.00215(16)
C1 0.043(4) 0.025(4) 0.039(3) 0.000(3) 0.024(3) -0.002(3)
C2 0.046(4) 0.042(5) 0.036(3) -0.001(3) 0.010(3) -0.004(3)
C3 0.051(5) 0.036(4) 0.039(4) 0.004(3) 0.008(3) -0.001(3)
C4 0.037(4) 0.036(4) 0.035(3) 0.005(3) 0.018(3) -0.003(3)
C5 0.044(4) 0.033(4) 0.035(3) 0.005(3) 0.015(3) -0.001(3)
C6 0.043(4) 0.026(4) 0.044(4) 0.000(3) 0.025(3) 0.003(3)
C7 0.037(4) 0.027(4) 0.040(4) 0.003(3) 0.015(3) 0.001(3)
C8 0.036(4) 0.041(4) 0.037(4) 0.001(3) 0.010(3) 0.002(3)
C9 0.034(4) 0.033(4) 0.041(4) 0.003(3) 0.017(3) 0.003(3)
C10 0.031(4) 0.032(4) 0.038(3) 0.007(3) 0.012(3) 0.002(3)
O1 0.047(3) 0.036(3) 0.044(2) -0.008(2) 0.018(2) -0.001(2)
O2 0.046(3) 0.039(3) 0.052(3) -0.002(2) 0.025(2) -0.005(2)
O3 0.041(3) 0.035(3) 0.041(2) 0.003(2) 0.012(2) -0.002(2)
O4 0.038(3) 0.036(3) 0.046(3) 0.002(2) 0.008(2) -0.005(2)
O5 0.041(3) 0.042(3) 0.053(3) -0.008(2) 0.003(2) -0.001(2)
O6 0.037(3) 0.043(3) 0.060(3) -0.012(2) 0.022(2) 0.003(2)
O7 0.036(2) 0.026(3) 0.042(2) -0.0034(18) 0.0167(19) 0.0017(19)
O8 0.045(3) 0.110(5) 0.041(3) -0.012(3) 0.015(2) 0.033(3)
S1 0.0351(9) 0.0288(9) 0.0349(8) -0.0022(6) 0.0162(7) -0.0016(7)
S2 0.0335(10) 0.0317(10) 0.0458(9) -0.0031(7) 0.0092(8) 0.0030(8)
O9 0.060(4) 0.101(5) 0.072(4) 0.009(3) 0.013(3) -0.026(4)
loop_
_atom_type_symbol
_atom_type_description
_atom_type_scat_dispersion_real
_atom_type_scat_dispersion_imag
_atom_type_scat_source
C C 0.0033 0.0016 'International Tables Vol C Tables 4.2.6.8 and 6.1.1.4'
H H 0.0000 0.0000 'International Tables Vol C Tables 4.2.6.8 and 6.1.1.4'
O O 0.0106 0.0060 'International Tables Vol C Tables 4.2.6.8 and 6.1.1.4'
S S 0.1246 0.1234 'International Tables Vol C Tables 4.2.6.8 and 6.1.1.4'
Sm Sm -0.1638 3.4418 'International Tables Vol C Tables 4.2.6.8 and 6.1.1.4'
loop_
_geom_angle_atom_site_label_1
_geom_angle_atom_site_label_2
_geom_angle_atom_site_label_3
_geom_angle
_geom_angle_site_symmetry_1
_geom_angle_site_symmetry_3
O1 Sm1 Sm1 131.03(11) . 7_657
O1 Sm1 O3 90.12(15) . .
O1 Sm1 O4 71.52(15) . .
O1 Sm1 O6 134.94(14) . .
O1 Sm1 O7 152.16(16) . .
O1 Sm1 O7 100.20(15) . 7_657
O1 Sm1 O8 69.07(15) . .
O1 Sm1 O9 86.94(19) . .
O3 Sm1 Sm1 109.95(11) . 7_657
O3 Sm1 O4 72.85(15) . .
O3 Sm1 O6 119.17(16) . .
O3 Sm1 O7 80.48(14) . .
O3 Sm1 O8 139.17(16) . .
O3 Sm1 O9 68.36(17) . .
O4 Sm1 Sm1 72.76(10) . 7_657
O4 Sm1 O6 146.07(15) . .
O6 Sm1 Sm1 73.31(10) . 7_657
O7 Sm1 Sm1 35.07(10) . 7_657
O7 Sm1 Sm1 35.94(10) 7_657 7_657
O7 Sm1 O3 136.92(15) 7_657 .
O7 Sm1 O4 80.66(15) . .
O7 Sm1 O4 71.21(14) 7_657 .
O7 Sm1 O6 71.29(14) . .
O7 Sm1 O6 81.67(15) 7_657 .
O7 Sm1 O7 71.01(16) 7_657 .
O7 Sm1 O8 132.81(14) . .
O7 Sm1 O8 82.67(17) 7_657 .
O7 Sm1 O9 152.97(17) 7_657 .
O7 Sm1 O9 113.12(19) . .
O8 Sm1 Sm1 110.14(12) . 7_657
O8 Sm1 O4 127.19(18) . .
O8 Sm1 O6 66.55(16) . .
O8 Sm1 O9 75.6(2) . .
O9 Sm1 Sm1 141.72(15) . 7_657
O9 Sm1 O4 135.26(17) . .
O9 Sm1 O6 75.11(17) . .
C2 C1 S1 116.2(5) . .
C10 C1 C2 121.4(6) . .
C10 C1 S1 122.0(5) . .
C1 C2 H2 120.8 . .
C3 C2 C1 118.4(6) . .
C3 C2 H2 120.8 . .
C2 C3 H3 119.0 . .
C2 C3 C4 121.9(6) . .
C4 C3 H3 119.0 . .
C5 C4 C3 120.5(6) . .
C5 C4 C9 121.2(6) . .
C9 C4 C3 118.3(6) . .
C4 C5 H5 119.8 . .
C6 C5 C4 120.3(6) 4_646 .
C6 C5 H5 119.8 4_646 .
C5 C6 C7 118.5(6) 4_656 7_657
O7 C6 C5 122.2(6) . 4_656
O7 C6 C7 119.2(6) . 7_657
C6 C7 S2 115.2(5) 7_657 .
C8 C7 C6 122.3(6) . 7_657
C8 C7 S2 122.5(5) . .
C7 C8 H8 119.9 . .
C7 C8 C9 120.2(6) . 6_556
C9 C8 H8 119.9 6_556 .
C8 C9 C4 117.4(6) 6 .
C10 C9 C4 119.0(6) . .
C10 C9 C8 123.6(6) . 6
C1 C10 C9 120.9(6) . .
C1 C10 H10 119.5 . .
C9 C10 H10 119.5 . .
S1 O1 Sm1 157.2(3) . .
S1 O3 Sm1 153.0(3) 7_656 .
S2 O4 Sm1 128.8(2) . .
S2 O6 Sm1 127.2(3) 7_657 .
Sm1 O7 Sm1 108.99(16) 7_657 .
C6 O7 Sm1 118.9(4) . .
C6 O7 Sm1 123.0(3) . 7_657
Sm1 O8 H8A 115.2 . .
Sm1 O8 H8B 114.1 . .
H8A O8 H8B 103.7 . .
O1 S1 C1 107.5(3) . .
O2 S1 C1 106.0(3) . .
O2 S1 O1 111.6(3) . .
O2 S1 O3 114.5(3) . 7_656
O3 S1 C1 105.9(3) 7_656 .
O3 S1 O1 110.8(3) 7_656 .
O4 S2 C7 106.8(3) . .
O4 S2 O6 111.1(3) . 7_657
O5 S2 C7 109.0(3) . .
O5 S2 O4 112.8(3) . .
O5 S2 O6 112.5(3) . 7_657
O6 S2 C7 104.0(3) 7_657 .
Sm1 O9 H9A 110.9 . .
Sm1 O9 H9B 110.6 . .
H9A O9 H9B 107.9 . .
loop_
_geom_bond_atom_site_label_1
_geom_bond_atom_site_label_2
_geom_bond_distance
_geom_bond_site_symmetry_2
Sm1 Sm1 3.8759(6) 7_657
Sm1 O1 2.342(4) .
Sm1 O3 2.375(4) .
Sm1 O4 2.483(4) .
Sm1 O6 2.508(4) .
Sm1 O7 2.355(4) 7_657
Sm1 O7 2.406(4) .
Sm1 O8 2.459(5) .
Sm1 O9 2.468(6) .
C1 C2 1.426(8) .
C1 C10 1.360(8) .
C1 S1 1.761(6) .
C2 H2 0.9300 .
C2 C3 1.364(9) .
C3 H3 0.9300 .
C3 C4 1.426(9) .
C4 C5 1.407(9) .
C4 C9 1.424(8) .
C5 H5 0.9300 .
C5 C6 1.372(9) 4_646
C6 C5 1.372(9) 4_656
C6 C7 1.418(9) 7_657
C6 O7 1.348(7) .
C7 C6 1.418(9) 7_657
C7 C8 1.368(9) .
C7 S2 1.764(6) .
C8 H8 0.9300 .
C8 C9 1.415(9) 6_556
C9 C8 1.415(9) 6
C9 C10 1.408(9) .
C10 H10 0.9300 .
O1 S1 1.466(4) .
O2 S1 1.435(5) .
O3 S1 1.449(4) 7_656
O4 S2 1.456(5) .
O5 S2 1.442(5) .
O6 S2 1.479(4) 7_657
O7 Sm1 2.355(4) 7_657
O8 H8A 0.9804 .
O8 H8B 0.9767 .
S1 O3 1.449(4) 7_656
S2 O6 1.479(4) 7_657
O9 H9A 0.8817 .
O9 H9B 0.8808 .
loop_
_geom_torsion_atom_site_label_1
_geom_torsion_atom_site_label_2
_geom_torsion_atom_site_label_3
_geom_torsion_atom_site_label_4
_geom_torsion
_geom_torsion_site_symmetry_1
_geom_torsion_site_symmetry_4
Sm1 O1 S1 C1 -118.3(7) . .
Sm1 O1 S1 O2 125.8(7) . .
Sm1 O1 S1 O3 -3.1(8) . 7_656
Sm1 O4 S2 C7 -50.4(4) . .
Sm1 O4 S2 O5 -170.2(3) . .
Sm1 O4 S2 O6 62.4(4) . 7_657
C1 C2 C3 C4 1.2(11) . .
C2 C1 C10 C9 -0.8(9) . .
C2 C1 S1 O1 -54.8(5) . .
C2 C1 S1 O2 64.7(5) . .
C2 C1 S1 O3 -173.3(5) . 7_656
C2 C3 C4 C5 178.4(6) . .
C2 C3 C4 C9 -3.1(10) . .
C3 C4 C5 C6 176.4(6) . 4_646
C3 C4 C9 C8 -177.1(6) . 6
C3 C4 C9 C10 3.0(9) . .
C4 C9 C10 C1 -1.2(9) . .
C5 C4 C9 C8 1.4(9) . 6
C5 C4 C9 C10 -178.5(6) . .
C5 C6 O7 Sm1 -110.8(6) 4_656 7_657
C5 C6 O7 Sm1 105.9(6) 4_656 .
C6 C7 C8 C9 0.3(10) 7_657 6_556
C6 C7 S2 O4 56.5(5) 7_657 .
C6 C7 S2 O5 178.7(5) 7_657 .
C6 C7 S2 O6 -61.1(5) 7_657 7_657
C7 C6 O7 Sm1 70.4(7) 7_657 7_657
C7 C6 O7 Sm1 -72.9(6) 7_657 .
C8 C7 S2 O4 -125.4(5) . .
C8 C7 S2 O5 -3.2(6) . .
C8 C7 S2 O6 117.1(5) . 7_657
C8 C9 C10 C1 179.0(6) 6 .
C9 C4 C5 C6 -2.0(9) . 4_646
C10 C1 C2 C3 0.8(10) . .
C10 C1 S1 O1 132.6(5) . .
C10 C1 S1 O2 -107.9(5) . .
C10 C1 S1 O3 14.1(6) . 7_656
S1 C1 C2 C3 -171.9(5) . .
S1 C1 C10 C9 171.5(5) . .
S2 C7 C8 C9 -177.7(5) . 6_556
