#------------------------------------------------------------------------------
#$Date: 2016-02-05 00:51:38 +0200 (Fri, 05 Feb 2016) $
#$Revision: 175998 $
#$URL: svn://www.crystallography.net/cod/cif/7/03/73/7037366.cif $
#------------------------------------------------------------------------------
#
# This file is available in the Crystallography Open Database (COD),
# http://www.crystallography.net/
#
# All data on this site have been placed in the public domain by the
# contributors.
#
data_7037366
loop_
_publ_author_name
'D'Vries, Richard F'
'Gomez, German E.'
'Hodak, Jos\'e H'
'Soler-Illia, Galo J A A'
'Ellena, Javier'
_publ_section_title
;
 Tuning the structure, dimensionality and luminescent properties of
 lanthanide metal-organic frameworks under ancillary ligand influence.
;
_journal_issue                   2
_journal_name_full
'Dalton transactions (Cambridge, England : 2003)'
_journal_page_first              646
_journal_page_last               656
_journal_paper_doi               10.1039/c5dt04033g
_journal_volume                  45
_journal_year                    2015
_chemical_formula_moiety         'C10 H9 O9 Pr S2'
_chemical_formula_sum            'C10 H9 O9 Pr S2'
_chemical_formula_weight         478.20
_space_group_crystal_system      monoclinic
_space_group_IT_number           15
_space_group_name_Hall           '-C 2yc'
_space_group_name_H-M_alt        'C 1 2/c 1'
_symmetry_space_group_name_Hall  '-C 2yc'
_symmetry_space_group_name_H-M   'C 1 2/c 1'
_atom_sites_solution_hydrogens   mixed
_audit_creation_date             2015-11-10
_audit_creation_method
;
Olex2 1.2
(compiled 2015.09.30 svn.r3233 for OlexSys, GUI svn.r5103)
;
_audit_update_record
;
2015-11-12 deposited with the CCDC.
2015-11-20 downloaded from the CCDC.
;
_cell_angle_alpha                90
_cell_angle_beta                 118.362(2)
_cell_angle_gamma                90
_cell_formula_units_Z            8
_cell_length_a                   17.5597(6)
_cell_length_b                   22.6337(7)
_cell_length_c                   8.5253(3)
_cell_measurement_temperature    293(2)
_cell_volume                     2981.58(18)
_computing_cell_refinement       'HKL Scalepack (Otwinowski & Minor 1997)'
_computing_data_collection       'Collect (Bruker AXS BV, 1997-2004)'
_computing_data_reduction
'HKL Denzo and Scalepack (Otwinowski & Minor 1997)'
_computing_molecular_graphics    'Olex2 (Dolomanov et al., 2009)'
_computing_publication_material  'Olex2 (Dolomanov et al., 2009)'
_computing_structure_refinement  'ShelXL (Sheldrick, 2015)'
_computing_structure_solution    'SHELXS-2013 (Sheldrick, 2013)'
_diffrn_ambient_temperature      293
_diffrn_detector_area_resol_mean 9
_diffrn_measured_fraction_theta_full 0.999
_diffrn_measured_fraction_theta_max 0.999
_diffrn_measurement_device_type  KappaCCD
_diffrn_measurement_method       'CCD rotation images, thick slices'
_diffrn_radiation_type           MoK\a
_diffrn_radiation_wavelength     0.71073
_diffrn_reflns_av_R_equivalents  0.1071
_diffrn_reflns_av_unetI/netI     0.0706
_diffrn_reflns_laue_measured_fraction_full 0.999
_diffrn_reflns_laue_measured_fraction_max 0.999
_diffrn_reflns_limit_h_max       21
_diffrn_reflns_limit_h_min       -21
_diffrn_reflns_limit_k_max       25
_diffrn_reflns_limit_k_min       -28
_diffrn_reflns_limit_l_max       10
_diffrn_reflns_limit_l_min       -10
_diffrn_reflns_number            24493
_diffrn_reflns_point_group_measured_fraction_full 0.999
_diffrn_reflns_point_group_measured_fraction_max 0.999
_diffrn_reflns_theta_full        25.242
_diffrn_reflns_theta_max         26.343
_diffrn_reflns_theta_min         3.005
_diffrn_source                   'Enraf Nonius FR590'
_exptl_absorpt_coefficient_mu    3.589
_exptl_absorpt_correction_T_max  0.8336
_exptl_absorpt_correction_T_min  0.7052
_exptl_absorpt_correction_type   multi-scan
_exptl_absorpt_process_details
'[c.f. r.h. blessing, acta cryst. (1995), a51, 33-38]'
_exptl_crystal_colour            'light green'
_exptl_crystal_colour_modifier   light
_exptl_crystal_colour_primary    green
_exptl_crystal_density_diffrn    2.131
_exptl_crystal_description       block
_exptl_crystal_F_000             1856
_exptl_crystal_preparation       Luminescent
_exptl_crystal_recrystallization_method Hydrothermal
_exptl_crystal_size_max          0.08
_exptl_crystal_size_mid          0.04
_exptl_crystal_size_min          0.02
_refine_diff_density_max         1.772
_refine_diff_density_min         -1.371
_refine_diff_density_rms         0.175
_refine_ls_extinction_method     none
_refine_ls_goodness_of_fit_ref   0.953
_refine_ls_hydrogen_treatment    constr
_refine_ls_matrix_type           full
_refine_ls_number_parameters     206
_refine_ls_number_reflns         3041
_refine_ls_number_restraints     0
_refine_ls_restrained_S_all      0.953
_refine_ls_R_factor_all          0.0712
_refine_ls_R_factor_gt           0.0473
_refine_ls_shift/su_max          0.001
_refine_ls_shift/su_mean         0.000
_refine_ls_structure_factor_coef Fsqd
_refine_ls_weighting_details
'w=1/[\s^2^(Fo^2^)+(0.0688P)^2^] where P=(Fo^2^+2Fc^2^)/3'
_refine_ls_weighting_scheme      calc
_refine_ls_wR_factor_gt          0.1119
_refine_ls_wR_factor_ref         0.1168
_reflns_Friedel_coverage         0.000
_reflns_number_gt                1988
_reflns_number_total             3041
_reflns_threshold_expression     'I > 2\s(I)'
_cod_data_source_file            c5dt04033g2.cif
_cod_data_source_block           Compound2
_cod_depositor_comments
'Adding full bibliography for 7037363--7037371.cif.'
_cod_database_code               7037366
_shelx_space_group_comment
;
The symmetry employed for this shelxl refinement is uniquely defined
by the following loop, which should always be used as a source of
symmetry information in preference to the above space-group names.
They are only intended as comments.
;
_shelx_estimated_absorpt_t_max   0.932
_shelx_estimated_absorpt_t_min   0.762
_olex2_refinement_description
;
1. Fixed Uiso
 At 1.2 times of:
  All C(H) groups
 At 1.5 times of:
  All O(H,H) groups
2. Uiso/Uaniso restraints and constraints
Uanis(O8A) = Uanis(O8B) = Uanis(O8C)
3. Others
 Fixed Sof: O8A(0.25) H8AA(0.25) H8AB(0.25) O8B(0.45) H8BA(0.45) H8BB(0.45)
 O8C(0.3) H8CA(0.3) H8CB(0.3)
4.a Riding coordinates:
 O8A(H8AA,H8AB), O8B(H8BA,H8BB), O8C(H8CA,H8CB)
4.b Rotating group:
 O9(H9A,H9B)
4.c Aromatic/amide H refined with riding coordinates:
 C2(H2), C3(H3), C5(H5), C8(H8), C10(H10)
;
_shelx_res_file
;
    shelx_sq.res created by SHELXL-2014/7

TITL shelx in C2/c
CELL 0.71073 17.5597 22.6337 8.5253 90 118.362 90
ZERR 8 0.0006 0.0007 0.0003 0 0.002 0
LATT 7
SYMM -X,+Y,0.5-Z
SFAC C H O Pr S
UNIT 80 72 72 8 16
EADP O8A O8B O8C

L.S. 20 0 7
PLAN  20
SIZE 0.02 0.04 0.08
TEMP 19.85
BOND $H
MORE -1
CONF
ABIN
fmap 2
acta
MERG 2
REM <olex2.extras>
REM <HklSrc "%.\\shelx_sq.hkl">
REM </olex2.extras>

WGHT    0.068800
FVAR       0.04466
PR1   4    0.816453    0.264306    0.866367    11.00000    0.03671    0.03837 =
         0.03519    0.00315    0.01661    0.00596
C1    1    0.839396    0.083789    0.584397    11.00000    0.04140    0.02904 =
         0.03342    0.00148    0.01825    0.00160
C2    1    0.904332    0.057771    0.741253    11.00000    0.04335    0.03412 =
         0.04175   -0.00375    0.01085   -0.00053
AFIX  43
H2    2    0.945994    0.081358    0.829731    11.00000   -1.20000
AFIX   0
C3    1    0.906062   -0.000952    0.762943    11.00000    0.05106    0.04132 =
         0.03551    0.00690    0.00885   -0.00084
AFIX  43
H3    2    0.947807   -0.017601    0.868761    11.00000   -1.20000
AFIX   0
C4    1    0.844617   -0.038569    0.625718    11.00000    0.03695    0.03124 =
         0.03920   -0.00121    0.01622   -0.00342
C5    1    0.848104    0.101002    1.147453    11.00000    0.05127    0.04060 =
         0.03377   -0.00472    0.01649    0.00225
AFIX  43
H5    2    0.892555    0.118167    1.248673    11.00000   -1.20000
AFIX   0
C6    1    0.785772    0.135829    1.018817    11.00000    0.04001    0.02883 =
         0.04839    0.00100    0.02646    0.00183
C7    1    0.720923    0.109331    0.867358    11.00000    0.03201    0.03704 =
         0.05291    0.01125    0.01848    0.00698
C8    1    0.716456    0.049112    0.836663    11.00000    0.03715    0.03318 =
         0.04520   -0.00377    0.01170   -0.00307
AFIX  43
H8    2    0.673369    0.033212    0.731105    11.00000   -1.20000
AFIX   0
C9    1    0.779240   -0.012059    0.470172    11.00000    0.04018    0.02693 =
         0.03797   -0.00281    0.01676    0.00085
C10   1    0.778801    0.049707    0.452841    11.00000    0.03352    0.03765 =
         0.03459    0.00376    0.01460    0.00534
AFIX  43
H10   2    0.736488    0.067539    0.349982    11.00000   -1.20000
AFIX   0
O1    3    0.853173    0.188035    0.715604    11.00000    0.05589    0.04921 =
         0.04979   -0.01345    0.01299    0.01652
O2    3    0.925815    0.168969    0.540003    11.00000    0.04924    0.04208 =
         0.05674    0.00021    0.02311   -0.00796
O3    3    0.769119    0.177577    0.397143    11.00000    0.04369    0.03225 =
         0.04374    0.00318    0.00655    0.00109
O4    3    0.683610    0.202747    0.665501    11.00000    0.05565    0.04070 =
         0.04840    0.00604    0.00711   -0.00876
O5    3    0.578298    0.124474    0.569094    11.00000    0.06526    0.04927 =
         0.09450    0.00450   -0.02023   -0.00072
O6    3    0.897871    0.314747    1.175782    11.00000    0.05046    0.04927 =
         0.13692    0.00097    0.04999    0.01387
O7    3    0.785512    0.195426    1.042134    11.00000    0.04372    0.02829 =
         0.04431    0.00330    0.02329    0.00764
PART 1
O8A   3    0.914795    0.299153    0.713986    10.25000    0.02858    0.04533 =
         0.03392    0.00626    0.01000   -0.01277
AFIX   3
H8AA  2    0.859815    0.294543    0.609917    10.25000   -1.50000
H8AB  2    0.944925    0.262523    0.730087    10.25000   -1.50000
AFIX   0
PART 0
PART 2
O8B   3    0.908605    0.334082    0.811050    10.45000    0.02858    0.04533 =
         0.03392    0.00626    0.01000   -0.01277
AFIX   3
H8BA  2    0.959285    0.357232    0.846040    10.45000   -1.50000
H8BB  2    0.861515    0.354972    0.719590    10.45000   -1.50000
AFIX   0
PART 0
PART 3
O8C   3    0.884792    0.371394    0.924953    10.30000    0.02858    0.04533 =
         0.03392    0.00626    0.01000   -0.01277
AFIX   3
H8CA  2    0.916762    0.368104    1.050882    10.30000   -1.50000
H8CB  2    0.837062    0.396874    0.897543    10.30000   -1.50000
AFIX   0
O9    3    0.969507    0.230045    1.056547    11.00000    0.05122    0.09656 =
         0.04331   -0.01283    0.01914    0.02321
AFIX   7
H9A   2    1.003257    0.259365    1.117420    11.00000   -1.50000
H9B   2    0.989858    0.215116    0.989127    11.00000   -1.50000
AFIX   0
S1    5    0.848023    0.160276    0.556664    11.00000    0.03982    0.02990 =
         0.03895    0.00009    0.01369    0.00244
S2    5    0.640258    0.157854    0.716067    11.00000    0.03751    0.03834 =
         0.07760    0.01046    0.00222    0.00068
HKLF 4

REM  shelx in C2/c
REM R1 =  0.0473 for    1988 Fo > 4sig(Fo)  and  0.0712 for all    3041 data
REM    206 parameters refined using      0 restraints

END

WGHT      0.0688      0.0000

REM Highest difference peak  1.772,  deepest hole -1.371,  1-sigma level  0.175
Q1    1   0.9495  0.2344  0.5952  11.00000  0.05    1.77
Q2    1   0.8137  0.2013  0.8615  11.00000  0.05    1.65
Q3    1   0.6375  0.1410  0.6297  11.00000  0.05    1.10
Q4    1   0.8506  0.3714  0.5556  11.00000  0.05    0.85
Q5    1   0.5716  0.1588  0.6909  11.00000  0.05    0.84
Q6    1   0.7829  0.1566  1.1636  11.00000  0.05    0.81
Q7    1   0.9901  0.1564  0.9978  11.00000  0.05    0.78
Q8    1   0.9748  0.3426  1.2829  11.00000  0.05    0.71
Q9    1   0.7049  0.2663  0.6788  11.00000  0.05    0.70
Q10   1   0.6180  0.1079  0.4964  11.00000  0.05    0.70
Q11   1   0.8518  0.3106  0.5477  11.00000  0.05    0.62
Q12   1   0.7606  0.2637  0.7852  11.00000  0.05    0.61
Q13   1   0.9392  0.2933  0.5811  11.00000  0.05    0.60
Q14   1   0.7262  0.1602  0.5553  11.00000  0.05    0.59
Q15   1   0.8221  0.2342  0.4196  11.00000  0.05    0.59
Q16   1   0.8581  0.1869  1.2636  11.00000  0.05    0.57
Q17   1   0.7879  0.2088  0.9847  11.00000  0.05    0.56
Q18   1   0.9539  0.1947  1.0415  11.00000  0.05    0.56
Q19   1   0.7710  0.1994  0.4395  11.00000  0.05    0.56
Q20   1   0.8551  0.1265  1.2655  11.00000  0.05    0.55
;
_shelx_res_checksum              45852
_shelx_fab_checksum              49298
_shelx_fab_file
;
    4    0    0     20.42      0.00
    6    0    0      5.98      0.00
    8    0    0      1.55      0.00
   10    0    0     -0.36      0.00
   12    0    0     -0.69      0.00
   14    0    0      0.24      0.00
   16    0    0      0.12      0.00
   18    0    0     -0.22      0.00
    3    1    0    -30.73      0.00
    5    1    0    -10.98      0.00
    7    1    0     -2.98      0.00
    9    1    0     -0.49      0.00
   11    1    0      0.78      0.00
   13    1    0      0.22      0.00
   15    1    0     -0.33      0.00
   17    1    0      0.19      0.00
   19    1    0     -0.05      0.00
    2    2    0     37.18      0.00
    4    2    0     16.94      0.00
    6    2    0      5.02      0.00
    8    2    0      1.46      0.00
   10    2    0     -0.29      0.00
   12    2    0     -0.66      0.00
   14    2    0      0.17      0.00
   16    2    0      0.05      0.00
   18    2    0     -0.29      0.00
    1    3    0    -36.01      0.00
    3    3    0    -21.13      0.00
    5    3    0     -7.44      0.00
    7    3    0     -2.36      0.00
    9    3    0     -0.59      0.00
   11    3    0      0.64      0.00
   13    3    0      0.27      0.00
   15    3    0     -0.18      0.00
   17    3    0      0.28      0.00
   19    3    0      0.13      0.00
    0    4    0     27.31      0.00
    2    4    0     20.73      0.00
    4    4    0      9.07      0.00
    6    4    0      3.00      0.00
    8    4    0      1.42      0.00
   10    4    0     -0.02      0.00
   12    4    0     -0.59      0.00
   14    4    0     -0.02      0.00
   16    4    0     -0.11      0.00
   18    4    0     -0.43      0.00
    1    5    0    -15.22      0.00
    3    5    0     -8.40      0.00
    5    5    0     -3.02      0.00
    7    5    0     -1.78      0.00
    9    5    0     -0.91      0.00
   11    5    0      0.39      0.00
   13    5    0      0.41      0.00
   15    5    0      0.08      0.00
   17    5    0      0.41      0.00
    0    6    0      7.09      0.00
    2    6    0      4.96      0.00
    4    6    0      1.89      0.00
    6    6    0      1.42      0.00
    8    6    0      1.57      0.00
   10    6    0      0.36      0.00
   12    6    0     -0.56      0.00
   14    6    0     -0.35      0.00
   16    6    0     -0.32      0.00
   18    6    0     -0.54      0.00
    1    7    0     -0.08      0.00
    3    7    0      0.50      0.00
    5    7    0     -0.22      0.00
    7    7    0     -1.53      0.00
    9    7    0     -1.19      0.00
   11    7    0      0.21      0.00
   13    7    0      0.67      0.00
   15    7    0      0.45      0.00
   17    7    0      0.53      0.00
    0    8    0     -3.93      0.00
    2    8    0     -3.37      0.00
    4    8    0     -1.58      0.00
    6    8    0      0.70      0.00
    8    8    0      1.53      0.00
   10    8    0      0.45      0.00
   12    8    0     -0.71      0.00
   14    8    0     -0.79      0.00
   16    8    0     -0.60      0.00
   18    8    0     -0.60      0.00
    1    9    0      5.42      0.00
    3    9    0      3.39      0.00
    5    9    0      0.60      0.00
    7    9    0     -1.16      0.00
    9    9    0     -0.93      0.00
   11    9    0      0.38      0.00
   13    9    0      1.06      0.00
   15    9    0      0.88      0.00
   17    9    0      0.68      0.00
    0   10    0     -5.73      0.00
    2   10    0     -4.47      0.00
    4   10    0     -1.79      0.00
    6   10    0      0.35      0.00
    8   10    0      0.90      0.00
   10   10    0      0.03      0.00
   12   10    0     -1.03      0.00
   14   10    0     -1.24      0.00
   16   10    0     -0.91      0.00
   18   10    0     -0.62      0.00
    1   11    0      4.38      0.00
    3   11    0      2.40      0.00
    5   11    0      0.36      0.00
    7   11    0     -0.50      0.00
    9   11    0     -0.20      0.00
   11   11    0      0.74      0.00
   13   11    0      1.37      0.00
   15   11    0      1.25      0.00
   17   11    0      0.83      0.00
    0   12    0     -3.25      0.00
    2   12    0     -2.28      0.00
    4   12    0     -0.61      0.00
    6   12    0      0.21      0.00
    8   12    0      0.14      0.00
   10   12    0     -0.43      0.00
   12   12    0     -1.17      0.00
   14   12    0     -1.47      0.00
   16   12    0     -1.14      0.00
    1   13    0      1.61      0.00
    3   13    0      0.42      0.00
    5   13    0     -0.33      0.00
    7   13    0     -0.21      0.00
    9   13    0      0.17      0.00
   11   13    0      0.73      0.00
   13   13    0      1.33      0.00
   15   13    0      1.40      0.00
   17   13    0      0.88      0.00
    0   14    0     -0.67      0.00
    2   14    0     -0.07      0.00
    4   14    0      0.71      0.00
    6   14    0      0.64      0.00
    8   14    0      0.21      0.00
   10   14    0     -0.17      0.00
   12   14    0     -0.81      0.00
   14   14    0     -1.35      0.00
   16   14    0     -1.18      0.00
    1   15    0     -0.26      0.00
    3   15    0     -0.99      0.00
    5   15    0     -1.21      0.00
    7   15    0     -0.84      0.00
    9   15    0     -0.50      0.00
   11   15    0      0.01      0.00
   13   15    0      0.87      0.00
   15   15    0      1.28      0.00
    0   16    0      0.55      0.00
    2   16    0      0.97      0.00
    4   16    0      1.50      0.00
    6   16    0      1.46      0.00
    8   16    0      1.25      0.00
   10   16    0      0.93      0.00
   12   16    0      0.02      0.00
   14   16    0     -0.98      0.00
    1   17    0     -0.77      0.00
    3   17    0     -1.30      0.00
    5   17    0     -1.67      0.00
    7   17    0     -1.80      0.00
    9   17    0     -1.82      0.00
   11   17    0     -1.14      0.00
   13   17    0      0.22      0.00
   15   17    0      0.98      0.00
    0   18    0      0.58      0.00
    2   18    0      0.82      0.00
    4   18    0      1.28      0.00
    6   18    0      1.78      0.00
    8   18    0      2.30      0.00
   10   18    0      2.18      0.00
   12   18    0      0.89      0.00
   14   18    0     -0.54      0.00
    1   19    0     -0.39      0.00
    3   19    0     -0.60      0.00
    5   19    0     -1.12      0.00
    7   19    0     -2.05      0.00
    9   19    0     -2.72      0.00
   11   19    0     -2.03      0.00
   13   19    0     -0.32      0.00
    0   20    0      0.14      0.00
    2   20    0      0.09      0.00
    4   20    0      0.24      0.00
    6   20    0      1.11      0.00
    8   20    0      2.42      0.00
   10   20    0      2.74      0.00
   12   20    0      1.39      0.00
    1   21    0      0.02      0.00
    3   21    0      0.30      0.00
    5   21    0      0.01      0.00
    7   21    0     -1.35      0.00
    9   21    0     -2.62      0.00
   11   21    0     -2.22      0.00
    0   22    0      0.13      0.00
    2   22    0     -0.22      0.00
    4   22    0     -0.62      0.00
    6   22    0      0.08      0.00
    8   22    0      1.69      0.00
   10   22    0      2.39      0.00
   12   22    0      1.40      0.00
    1   23    0     -0.31      0.00
    3   23    0      0.40      0.00
    5   23    0      0.64      0.00
    7   23    0     -0.45      0.00
    9   23    0     -1.79      0.00
   11   23    0     -1.74      0.00
    0   24    0      0.90      0.00
    2   24    0      0.39      0.00
    4   24    0     -0.46      0.00
    6   24    0     -0.37      0.00
    8   24    0      0.79      0.00
   10   24    0      1.49      0.00
    1   25    0     -1.25      0.00
    3   25    0     -0.38      0.00
    5   25    0      0.36      0.00
    7   25    0     -0.01      0.00
    9   25    0     -0.84      0.00
    0   26    0      1.78      0.00
    2   26    0      1.30      0.00
    4   26    0      0.31      0.00
    6   26    0     -0.16      0.00
    1   27    0     -1.85      0.00
    3   27    0     -1.08      0.00
    5   27    0     -0.22      0.00
    0   28    0      1.88      0.00
    2   28    0      1.52      0.00
  -19    1    1      0.18      0.00
  -17    1    1      0.13      0.00
  -15    1    1     -0.38      0.00
  -13    1    1     -1.13      0.00
  -11    1    1     -1.46      0.00
   -9    1    1     -1.64      0.00
   -7    1    1     -2.51      0.00
   -5    1    1     -3.24      0.00
   -3    1    1     -2.12      0.00
    1    1    1      1.65      0.00
    3    1    1      1.77      0.00
    5    1    1      1.21      0.00
    7    1    1      0.21      0.00
    9    1    1     -0.72      0.00
   11    1    1     -0.89      0.00
   13    1    1     -0.55      0.00
   15    1    1     -0.34      0.00
   17    1    1     -0.31      0.00
  -20    2    1     -0.26      0.00
  -18    2    1     -0.43      0.00
  -16    2    1      0.05      0.00
  -14    2    1      1.38      0.00
  -12    2    1      2.52      0.00
  -10    2    1      2.76      0.00
   -8    2    1      3.64      0.00
   -6    2    1      5.62      0.00
   -4    2    1      5.53      0.00
   -2    2    1      1.90      0.00
    0    2    1     -2.01      0.00
    2    2    1     -3.43      0.00
    4    2    1     -2.99      0.00
    6    2    1     -1.51      0.00
    8    2    1      0.54      0.00
   10    2    1      1.67      0.00
   12    2    1      1.34      0.00
   14    2    1      0.71      0.00
   16    2    1      0.54      0.00
   18    2    1      0.49      0.00
  -19    3    1      0.61      0.00
  -17    3    1      0.56      0.00
  -15    3    1     -0.70      0.00
  -13    3    1     -2.65      0.00
  -11    3    1     -3.52      0.00
   -9    3    1     -3.90      0.00
   -7    3    1     -6.09      0.00
   -5    3    1     -8.10      0.00
   -3    3    1     -5.56      0.00
   -1    3    1      0.15      0.00
    1    3    1      3.97      0.00
    3    3    1      4.63      0.00
    5    3    1      3.42      0.00
    7    3    1      0.83      0.00
    9    3    1     -1.65      0.00
   11    3    1     -2.09      0.00
   13    3    1     -1.20      0.00
   15    3    1     -0.67      0.00
   17    3    1     -0.61      0.00
  -18    4    1     -0.95      0.00
  -16    4    1     -0.35      0.00
  -14    4    1      1.71      0.00
  -12    4    1      3.58      0.00
  -10    4    1      3.92      0.00
   -8    4    1      5.16      0.00
   -6    4    1      8.33      0.00
   -4    4    1      8.67      0.00
   -2    4    1      3.51      0.00
    0    4    1     -2.51      0.00
    2    4    1     -5.21      0.00
    4    4    1     -5.10      0.00
    6    4    1     -2.94      0.00
    8    4    1      0.40      0.00
   10    4    1      2.27      0.00
   12    4    1      1.74      0.00
   14    4    1      0.78      0.00
   16    4    1      0.54      0.00
   18    4    1      0.50      0.00
  -19    5    1      0.96      0.00
  -17    5    1      1.09      0.00
  -15    5    1     -0.25      0.00
  -13    5    1     -2.63      0.00
  -11    5    1     -3.73      0.00
   -9    5    1     -4.00      0.00
   -7    5    1     -6.53      0.00
   -5    5    1     -9.37      0.00
   -3    5    1     -7.14      0.00
   -1    5    1     -0.82      0.00
    1    5    1      4.04      0.00
    3    5    1      5.69      0.00
    5    5    1      4.86      0.00
    7    5    1      1.78      0.00
    9    5    1     -1.38      0.00
   11    5    1     -1.99      0.00
   13    5    1     -0.97      0.00
   15    5    1     -0.37      0.00
   17    5    1     -0.33      0.00
  -18    6    1     -1.19      0.00
  -16    6    1     -0.85      0.00
  -14    6    1      1.05      0.00
  -12    6    1      2.93      0.00
  -10    6    1      3.16      0.00
   -8    6    1      4.16      0.00
   -6    6    1      7.50      0.00
   -4    6    1      8.70      0.00
   -2    6    1      4.55      0.00
    0    6    1     -1.19      0.00
    2    6    1     -4.65      0.00
    4    6    1     -5.61      0.00
    6    6    1     -3.97      0.00
    8    6    1     -0.56      0.00
   10    6    1      1.49      0.00
   12    6    1      1.10      0.00
   14    6    1      0.27      0.00
   16    6    1      0.06      0.00
  -19    7    1      0.80      0.00
  -17    7    1      1.11      0.00
  -15    7    1      0.29      0.00
  -13    7    1     -1.56      0.00
  -11    7    1     -2.38      0.00
   -9    7    1     -2.37      0.00
   -7    7    1     -4.48      0.00
   -5    7    1     -7.53      0.00
   -3    7    1     -6.77      0.00
   -1    7    1     -2.21      0.00
    1    7    1      2.18      0.00
    3    7    1      4.72      0.00
    5    7    1      5.07      0.00
    7    7    1      2.79      0.00
    9    7    1     -0.05      0.00
   11    7    1     -0.85      0.00
   13    7    1     -0.25      0.00
   15    7    1      0.14      0.00
   17    7    1      0.19      0.00
  -18    8    1     -0.66      0.00
  -16    8    1     -0.73      0.00
  -14    8    1      0.26      0.00
  -12    8    1      1.37      0.00
  -10    8    1      1.28      0.00
   -8    8    1      1.87      0.00
   -6    8    1      4.68      0.00
   -4    8    1      6.50      0.00
   -2    8    1      4.53      0.00
    0    8    1      0.71      0.00
    2    8    1     -2.53      0.00
    4    8    1     -4.51      0.00
    6    8    1     -4.21      0.00
    8    8    1     -1.89      0.00
   10    8    1     -0.08      0.00
   12    8    1      0.11      0.00
   14    8    1     -0.19      0.00
   16    8    1     -0.34      0.00
  -19    9    1      0.00      0.00
  -17    9    1      0.28      0.00
  -15    9    1      0.26      0.00
  -13    9    1     -0.36      0.00
  -11    9    1     -0.48      0.00
   -9    9    1     -0.26      0.00
   -7    9    1     -1.77      0.00
   -5    9    1     -4.36      0.00
   -3    9    1     -4.82      0.00
   -1    9    1     -2.69      0.00
    1    9    1      0.11      0.00
    3    9    1      2.66      0.00
    5    9    1      4.10      0.00
    7    9    1      3.38      0.00
    9    9    1      1.55      0.00
   11    9    1      0.44      0.00
   13    9    1      0.21      0.00
   15    9    1      0.30      0.00
   17    9    1      0.42      0.00
  -18   10    1      0.47      0.00
  -16   10    1      0.11      0.00
  -14   10    1     -0.10      0.00
  -12   10    1     -0.19      0.00
  -10   10    1     -0.60      0.00
   -8   10    1     -0.21      0.00
   -6   10    1      1.76      0.00
   -4   10    1      3.39      0.00
   -2   10    1      3.02      0.00
    0   10    1      1.40      0.00
    2   10    1     -0.61      0.00
    4   10    1     -2.67      0.00
    6   10    1     -3.62      0.00
    8   10    1     -2.86      0.00
   10   10    1     -1.45      0.00
   12   10    1     -0.47      0.00
   14   10    1     -0.14      0.00
   16   10    1     -0.30      0.00
  -17   11    1     -0.88      0.00
  -15   11    1     -0.20      0.00
  -13   11    1      0.48      0.00
  -11   11    1      1.07      0.00
   -9   11    1      1.22      0.00
   -7   11    1      0.18      0.00
   -5   11    1     -1.39      0.00
   -3   11    1     -1.97      0.00
   -1   11    1     -1.49      0.00
    1   11    1     -0.54      0.00
    3   11    1      0.94      0.00
    5   11    1      2.59      0.00
    7   11    1      3.23      0.00
    9   11    1      2.48      0.00
   11   11    1      1.10      0.00
   13   11    1      0.11      0.00
   15   11    1      0.02      0.00
  -18   12    1      1.40      0.00
  -16   12    1      0.94      0.00
  -14   12    1     -0.19      0.00
  -12   12    1     -1.20      0.00
  -10   12    1     -1.63      0.00
   -8   12    1     -1.18      0.00
   -6   12    1     -0.15      0.00
   -4   12    1      0.50      0.00
   -2   12    1      0.51      0.00
    0   12    1      0.40      0.00
    2   12    1      0.01      0.00
    4   12    1     -1.12      0.00
    6   12    1     -2.47      0.00
    8   12    1     -2.86      0.00
   10   12    1     -1.86      0.00
   12   12    1     -0.41      0.00
   14   12    1      0.22      0.00
   16   12    1     -0.03      0.00
  -17   13    1     -1.51      0.00
  -15   13    1     -0.49      0.00
  -13   13    1      0.90      0.00
  -11   13    1      1.65      0.00
   -9   13    1      1.48      0.00
   -7   13    1      0.85      0.00
   -5   13    1      0.52      0.00
   -3   13    1      0.63      0.00
   -1   13    1      0.57      0.00
    1   13    1      0.19      0.00
    3   13    1      0.24      0.00
    5   13    1      1.18      0.00
    7   13    1      2.28      0.00
    9   13    1      2.23      0.00
   11   13    1      0.93      0.00
   13   13    1     -0.22      0.00
   15   13    1     -0.25      0.00
  -16   14    1      1.12      0.00
  -14   14    1     -0.27      0.00
  -12   14    1     -1.35      0.00
  -10   14    1     -1.37      0.00
   -8   14    1     -0.85      0.00
   -6   14    1     -0.75      0.00
   -4   14    1     -1.22      0.00
   -2   14    1     -1.50      0.00
    0   14    1     -1.06      0.00
    2   14    1     -0.33      0.00
    4   14    1     -0.27      0.00
    6   14    1     -1.12      0.00
    8   14    1     -1.83      0.00
   10   14    1     -1.29      0.00
   12   14    1     -0.07      0.00
   14   14    1      0.37      0.00
  -17   15    1     -1.31      0.00
  -15   15    1     -0.39      0.00
  -13   15    1      0.81      0.00
  -11   15    1      1.05      0.00
   -9   15    1      0.50      0.00
   -7   15    1      0.35      0.00
   -5   15    1      1.04      0.00
   -3   15    1      1.79      0.00
   -1   15    1      1.79      0.00
    1   15    1      1.01      0.00
    3   15    1      0.19      0.00
    5   15    1      0.16      0.00
    7   15    1      0.87      0.00
    9   15    1      1.12      0.00
   11   15    1      0.38      0.00
   13   15    1     -0.27      0.00
   15   15    1     -0.11      0.00
  -16   16    1      0.76      0.00
  -14   16    1     -0.23      0.00
  -12   16    1     -0.64      0.00
  -10   16    1     -0.08      0.00
   -8   16    1      0.31      0.00
   -6   16    1     -0.31      0.00
   -4   16    1     -1.37      0.00
   -2   16    1     -1.89      0.00
    0   16    1     -1.56      0.00
    2   16    1     -0.66      0.00
    4   16    1      0.09      0.00
    6   16    1      0.04      0.00
    8   16    1     -0.45      0.00
   10   16    1     -0.41      0.00
   12   16    1      0.02      0.00
   14   16    1      0.04      0.00
  -15   17    1     -0.20      0.00
  -13   17    1      0.25      0.00
  -11   17    1     -0.24      0.00
   -9   17    1     -0.91      0.00
   -7   17    1     -0.58      0.00
   -5   17    1      0.52      0.00
   -3   17    1      1.38      0.00
   -1   17    1      1.57      0.00
    1   17    1      1.12      0.00
    3   17    1      0.24      0.00
    5   17    1     -0.40      0.00
    7   17    1     -0.29      0.00
    9   17    1      0.08      0.00
   11   17    1      0.14      0.00
   13   17    1      0.16      0.00
  -14   18    1      0.05      0.00
  -12   18    1      0.38      0.00
  -10   18    1      1.21      0.00
   -8   18    1      1.29      0.00
   -6   18    1      0.37      0.00
   -4   18    1     -0.61      0.00
   -2   18    1     -1.12      0.00
    0   18    1     -1.20      0.00
    2   18    1     -0.71      0.00
    4   18    1      0.18      0.00
    6   18    1      0.66      0.00
    8   18    1      0.39      0.00
   10   18    1     -0.09      0.00
   12   18    1     -0.38      0.00
  -15   19    1     -0.24      0.00
  -13   19    1     -0.38      0.00
  -11   19    1     -1.14      0.00
   -9   19    1     -1.58      0.00
   -7   19    1     -1.01      0.00
   -5   19    1     -0.11      0.00
   -3   19    1      0.51      0.00
   -1   19    1      0.95      0.00
    1   19    1      1.00      0.00
    3   19    1      0.33      0.00
    5   19    1     -0.54      0.00
    7   19    1     -0.71      0.00
    9   19    1     -0.13      0.00
   11   19    1      0.52      0.00
   13   19    1      0.81      0.00
  -14   20    1      0.38      0.00
  -12   20    1      0.86      0.00
  -10   20    1      1.41      0.00
   -8   20    1      1.23      0.00
   -6   20    1      0.57      0.00
   -4   20    1      0.02      0.00
   -2   20    1     -0.56      0.00
    0   20    1     -1.09      0.00
    2   20    1     -0.86      0.00
    4   20    1      0.10      0.00
    6   20    1      0.75      0.00
    8   20    1      0.39      0.00
   10   20    1     -0.50      0.00
   12   20    1     -1.04      0.00
  -13   21    1     -0.59      0.00
  -11   21    1     -0.97      0.00
   -9   21    1     -1.02      0.00
   -7   21    1     -0.65      0.00
   -5   21    1     -0.34      0.00
   -3   21    1      0.14      0.00
   -1   21    1      0.98      0.00
    1   21    1      1.32      0.00
    3   21    1      0.51      0.00
    5   21    1     -0.56      0.00
    7   21    1     -0.64      0.00
    9   21    1      0.28      0.00
   11   21    1      1.16      0.00
  -12   22    1      0.55      0.00
  -10   22    1      0.56      0.00
   -8   22    1      0.41      0.00
   -6   22    1      0.40      0.00
   -4   22    1      0.25      0.00
   -2   22    1     -0.63      0.00
    0   22    1     -1.56      0.00
    2   22    1     -1.20      0.00
    4   22    1      0.15      0.00
    6   22    1      0.85      0.00
    8   22    1      0.16      0.00
   10   22    1     -1.01      0.00
  -11   23    1     -0.12      0.00
   -9   23    1      0.00      0.00
   -7   23    1     -0.20      0.00
   -5   23    1     -0.52      0.00
   -3   23    1      0.02      0.00
   -1   23    1      1.36      0.00
    1   23    1      1.77      0.00
    3   23    1      0.50      0.00
    5   23    1     -0.89      0.00
    7   23    1     -0.79      0.00
    9   23    1      0.47      0.00
  -10   24    1     -0.36      0.00
   -8   24    1     -0.13      0.00
   -6   24    1      0.57      0.00
   -4   24    1      0.67      0.00
   -2   24    1     -0.59      0.00
    0   24    1     -1.85      0.00
    2   24    1     -1.25      0.00
    4   24    1      0.56      0.00
    6   24    1      1.34      0.00
    8   24    1      0.41      0.00
   -9   25    1      0.43      0.00
   -7   25    1     -0.40      0.00
   -5   25    1     -1.14      0.00
   -3   25    1     -0.50      0.00
   -1   25    1      1.18      0.00
    1   25    1      1.68      0.00
    3   25    1      0.15      0.00
    5   25    1     -1.48      0.00
    7   25    1     -1.33      0.00
   -8   26    1      0.11      0.00
   -6   26    1      1.24      0.00
   -4   26    1      1.43      0.00
   -2   26    1      0.04      0.00
    0   26    1     -1.40      0.00
    2   26    1     -0.88      0.00
    4   26    1      1.00      0.00
    6   26    1      1.85      0.00
   -5   27    1     -1.83      0.00
   -3   27    1     -1.22      0.00
   -1   27    1      0.45      0.00
    1   27    1      1.13      0.00
    3   27    1     -0.13      0.00
   -2   28    1      0.65      0.00
    0   28    1     -0.73      0.00
  -20    0    2      0.37      0.00
  -18    0    2     -0.50      0.00
  -16    0    2     -1.28      0.00
  -14    0    2     -0.99      0.00
  -12    0    2     -1.34      0.00
  -10    0    2     -2.30      0.00
   -8    0    2     -2.73      0.00
   -6    0    2     -5.13      0.00
   -4    0    2     -9.61      0.00
   -2    0    2     -9.33      0.00
    0    0    2     -2.55      0.00
    2    0    2      2.54      0.00
    4    0    2      2.11      0.00
    6    0    2      0.78      0.00
    8    0    2      0.36      0.00
   10    0    2     -1.14      0.00
   12    0    2     -2.59      0.00
   14    0    2     -2.20      0.00
   16    0    2     -1.28      0.00
  -19    1    2     -0.04      0.00
  -17    1    2      1.03      0.00
  -15    1    2      1.19      0.00
  -13    1    2      1.03      0.00
  -11    1    2      1.91      0.00
   -9    1    2      2.50      0.00
   -7    1    2      3.34      0.00
   -5    1    2      6.99      0.00
   -3    1    2      9.66      0.00
   -1    1    2      5.49      0.00
    1    1    2     -1.32      0.00
    3    1    2     -3.13      0.00
    5    1    2     -1.45      0.00
    7    1    2     -0.69      0.00
    9    1    2      0.17      0.00
   11    1    2      1.98      0.00
   13    1    2      2.52      0.00
   15    1    2      1.63      0.00
  -20    2    2      0.27      0.00
  -18    2    2     -0.50      0.00
  -16    2    2     -1.22      0.00
  -14    2    2     -1.04      0.00
  -12    2    2     -1.50      0.00
  -10    2    2     -2.42      0.00
   -8    2    2     -2.54      0.00
   -6    2    2     -4.05      0.00
   -4    2    2     -7.12      0.00
   -2    2    2     -6.02      0.00
    0    2    2      0.22      0.00
    2    2    2      4.20      0.00
    4    2    2      3.01      0.00
    6    2    2      1.27      0.00
    8    2    2      0.60      0.00
   10    2    2     -0.94      0.00
   12    2    2     -2.31      0.00
   14    2    2     -1.95      0.00
   16    2    2     -1.11      0.00
  -19    3    2      0.02      0.00
  -17    3    2      0.86      0.00
  -15    3    2      1.07      0.00
  -13    3    2      1.21      0.00
  -11    3    2      2.20      0.00
   -9    3    2      2.54      0.00
   -7    3    2      2.41      0.00
   -5    3    2      3.87      0.00
   -3    3    2      4.29      0.00
   -1    3    2     -0.06      0.00
    1    3    2     -5.10      0.00
    3    3    2     -5.21      0.00
    5    3    2     -2.64      0.00
    7    3    2     -1.28      0.00
    9    3    2     -0.13      0.00
   11    3    2      1.57      0.00
   13    3    2      2.04      0.00
   15    3    2      1.29      0.00
  -20    4    2      0.18      0.00
  -18    4    2     -0.27      0.00
  -16    4    2     -0.77      0.00
  -14    4    2     -0.93      0.00
  -12    4    2     -1.80      0.00
  -10    4    2     -2.69      0.00
   -8    4    2     -2.19      0.00
   -6    4    2     -1.79      0.00
   -4    4    2     -1.85      0.00
   -2    4    2      0.83      0.00
    0    4    2      5.72      0.00
    2    4    2      7.38      0.00
    4    4    2      4.84      0.00
    6    4    2      2.32      0.00
    8    4    2      1.01      0.00
   10    4    2     -0.60      0.00
   12    4    2     -1.76      0.00
   14    4    2     -1.47      0.00
   16    4    2     -0.83      0.00
  -19    5    2     -0.24      0.00
  -17    5    2      0.12      0.00
  -15    5    2      0.42      0.00
  -13    5    2      1.19      0.00
  -11    5    2      2.51      0.00
   -9    5    2      2.59      0.00
   -7    5    2      1.32      0.00
   -5    5    2      0.24      0.00
   -3    5    2     -1.76      0.00
   -1    5    2     -5.87      0.00
    1    5    2     -8.70      0.00
    3    5    2     -7.25      0.00
    5    5    2     -4.00      0.00
    7    5    2     -1.89      0.00
    9    5    2     -0.32      0.00
   11    5    2      1.17      0.00
   13    5    2      1.53      0.00
   15    5    2      1.00      0.00
  -20    6    2      0.47      0.00
  -18    6    2      0.60      0.00
  -16    6    2      0.40      0.00
  -14    6    2     -0.29      0.00
  -12    6    2     -1.84      0.00
  -10    6    2     -2.78      0.00
   -8    6    2     -1.78      0.00
   -6    6    2      0.06      0.00
   -4    6    2      2.07      0.00
   -2    6    2      5.31      0.00
    0    6    2      8.59      0.00
    2    6    2      8.78      0.00
    4    6    2      6.00      0.00
    6    6    2      3.13      0.00
    8    6    2      1.16      0.00
   10    6    2     -0.47      0.00
   12    6    2     -1.35      0.00
   14    6    2     -1.18      0.00
   16    6    2     -0.75      0.00
  -19    7    2     -1.08      0.00
  -17    7    2     -1.30      0.00
  -15    7    2     -0.84      0.00
  -13    7    2      0.70      0.00
  -11    7    2      2.36      0.00
   -9    7    2      2.24      0.00
   -7    7    2      0.42      0.00
   -5    7    2     -1.67      0.00
   -3    7    2     -4.12      0.00
   -1    7    2     -7.04      0.00
    1    7    2     -8.56      0.00
    3    7    2     -7.34      0.00
    5    7    2     -4.65      0.00
    7    7    2     -2.17      0.00
    9    7    2     -0.27      0.00
   11    7    2      0.94      0.00
   13    7    2      1.22      0.00
   15    7    2      0.94      0.00
  -20    8    2      1.19      0.00
  -18    8    2      1.95      0.00
  -16    8    2      1.95      0.00
  -14    8    2      0.67      0.00
  -12    8    2     -1.35      0.00
  -10    8    2     -2.16      0.00
   -8    8    2     -0.93      0.00
   -6    8    2      1.03      0.00
   -4    8    2      2.79      0.00
   -2    8    2      4.71      0.00
    0    8    2      6.52      0.00
    2    8    2      7.03      0.00
    4    8    2      5.77      0.00
    6    8    2      3.44      0.00
    8    8    2      1.15      0.00
   10    8    2     -0.37      0.00
   12    8    2     -1.00      0.00
   14    8    2     -1.01      0.00
   16    8    2     -0.81      0.00
  -19    9    2     -2.16      0.00
  -17    9    2     -2.73      0.00
  -15    9    2     -1.95      0.00
  -13    9    2      0.05      0.00
  -11    9    2      1.54      0.00
   -9    9    2      1.05      0.00
   -7    9    2     -0.62      0.00
   -5    9    2     -1.90      0.00
   -3    9    2     -2.65      0.00
   -1    9    2     -3.60      0.00
    1    9    2     -4.88      0.00
    3    9    2     -5.54      0.00
    5    9    2     -4.53      0.00
    7    9    2     -2.30      0.00
    9    9    2     -0.39      0.00
   11    9    2      0.50      0.00
   13    9    2      0.78      0.00
   15    9    2      0.80      0.00
  -18   10    2      3.00      0.00
  -16   10    2      2.82      0.00
  -14   10    2      1.13      0.00
  -12   10    2     -0.68      0.00
  -10   10    2     -0.82      0.00
   -8   10    2      0.53      0.00
   -6   10    2      1.65      0.00
   -4   10    2      1.62      0.00
   -2   10    2      1.19      0.00
    0   10    2      1.80      0.00
    2   10    2      3.59      0.00
    4   10    2      4.61      0.00
    6   10    2      3.44      0.00
    8   10    2      1.39      0.00
   10   10    2      0.20      0.00
   12   10    2     -0.21      0.00
   14   10    2     -0.48      0.00
  -19   11    2     -2.75      0.00
  -17   11    2     -3.16      0.00
  -15   11    2     -1.91      0.00
  -13   11    2     -0.04      0.00
  -11   11    2      0.55      0.00
   -9   11    2     -0.54      0.00
   -7   11    2     -1.76      0.00
   -5   11    2     -1.62      0.00
   -3   11    2     -0.19      0.00
   -1   11    2      0.73      0.00
    1   11    2     -0.65      0.00
    3   11    2     -3.19      0.00
    5   11    2     -3.91      0.00
    7   11    2     -2.44      0.00
    9   11    2     -1.02      0.00
   11   11    2     -0.55      0.00
   13   11    2     -0.22      0.00
   15   11    2      0.18      0.00
  -18   12    2      3.01      0.00
  -16   12    2      2.25      0.00
  -14   12    2      0.42      0.00
  -12   12    2     -0.52      0.00
  -10   12    2      0.33      0.00
   -8   12    2      1.75      0.00
   -6   12    2      2.04      0.00
   -4   12    2      0.53      0.00
   -2   12    2     -1.65      0.00
    0   12    2     -1.87      0.00
    2   12    2      0.69      0.00
    4   12    2      3.16      0.00
    6   12    2      3.07      0.00
    8   12    2      1.79      0.00
   10   12    2      1.27      0.00
   12   12    2      1.11      0.00
   14   12    2      0.59      0.00
  -17   13    2     -2.29      0.00
  -15   13    2     -0.57      0.00
  -13   13    2      0.77      0.00
  -11   13    2      0.25      0.00
   -9   13    2     -1.29      0.00
   -7   13    2     -2.16      0.00
   -5   13    2     -1.33      0.00
   -3   13    2      1.05      0.00
   -1   13    2      2.86      0.00
    1   13    2      1.68      0.00
    3   13    2     -1.36      0.00
    5   13    2     -2.81      0.00
    7   13    2     -2.21      0.00
    9   13    2     -1.72      0.00
   11   13    2     -1.84      0.00
   13   13    2     -1.54      0.00
  -18   14    2      2.08      0.00
  -16   14    2      0.72      0.00
  -14   14    2     -1.05      0.00
  -12   14    2     -1.11      0.00
  -10   14    2      0.34      0.00
   -8   14    2      1.64      0.00
   -6   14    2      1.71      0.00
   -4   14    2      0.14      0.00
   -2   14    2     -2.25      0.00
    0   14    2     -2.83      0.00
    2   14    2     -0.60      0.00
    4   14    2      1.71      0.00
    6   14    2      2.02      0.00
    8   14    2      1.71      0.00
   10   14    2      2.08      0.00
   12   14    2      2.30      0.00
   14   14    2      1.65      0.00
  -17   15    2     -0.93      0.00
  -15   15    2      0.98      0.00
  -13   15    2      1.85      0.00
  -11   15    2      0.84      0.00
   -9   15    2     -0.58      0.00
   -7   15    2     -1.29      0.00
   -5   15    2     -0.87      0.00
   -3   15    2      0.89      0.00
   -1   15    2      2.49      0.00
    1   15    2      1.76      0.00
    3   15    2     -0.39      0.00
    5   15    2     -1.33      0.00
    7   15    2     -1.19      0.00
    9   15    2     -1.67      0.00
   11   15    2     -2.47      0.00
   13   15    2     -2.36      0.00
  -16   16    2     -0.49      0.00
  -14   16    2     -2.02      0.00
  -12   16    2     -1.83      0.00
  -10   16    2     -0.64      0.00
   -8   16    2      0.29      0.00
   -6   16    2      0.72      0.00
   -4   16    2      0.19      0.00
   -2   16    2     -1.28      0.00
    0   16    2     -1.74      0.00
    2   16    2     -0.45      0.00
    4   16    2      0.59      0.00
    6   16    2      0.46      0.00
    8   16    2      0.70      0.00
   10   16    2      1.84      0.00
   12   16    2      2.51      0.00
  -15   17    2      1.48      0.00
  -13   17    2      2.19      0.00
  -11   17    2      1.59      0.00
   -9   17    2      0.81      0.00
   -7   17    2      0.10      0.00
   -5   17    2     -0.42      0.00
   -3   17    2      0.08      0.00
   -1   17    2      0.92      0.00
    1   17    2      0.53      0.00
    3   17    2     -0.29      0.00
    5   17    2     -0.02      0.00
    7   17    2      0.35      0.00
    9   17    2     -0.57      0.00
   11   17    2     -1.87      0.00
   13   17    2     -2.10      0.00
  -16   18    2     -0.57      0.00
  -14   18    2     -1.76      0.00
  -12   18    2     -1.94      0.00
  -10   18    2     -1.59      0.00
   -8   18    2     -1.06      0.00
   -6   18    2     -0.09      0.00
   -4   18    2      0.49      0.00
   -2   18    2      0.08      0.00
    0   18    2     -0.06      0.00
    2   18    2      0.47      0.00
    4   18    2      0.19      0.00
    6   18    2     -0.85      0.00
    8   18    2     -0.79      0.00
   10   18    2      0.57      0.00
   12   18    2      1.60      0.00
  -15   19    2      0.83      0.00
  -13   19    2      1.60      0.00
  -11   19    2      1.80      0.00
   -9   19    2      1.70      0.00
   -7   19    2      0.90      0.00
   -5   19    2     -0.32      0.00
   -3   19    2     -0.72      0.00
   -1   19    2     -0.53      0.00
    1   19    2     -0.84      0.00
    3   19    2     -0.81      0.00
    5   19    2      0.49      0.00
    7   19    2      1.54      0.00
    9   19    2      0.90      0.00
   11   19    2     -0.49      0.00
  -14   20    2     -0.80      0.00
  -12   20    2     -1.47      0.00
  -10   20    2     -1.83      0.00
   -8   20    2     -1.54      0.00
   -6   20    2     -0.33      0.00
   -4   20    2      0.77      0.00
   -2   20    2      0.93      0.00
    0   20    2      1.07      0.00
    2   20    2      1.35      0.00
    4   20    2      0.47      0.00
    6   20    2     -1.27      0.00
    8   20    2     -1.84      0.00
   10   20    2     -0.84      0.00
  -13   21    2      0.81      0.00
  -11   21    2      1.52      0.00
   -9   21    2      1.76      0.00
   -7   21    2      1.04      0.00
   -5   21    2     -0.25      0.00
   -3   21    2     -0.93      0.00
   -1   21    2     -1.07      0.00
    1   21    2     -1.44      0.00
    3   21    2     -1.30      0.00
    5   21    2      0.23      0.00
    7   21    2      1.79      0.00
    9   21    2      1.79      0.00
  -12   22    2     -0.99      0.00
  -10   22    2     -1.57      0.00
   -8   22    2     -1.45      0.00
   -6   22    2     -0.54      0.00
   -4   22    2      0.43      0.00
   -2   22    2      0.80      0.00
    0   22    2      1.11      0.00
    2   22    2      1.46      0.00
    4   22    2      0.79      0.00
    6   22    2     -0.90      0.00
    8   22    2     -1.92      0.00
  -11   23    2      1.17      0.00
   -9   23    2      1.44      0.00
   -7   23    2      1.16      0.00
   -5   23    2      0.43      0.00
   -3   23    2     -0.20      0.00
   -1   23    2     -0.56      0.00
    1   23    2     -1.01      0.00
    3   23    2     -1.13      0.00
    5   23    2     -0.14      0.00
    7   23    2      1.26      0.00
  -10   24    2     -1.15      0.00
   -8   24    2     -1.30      0.00
   -6   24    2     -1.19      0.00
   -4   24    2     -0.70      0.00
   -2   24    2     -0.14      0.00
    0   24    2      0.34      0.00
    2   24    2      0.78      0.00
    4   24    2      0.64      0.00
    6   24    2     -0.35      0.00
   -9   25    2      1.02      0.00
   -7   25    2      1.40      0.00
   -5   25    2      1.53      0.00
   -3   25    2      1.00      0.00
   -1   25    2      0.31      0.00
    1   25    2     -0.18      0.00
    3   25    2     -0.47      0.00
    5   25    2     -0.21      0.00
   -8   26    2     -1.01      0.00
   -6   26    2     -1.76      0.00
   -4   26    2     -1.80      0.00
   -2   26    2     -0.97      0.00
    0   26    2     -0.27      0.00
    2   26    2      0.07      0.00
    4   26    2      0.21      0.00
   -5   27    2      2.07      0.00
   -3   27    2      1.62      0.00
   -1   27    2      0.58      0.00
    1   27    2      0.11      0.00
  -21    1    3     -0.25      0.00
  -19    1    3     -0.24      0.00
  -17    1    3     -0.07      0.00
  -15    1    3      0.36      0.00
  -13    1    3      0.83      0.00
  -11    1    3      1.22      0.00
   -9    1    3      1.74      0.00
   -7    1    3      1.92      0.00
   -5    1    3      0.92      0.00
   -3    1    3     -0.69      0.00
   -1    1    3     -1.45      0.00
    1    1    3     -0.96      0.00
    3    1    3      0.02      0.00
    5    1    3      0.64      0.00
    7    1    3      0.58      0.00
    9    1    3      0.17      0.00
   11    1    3     -0.04      0.00
   13    1    3     -0.05      0.00
   15    1    3     -0.08      0.00
  -20    2    3      0.50      0.00
  -18    2    3      0.42      0.00
  -16    2    3     -0.15      0.00
  -14    2    3     -1.12      0.00
  -12    2    3     -1.88      0.00
  -10    2    3     -2.68      0.00
   -8    2    3     -3.52      0.00
   -6    2    3     -2.83      0.00
   -4    2    3     -0.12      0.00
   -2    2    3      2.31      0.00
    0    2    3      2.44      0.00
    2    2    3      0.83      0.00
    4    2    3     -0.82      0.00
    6    2    3     -1.32      0.00
    8    2    3     -0.71      0.00
   10    2    3     -0.02      0.00
   12    2    3      0.14      0.00
   14    2    3      0.15      0.00
  -21    3    3     -0.67      0.00
  -19    3    3     -0.77      0.00
  -17    3    3     -0.44      0.00
  -15    3    3      0.74      0.00
  -13    3    3      2.00      0.00
  -11    3    3      2.90      0.00
   -9    3    3      4.04      0.00
   -7    3    3      4.37      0.00
   -5    3    3      1.97      0.00
   -3    3    3     -1.80      0.00
   -1    3    3     -3.49      0.00
    1    3    3     -2.20      0.00
    3    3    3      0.25      0.00
    5    3    3      1.76      0.00
    7    3    3      1.50      0.00
    9    3    3      0.36      0.00
   11    3    3     -0.23      0.00
   13    3    3     -0.28      0.00
   15    3    3     -0.36      0.00
  -20    4    3      0.92      0.00
  -18    4    3      1.00      0.00
  -16    4    3      0.13      0.00
  -14    4    3     -1.53      0.00
  -12    4    3     -2.72      0.00
  -10    4    3     -3.69      0.00
   -8    4    3     -4.67      0.00
   -6    4    3     -3.60      0.00
   -4    4    3      0.16      0.00
   -2    4    3      3.37      0.00
    0    4    3      3.32      0.00
    2    4    3      0.85      0.00
    4    4    3     -1.59      0.00
    6    4    3     -2.19      0.00
    8    4    3     -1.00      0.00
   10    4    3      0.20      0.00
   12    4    3      0.48      0.00
   14    4    3      0.52      0.00
  -21    5    3     -0.82      0.00
  -19    5    3     -1.17      0.00
  -17    5    3     -0.96      0.00
  -15    5    3      0.56      0.00
  -13    5    3      2.22      0.00
  -11    5    3      3.06      0.00
   -9    5    3      3.91      0.00
   -7    5    3      4.04      0.00
   -5    5    3      1.55      0.00
   -3    5    3     -2.10      0.00
   -1    5    3     -3.49      0.00
    1    5    3     -1.85      0.00
    3    5    3      0.88      0.00
    5    5    3      2.43      0.00
    7    5    3      1.75      0.00
    9    5    3      0.10      0.00
   11    5    3     -0.69      0.00
   13    5    3     -0.75      0.00
   15    5    3     -0.81      0.00
  -20    6    3      0.92      0.00
  -18    6    3      1.28      0.00
  -16    6    3      0.46      0.00
  -14    6    3     -1.37      0.00
  -12    6    3     -2.46      0.00
  -10    6    3     -2.87      0.00
   -8    6    3     -3.29      0.00
   -6    6    3     -2.32      0.00
   -4    6    3      0.52      0.00
   -2    6    3      2.65      0.00
    0    6    3      2.16      0.00
    2    6    3     -0.13      0.00
    4    6    3     -2.17      0.00
    6    6    3     -2.28      0.00
    8    6    3     -0.62      0.00
   10    6    3      0.77      0.00
   12    6    3      1.05      0.00
   14    6    3      1.07      0.00
  -19    7    3     -0.96      0.00
  -17    7    3     -0.98      0.00
  -15    7    3      0.42      0.00
  -13    7    3      1.83      0.00
  -11    7    3      2.09      0.00
   -9    7    3      2.11      0.00
   -7    7    3      1.94      0.00
   -5    7    3      0.47      0.00
   -3    7    3     -1.39      0.00
   -1    7    3     -1.68      0.00
    1    7    3     -0.21      0.00
    3    7    3      1.73      0.00
    5    7    3      2.44      0.00
    7    7    3      1.17      0.00
    9    7    3     -0.63      0.00
   11    7    3     -1.34      0.00
   13    7    3     -1.34      0.00
  -20    8    3      0.29      0.00
  -18    8    3      0.77      0.00
  -16    8    3      0.22      0.00
  -14    8    3     -1.13      0.00
  -12    8    3     -1.58      0.00
  -10    8    3     -1.18      0.00
   -8    8    3     -0.97      0.00
   -6    8    3     -0.50      0.00
   -4    8    3      0.48      0.00
   -2    8    3      0.86      0.00
    0    8    3      0.03      0.00
    2    8    3     -1.45      0.00
    4    8    3     -2.37      0.00
    6    8    3     -1.59      0.00
    8    8    3      0.32      0.00
   10    8    3      1.50      0.00
   12    8    3      1.62      0.00
   14    8    3      1.52      0.00
  -19    9    3     -0.09      0.00
  -17    9    3     -0.24      0.00
  -15    9    3      0.55      0.00
  -13    9    3      1.12      0.00
  -11    9    3      0.63      0.00
   -9    9    3      0.05      0.00
   -7    9    3     -0.12      0.00
   -5    9    3     -0.29      0.00
   -3    9    3     -0.26      0.00
   -1    9    3      0.35      0.00
    1    9    3      1.38      0.00
    3    9    3      2.24      0.00
    5    9    3      1.88      0.00
    7    9    3      0.11      0.00
    9    9    3     -1.47      0.00
   11    9    3     -1.84      0.00
   13    9    3     -1.71      0.00
  -20   10    3     -0.55      0.00
  -18   10    3     -0.23      0.00
  -16   10    3     -0.33      0.00
  -14   10    3     -0.68      0.00
  -12   10    3     -0.25      0.00
  -10   10    3      0.58      0.00
   -8   10    3      0.89      0.00
   -6   10    3      0.69      0.00
   -4   10    3      0.19      0.00
   -2   10    3     -0.53      0.00
    0   10    3     -1.31      0.00
    2   10    3     -2.04      0.00
    4   10    3     -2.04      0.00
    6   10    3     -0.61      0.00
    8   10    3      1.23      0.00
   10   10    3      1.94      0.00
   12   10    3      1.83      0.00
   14   10    3      1.59      0.00
  -19   11    3      0.76      0.00
  -17   11    3      0.50      0.00
  -15   11    3      0.38      0.00
  -13   11    3     -0.11      0.00
  -11   11    3     -1.02      0.00
   -9   11    3     -1.53      0.00
   -7   11    3     -1.32      0.00
   -5   11    3     -0.58      0.00
   -3   11    3      0.35      0.00
   -1   11    3      1.05      0.00
    1   11    3      1.62      0.00
    3   11    3      1.94      0.00
    5   11    3      1.11      0.00
    7   11    3     -0.71      0.00
    9   11    3     -1.84      0.00
   11   11    3     -1.86      0.00
   13   11    3     -1.64      0.00
  -18   12    3     -0.80      0.00
  -16   12    3     -0.33      0.00
  -14   12    3      0.41      0.00
  -12   12    3      1.39      0.00
  -10   12    3      2.03      0.00
   -8   12    3      1.92      0.00
   -6   12    3      1.16      0.00
   -4   12    3      0.11      0.00
   -2   12    3     -0.61      0.00
    0   12    3     -0.96      0.00
    2   12    3     -1.40      0.00
    4   12    3     -1.34      0.00
    6   12    3      0.00      0.00
    8   12    3      1.43      0.00
   10   12    3      1.74      0.00
   12   12    3      1.56      0.00
  -19   13    3      0.89      0.00
  -17   13    3      0.45      0.00
  -15   13    3     -0.53      0.00
  -13   13    3     -1.68      0.00
  -11   13    3     -2.41      0.00
   -9   13    3     -2.39      0.00
   -7   13    3     -1.70      0.00
   -5   13    3     -0.63      0.00
   -3   13    3      0.16      0.00
   -1   13    3      0.28      0.00
    1   13    3      0.49      0.00
    3   13    3      1.00      0.00
    5   13    3      0.59      0.00
    7   13    3     -0.71      0.00
    9   13    3     -1.41      0.00
   11   13    3     -1.35      0.00
   13   13    3     -1.20      0.00
  -18   14    3     -0.52      0.00
  -16   14    3      0.45      0.00
  -14   14    3      1.77      0.00
  -12   14    3      2.63      0.00
  -10   14    3      2.67      0.00
   -8   14    3      2.07      0.00
   -6   14    3      1.07      0.00
   -4   14    3      0.19      0.00
   -2   14    3      0.13      0.00
    0   14    3      0.38      0.00
    2   14    3     -0.13      0.00
    4   14    3     -0.66      0.00
    6   14    3     -0.06      0.00
    8   14    3      0.80      0.00
   10   14    3      1.00      0.00
   12   14    3      0.99      0.00
  -17   15    3     -0.25      0.00
  -15   15    3     -1.59      0.00
  -13   15    3     -2.62      0.00
  -11   15    3     -2.73      0.00
   -9   15    3     -2.18      0.00
   -7   15    3     -1.29      0.00
   -5   15    3     -0.38      0.00
   -3   15    3     -0.20      0.00
   -1   15    3     -0.80      0.00
    1   15    3     -0.83      0.00
    3   15    3      0.09      0.00
    5   15    3      0.47      0.00
    7   15    3     -0.08      0.00
    9   15    3     -0.50      0.00
   11   15    3     -0.64      0.00
  -16   16    3      1.20      0.00
  -14   16    3      2.33      0.00
  -12   16    3      2.57      0.00
  -10   16    3      2.05      0.00
   -8   16    3      1.24      0.00
   -6   16    3      0.39      0.00
   -4   16    3      0.04      0.00
   -2   16    3      0.70      0.00
    0   16    3      1.35      0.00
    2   16    3      0.74      0.00
    4   16    3     -0.29      0.00
    6   16    3     -0.43      0.00
    8   16    3     -0.05      0.00
   10   16    3      0.21      0.00
   12   16    3      0.48      0.00
  -17   17    3     -0.72      0.00
  -15   17    3     -1.79      0.00
  -13   17    3     -2.18      0.00
  -11   17    3     -1.75      0.00
   -9   17    3     -0.99      0.00
   -7   17    3     -0.20      0.00
   -5   17    3      0.24      0.00
   -3   17    3     -0.29      0.00
   -1   17    3     -1.30      0.00
    1   17    3     -1.32      0.00
    3   17    3     -0.26      0.00
    5   17    3      0.48      0.00
    7   17    3      0.43      0.00
    9   17    3      0.18      0.00
   11   17    3     -0.13      0.00
  -16   18    3      1.12      0.00
  -14   18    3      1.62      0.00
  -12   18    3      1.35      0.00
  -10   18    3      0.69      0.00
   -8   18    3     -0.07      0.00
   -6   18    3     -0.60      0.00
   -4   18    3     -0.22      0.00
   -2   18    3      0.94      0.00
    0   18    3      1.48      0.00
    2   18    3      0.75      0.00
    4   18    3     -0.21      0.00
    6   18    3     -0.49      0.00
    8   18    3     -0.37      0.00
   10   18    3     -0.17      0.00
  -15   19    3     -0.98      0.00
  -13   19    3     -0.90      0.00
  -11   19    3     -0.44      0.00
   -9   19    3      0.20      0.00
   -7   19    3      0.90      0.00
   -5   19    3      0.76      0.00
   -3   19    3     -0.48      0.00
   -1   19    3     -1.44      0.00
    1   19    3     -1.03      0.00
    3   19    3     -0.07      0.00
    5   19    3      0.33      0.00
    7   19    3      0.30      0.00
    9   19    3      0.24      0.00
  -14   20    3      0.44      0.00
  -12   20    3      0.24      0.00
  -10   20    3     -0.12      0.00
   -8   20    3     -0.87      0.00
   -6   20    3     -1.20      0.00
   -4   20    3     -0.07      0.00
   -2   20    3      1.38      0.00
    0   20    3      1.32      0.00
    2   20    3      0.25      0.00
    4   20    3     -0.25      0.00
    6   20    3     -0.11      0.00
    8   20    3     -0.06      0.00
  -13   21    3     -0.02      0.00
  -11   21    3     -0.06      0.00
   -9   21    3      0.44      0.00
   -7   21    3      1.26      0.00
   -5   21    3      0.71      0.00
   -3   21    3     -1.13      0.00
   -1   21    3     -1.76      0.00
    1   21    3     -0.59      0.00
    3   21    3      0.32      0.00
    5   21    3      0.11      0.00
    7   21    3     -0.20      0.00
  -12   22    3      0.13      0.00
  -10   22    3      0.18      0.00
   -8   22    3     -0.74      0.00
   -6   22    3     -1.14      0.00
   -4   22    3      0.47      0.00
   -2   22    3      2.05      0.00
    0   22    3      1.31      0.00
    2   22    3     -0.24      0.00
    4   22    3     -0.41      0.00
    6   22    3      0.23      0.00
  -11   23    3     -0.58      0.00
   -9   23    3     -0.12      0.00
   -7   23    3      1.00      0.00
   -5   23    3      0.40      0.00
   -3   23    3     -1.69      0.00
   -1   23    3     -2.09      0.00
    1   23    3     -0.36      0.00
    3   23    3      0.68      0.00
    5   23    3      0.13      0.00
  -10   24    3      0.82      0.00
   -8   24    3     -0.29      0.00
   -6   24    3     -0.94      0.00
   -4   24    3      0.64      0.00
   -2   24    3      2.22      0.00
    0   24    3      1.28      0.00
    2   24    3     -0.49      0.00
    4   24    3     -0.65      0.00
   -9   25    3     -0.48      0.00
   -7   25    3      0.80      0.00
   -5   25    3      0.50      0.00
   -3   25    3     -1.38      0.00
   -1   25    3     -1.83      0.00
    1   25    3     -0.23      0.00
    3   25    3      0.84      0.00
   -8   26    3     -0.24      0.00
   -6   26    3     -1.04      0.00
   -4   26    3      0.04      0.00
   -2   26    3      1.45      0.00
    0   26    3      0.94      0.00
    2   26    3     -0.48      0.00
   -3   27    3     -0.34      0.00
  -20    0    4     -1.17      0.00
  -18    0    4      1.69      0.00
  -16    0    4      2.97      0.00
  -14    0    4      2.13      0.00
  -12    0    4      0.94      0.00
  -10    0    4      0.16      0.00
   -8    0    4     -0.09      0.00
   -6    0    4      0.66      0.00
   -4    0    4      2.77      0.00
   -2    0    4      5.90      0.00
    0    0    4      7.71      0.00
    2    0    4      5.62      0.00
    4    0    4      1.40      0.00
    6    0    4     -0.71      0.00
    8    0    4     -0.56      0.00
   10    0    4     -0.85      0.00
   12    0    4     -1.60      0.00
  -21    1    4      2.06      0.00
  -19    1    4     -0.27      0.00
  -17    1    4     -2.60      0.00
  -15    1    4     -2.65      0.00
  -13    1    4     -1.47      0.00
  -11    1    4     -0.49      0.00
   -9    1    4      0.05      0.00
   -7    1    4     -0.09      0.00
   -5    1    4     -1.35      0.00
   -3    1    4     -3.94      0.00
   -1    1    4     -6.73      0.00
    1    1    4     -6.78      0.00
    3    1    4     -3.25      0.00
    5    1    4      0.15      0.00
    7    1    4      0.77      0.00
    9    1    4      0.59      0.00
   11    1    4      1.27      0.00
   13    1    4      1.60      0.00
  -20    2    4     -1.03      0.00
  -18    2    4      1.55      0.00
  -16    2    4      2.71      0.00
  -14    2    4      1.97      0.00
  -12    2    4      0.91      0.00
  -10    2    4      0.19      0.00
   -8    2    4     -0.11      0.00
   -6    2    4      0.27      0.00
   -4    2    4      1.74      0.00
   -2    2    4      4.30      0.00
    0    2    4      6.01      0.00
    2    2    4      4.39      0.00
    4    2    4      0.84      0.00
    6    2    4     -0.90      0.00
    8    2    4     -0.70      0.00
   10    2    4     -0.88      0.00
   12    2    4     -1.45      0.00
  -21    3    4      1.66      0.00
  -19    3    4     -0.22      0.00
  -17    3    4     -2.12      0.00
  -15    3    4     -2.21      0.00
  -13    3    4     -1.31      0.00
  -11    3    4     -0.54      0.00
   -9    3    4     -0.04      0.00
   -7    3    4      0.16      0.00
   -5    3    4     -0.17      0.00
   -3    3    4     -1.56      0.00
   -1    3    4     -3.61      0.00
    1    3    4     -3.96      0.00
    3    3    4     -1.62      0.00
    5    3    4      0.72      0.00
    7    3    4      1.01      0.00
    9    3    4      0.74      0.00
   11    3    4      1.09      0.00
   13    3    4      1.18      0.00
  -20    4    4     -0.83      0.00
  -18    4    4      1.02      0.00
  -16    4    4      1.92      0.00
  -14    4    4      1.54      0.00
  -12    4    4      0.88      0.00
  -10    4    4      0.36      0.00
   -8    4    4     -0.05      0.00
   -6    4    4     -0.41      0.00
   -4    4    4     -0.36      0.00
   -2    4    4      0.75      0.00
    0    4    4      1.98      0.00
    2    4    4      1.38      0.00
    4    4    4     -0.47      0.00
    6    4    4     -1.24      0.00
    8    4    4     -0.87      0.00
   10    4    4     -0.77      0.00
   12    4    4     -0.87      0.00
  -21    5    4      1.20      0.00
  -19    5    4      0.14      0.00
  -17    5    4     -1.08      0.00
  -15    5    4     -1.35      0.00
  -13    5    4     -1.08      0.00
  -11    5    4     -0.70      0.00
   -9    5    4     -0.29      0.00
   -7    5    4      0.25      0.00
   -5    5    4      0.97      0.00
   -3    5    4      1.22      0.00
   -1    5    4      0.53      0.00
    1    5    4      0.08      0.00
    3    5    4      0.74      0.00
    5    5    4      1.37      0.00
    7    5    4      1.08      0.00
    9    5    4      0.65      0.00
   11    5    4      0.49      0.00
   13    5    4      0.29      0.00
  -20    6    4     -0.87      0.00
  -18    6    4      0.02      0.00
  -16    6    4      0.67      0.00
  -14    6    4      0.93      0.00
  -12    6    4      0.91      0.00
  -10    6    4      0.63      0.00
   -8    6    4      0.17      0.00
   -6    6    4     -0.64      0.00
   -4    6    4     -1.71      0.00
   -2    6    4     -2.23      0.00
    0    6    4     -2.01      0.00
    2    6    4     -1.81      0.00
    4    6    4     -1.71      0.00
    6    6    4     -1.25      0.00
    8    6    4     -0.66      0.00
   10    6    4     -0.22      0.00
   12    6    4      0.15      0.00
  -21    7    4      0.99      0.00
  -19    7    4      0.82      0.00
  -17    7    4      0.26      0.00
  -15    7    4     -0.33      0.00
  -13    7    4     -0.82      0.00
  -11    7    4     -0.85      0.00
   -9    7    4     -0.51      0.00
   -7    7    4      0.06      0.00
   -5    7    4      1.12      0.00
   -3    7    4      2.44      0.00
   -1    7    4      3.23      0.00
    1    7    4      3.21      0.00
    3    7    4      2.52      0.00
    5    7    4      1.50      0.00
    7    7    4      0.68      0.00
    9    7    4      0.13      0.00
   11    7    4     -0.47      0.00
   13    7    4     -0.81      0.00
  -20    8    4     -1.15      0.00
  -18    8    4     -1.02      0.00
  -16    8    4     -0.47      0.00
  -14    8    4      0.35      0.00
  -12    8    4      0.84      0.00
  -10    8    4      0.70      0.00
   -8    8    4      0.30      0.00
   -6    8    4     -0.31      0.00
   -4    8    4     -1.52      0.00
   -2    8    4     -3.06      0.00
    0    8    4     -3.99      0.00
    2    8    4     -3.52      0.00
    4    8    4     -1.99      0.00
    6    8    4     -0.69      0.00
    8    8    4     -0.09      0.00
   10    8    4      0.53      0.00
   12    8    4      1.18      0.00
  -19    9    4      1.33      0.00
  -17    9    4      1.07      0.00
  -15    9    4      0.27      0.00
  -13    9    4     -0.57      0.00
  -11    9    4     -0.75      0.00
   -9    9    4     -0.43      0.00
   -7    9    4     -0.14      0.00
   -5    9    4      0.41      0.00
   -3    9    4      1.78      0.00
   -1    9    4      3.51      0.00
    1    9    4      4.01      0.00
    3    9    4      2.61      0.00
    5    9    4      0.77      0.00
    7    9    4     -0.02      0.00
    9    9    4     -0.41      0.00
   11    9    4     -1.19      0.00
  -20   10    4     -1.20      0.00
  -18   10    4     -1.21      0.00
  -16   10    4     -0.65      0.00
  -14   10    4      0.21      0.00
  -12   10    4      0.70      0.00
  -10   10    4      0.52      0.00
   -8   10    4      0.24      0.00
   -6   10    4      0.20      0.00
   -4   10    4     -0.33      0.00
   -2   10    4     -1.97      0.00
    0   10    4     -3.46      0.00
    2   10    4     -2.90      0.00
    4   10    4     -0.89      0.00
    6   10    4      0.27      0.00
    8   10    4      0.34      0.00
   10   10    4      0.83      0.00
   12   10    4      1.51      0.00
  -19   11    4      0.97      0.00
  -17   11    4      0.57      0.00
  -15   11    4     -0.08      0.00
  -13   11    4     -0.62      0.00
  -11   11    4     -0.67      0.00
   -9   11    4     -0.34      0.00
   -7   11    4     -0.31      0.00
   -5   11    4     -0.54      0.00
   -3   11    4      0.21      0.00
   -1   11    4      1.94      0.00
    1   11    4      2.46      0.00
    3   11    4      0.83      0.00
    5   11    4     -0.69      0.00
    7   11    4     -0.58      0.00
    9   11    4     -0.37      0.00
   11   11    4     -1.04      0.00
  -18   12    4     -0.14      0.00
  -16   12    4      0.40      0.00
  -14   12    4      0.72      0.00
  -12   12    4      0.88      0.00
  -10   12    4      0.68      0.00
   -8   12    4      0.41      0.00
   -6   12    4      0.72      0.00
   -4   12    4      0.96      0.00
   -2   12    4     -0.12      0.00
    0   12    4     -1.30      0.00
    2   12    4     -0.43      0.00
    4   12    4      1.31      0.00
    6   12    4      1.29      0.00
    8   12    4      0.24      0.00
   10   12    4      0.29      0.00
  -19   13    4     -0.27      0.00
  -17   13    4     -1.01      0.00
  -15   13    4     -1.16      0.00
  -13   13    4     -1.12      0.00
  -11   13    4     -1.17      0.00
   -9   13    4     -0.86      0.00
   -7   13    4     -0.73      0.00
   -5   13    4     -1.30      0.00
   -3   13    4     -1.25      0.00
   -1   13    4     -0.14      0.00
    1   13    4     -0.23      0.00
    3   13    4     -1.97      0.00
    5   13    4     -2.43      0.00
    7   13    4     -0.79      0.00
    9   13    4      0.29      0.00
   11   13    4     -0.13      0.00
  -18   14    4      1.49      0.00
  -16   14    4      1.81      0.00
  -14   14    4      1.45      0.00
  -12   14    4      1.54      0.00
  -10   14    4      1.60      0.00
   -8   14    4      1.09      0.00
   -6   14    4      1.17      0.00
   -4   14    4      1.76      0.00
   -2   14    4      1.33      0.00
    0   14    4      0.91      0.00
    2   14    4      2.37      0.00
    4   14    4      3.63      0.00
    6   14    4      2.11      0.00
    8   14    4     -0.21      0.00
   10   14    4     -0.63      0.00
  -17   15    4     -2.31      0.00
  -15   15    4     -1.84      0.00
  -13   15    4     -1.63      0.00
  -11   15    4     -2.17      0.00
   -9   15    4     -1.89      0.00
   -7   15    4     -1.17      0.00
   -5   15    4     -1.54      0.00
   -3   15    4     -1.89      0.00
   -1   15    4     -1.43      0.00
    1   15    4     -2.28      0.00
    3   15    4     -4.24      0.00
    5   15    4     -3.78      0.00
    7   15    4     -0.83      0.00
    9   15    4      0.95      0.00
  -18   16    4      2.32      0.00
  -16   16    4      2.14      0.00
  -14   16    4      1.46      0.00
  -12   16    4      2.12      0.00
  -10   16    4      2.68      0.00
   -8   16    4      1.65      0.00
   -6   16    4      1.06      0.00
   -4   16    4      1.67      0.00
   -2   16    4      1.67      0.00
    0   16    4      1.82      0.00
    2   16    4      3.83      0.00
    4   16    4      4.94      0.00
    6   16    4      2.57      0.00
    8   16    4     -0.43      0.00
   10   16    4     -1.10      0.00
  -17   17    4     -2.14      0.00
  -15   17    4     -1.19      0.00
  -13   17    4     -1.39      0.00
  -11   17    4     -2.77      0.00
   -9   17    4     -2.42      0.00
   -7   17    4     -0.86      0.00
   -5   17    4     -0.84      0.00
   -3   17    4     -1.43      0.00
   -1   17    4     -1.31      0.00
    1   17    4     -2.56      0.00
    3   17    4     -4.80      0.00
    5   17    4     -4.19      0.00
    7   17    4     -0.93      0.00
    9   17    4      0.97      0.00
  -16   18    4      0.95      0.00
  -14   18    4      0.37      0.00
  -12   18    4      1.88      0.00
  -10   18    4      2.83      0.00
   -8   18    4      1.20      0.00
   -6   18    4     -0.07      0.00
   -4   18    4      0.56      0.00
   -2   18    4      0.83      0.00
    0   18    4      1.15      0.00
    2   18    4      3.33      0.00
    4   18    4      4.68      0.00
    6   18    4      2.57      0.00
    8   18    4     -0.18      0.00
  -15   19    4      0.39      0.00
  -13   19    4     -0.36      0.00
  -11   19    4     -2.30      0.00
   -9   19    4     -1.75      0.00
   -7   19    4      0.44      0.00
   -5   19    4      0.70      0.00
   -3   19    4     -0.11      0.00
   -1   19    4     -0.16      0.00
    1   19    4     -1.35      0.00
    3   19    4     -3.66      0.00
    5   19    4     -3.54      0.00
    7   19    4     -1.03      0.00
  -14   20    4     -0.95      0.00
  -12   20    4      0.91      0.00
  -10   20    4      1.86      0.00
   -8   20    4     -0.08      0.00
   -6   20    4     -1.64      0.00
   -4   20    4     -0.98      0.00
   -2   20    4     -0.47      0.00
    0   20    4     -0.18      0.00
    2   20    4      1.71      0.00
    4   20    4      3.24      0.00
    6   20    4      2.03      0.00
  -13   21    4      0.59      0.00
  -11   21    4     -1.17      0.00
   -9   21    4     -0.51      0.00
   -7   21    4      1.68      0.00
   -5   21    4      2.02      0.00
   -3   21    4      1.13      0.00
   -1   21    4      0.92      0.00
    1   21    4      0.05      0.00
    3   21    4     -1.87      0.00
    5   21    4     -2.24      0.00
  -12   22    4      0.04      0.00
  -10   22    4      0.68      0.00
   -8   22    4     -0.95      0.00
   -6   22    4     -2.32      0.00
   -4   22    4     -1.82      0.00
   -2   22    4     -1.23      0.00
    0   22    4     -0.96      0.00
    2   22    4      0.32      0.00
    4   22    4      1.56      0.00
  -11   23    4     -0.25      0.00
   -9   23    4      0.19      0.00
   -7   23    4      1.68      0.00
   -5   23    4      2.07      0.00
   -3   23    4      1.45      0.00
   -1   23    4      1.14      0.00
    1   23    4      0.61      0.00
    3   23    4     -0.53      0.00
  -10   24    4      0.02      0.00
   -8   24    4     -0.70      0.00
   -6   24    4     -1.53      0.00
   -4   24    4     -1.47      0.00
   -2   24    4     -1.08      0.00
    0   24    4     -0.81      0.00
    2   24    4     -0.21      0.00
   -9   25    4      0.18      0.00
   -7   25    4      0.58      0.00
   -5   25    4      0.98      0.00
   -3   25    4      0.93      0.00
   -1   25    4      0.69      0.00
    1   25    4      0.41      0.00
   -6   26    4     -0.15      0.00
   -4   26    4     -0.54      0.00
   -2   26    4     -0.55      0.00
  -21    1    5     -0.37      0.00
  -19    1    5     -0.25      0.00
  -17    1    5      0.00      0.00
  -15    1    5      0.05      0.00
  -13    1    5     -0.18      0.00
  -11    1    5     -0.64      0.00
   -9    1    5     -1.07      0.00
   -7    1    5     -1.20      0.00
   -5    1    5     -0.98      0.00
   -3    1    5     -0.58      0.00
   -1    1    5     -0.24      0.00
    1    1    5     -0.10      0.00
    3    1    5     -0.09      0.00
    5    1    5      0.00      0.00
    7    1    5      0.12      0.00
    9    1    5      0.10      0.00
   11    1    5      0.05      0.00
  -20    2    5      0.62      0.00
  -18    2    5      0.19      0.00
  -16    2    5     -0.14      0.00
  -14    2    5      0.03      0.00
  -12    2    5      0.68      0.00
  -10    2    5      1.54      0.00
   -8    2    5      2.09      0.00
   -6    2    5      2.04      0.00
   -4    2    5      1.48      0.00
   -2    2    5      0.75      0.00
    0    2    5      0.28      0.00
    2    2    5      0.19      0.00
    4    2    5      0.11      0.00
    6    2    5     -0.12      0.00
    8    2    5     -0.18      0.00
   10    2    5     -0.06      0.00
   12    2    5     -0.04      0.00
  -21    3    5     -0.89      0.00
  -19    3    5     -0.53      0.00
  -17    3    5      0.08      0.00
  -15    3    5      0.20      0.00
  -13    3    5     -0.34      0.00
  -11    3    5     -1.32      0.00
   -9    3    5     -2.26      0.00
   -7    3    5     -2.66      0.00
   -5    3    5     -2.36      0.00
   -3    3    5     -1.54      0.00
   -1    3    5     -0.67      0.00
    1    3    5     -0.28      0.00
    3    3    5     -0.22      0.00
    5    3    5     -0.01      0.00
    7    3    5      0.15      0.00
    9    3    5      0.00      0.00
   11    3    5     -0.09      0.00
  -20    4    5      0.88      0.00
  -18    4    5      0.20      0.00
  -16    4    5     -0.27      0.00
  -14    4    5     -0.05      0.00
  -12    4    5      0.74      0.00
  -10    4    5      1.73      0.00
   -8    4    5      2.49      0.00
   -6    4    5      2.73      0.00
   -4    4    5      2.30      0.00
   -2    4    5      1.35      0.00
    0    4    5      0.53      0.00
    2    4    5      0.27      0.00
    4    4    5      0.14      0.00
    6    4    5     -0.04      0.00
    8    4    5      0.12      0.00
   10    4    5      0.37      0.00
  -21    5    5     -1.03      0.00
  -19    5    5     -0.61      0.00
  -17    5    5      0.05      0.00
  -15    5    5      0.19      0.00
  -13    5    5     -0.23      0.00
  -11    5    5     -0.93      0.00
   -9    5    5     -1.68      0.00
   -7    5    5     -2.31      0.00
   -5    5    5     -2.58      0.00
   -3    5    5     -2.07      0.00
   -1    5    5     -1.06      0.00
    1    5    5     -0.40      0.00
    3    5    5     -0.19      0.00
    5    5    5     -0.04      0.00
    7    5    5     -0.22      0.00
    9    5    5     -0.69      0.00
   11    5    5     -0.68      0.00
  -20    6    5      0.96      0.00
  -18    6    5      0.42      0.00
  -16    6    5      0.04      0.00
  -14    6    5      0.07      0.00
  -12    6    5      0.35      0.00
  -10    6    5      0.72      0.00
   -8    6    5      1.30      0.00
   -6    6    5      2.09      0.00
   -4    6    5      2.41      0.00
   -2    6    5      1.73      0.00
    0    6    5      0.78      0.00
    2    6    5      0.27      0.00
    4    6    5      0.03      0.00
    6    6    5      0.16      0.00
    8    6    5      0.86      0.00
   10    6    5      1.25      0.00
  -21    7    5     -1.05      0.00
  -19    7    5     -0.93      0.00
  -17    7    5     -0.58      0.00
  -15    7    5     -0.34      0.00
  -13    7    5     -0.21      0.00
  -11    7    5     -0.11      0.00
   -9    7    5     -0.24      0.00
   -7    7    5     -1.02      0.00
   -5    7    5     -2.05      0.00
   -3    7    5     -2.17      0.00
   -1    7    5     -1.34      0.00
    1    7    5     -0.55      0.00
    3    7    5     -0.06      0.00
    5    7    5      0.06      0.00
    7    7    5     -0.68      0.00
    9    7    5     -1.64      0.00
   11    7    5     -1.46      0.00
  -20    8    5      1.21      0.00
  -18    8    5      1.20      0.00
  -16    8    5      0.93      0.00
  -14    8    5      0.50      0.00
  -12    8    5      0.01      0.00
  -10    8    5     -0.38      0.00
   -8    8    5     -0.10      0.00
   -6    8    5      1.09      0.00
   -4    8    5      2.04      0.00
   -2    8    5      1.78      0.00
    0    8    5      0.99      0.00
    2    8    5      0.31      0.00
    4    8    5     -0.20      0.00
    6    8    5      0.19      0.00
    8    8    5      1.52      0.00
   10    8    5      2.10      0.00
  -19    9    5     -1.58      0.00
  -17    9    5     -1.61      0.00
  -15    9    5     -1.05      0.00
  -13    9    5     -0.26      0.00
  -11    9    5      0.48      0.00
   -9    9    5      0.78      0.00
   -7    9    5      0.02      0.00
   -5    9    5     -1.32      0.00
   -3    9    5     -1.78      0.00
   -1    9    5     -1.32      0.00
    1    9    5     -0.72      0.00
    3    9    5      0.00      0.00
    5    9    5      0.30      0.00
    7    9    5     -0.85      0.00
    9    9    5     -2.24      0.00
  -20   10    5      1.52      0.00
  -18   10    5      2.03      0.00
  -16   10    5      1.64      0.00
  -14   10    5      0.63      0.00
  -12   10    5     -0.30      0.00
  -10   10    5     -0.94      0.00
   -8   10    5     -0.82      0.00
   -6   10    5      0.32      0.00
   -4   10    5      1.28      0.00
   -2   10    5      1.27      0.00
    0   10    5      0.98      0.00
    2   10    5      0.48      0.00
    4   10    5     -0.33      0.00
    6   10    5     -0.02      0.00
    8   10    5      1.66      0.00
   10   10    5      2.42      0.00
  -19   11    5     -1.96      0.00
  -17   11    5     -2.02      0.00
  -15   11    5     -0.97      0.00
  -13   11    5      0.15      0.00
  -11   11    5      0.83      0.00
   -9   11    5      1.12      0.00
   -7   11    5      0.53      0.00
   -5   11    5     -0.50      0.00
   -3   11    5     -0.83      0.00
   -1   11    5     -0.80      0.00
    1   11    5     -0.84      0.00
    3   11    5     -0.18      0.00
    5   11    5      0.47      0.00
    7   11    5     -0.60      0.00
    9   11    5     -2.16      0.00
  -18   12    5      1.98      0.00
  -16   12    5      1.16      0.00
  -14   12    5     -0.14      0.00
  -12   12    5     -0.80      0.00
  -10   12    5     -1.08      0.00
   -8   12    5     -0.98      0.00
   -6   12    5     -0.26      0.00
   -4   12    5      0.21      0.00
   -2   12    5      0.23      0.00
    0   12    5      0.66      0.00
    2   12    5      0.76      0.00
    4   12    5     -0.16      0.00
    6   12    5     -0.27      0.00
    8   12    5      1.23      0.00
   10   12    5      2.06      0.00
  -19   13    5     -1.52      0.00
  -17   13    5     -1.15      0.00
  -15   13    5      0.23      0.00
  -13   13    5      0.99      0.00
  -11   13    5      0.99      0.00
   -9   13    5      0.99      0.00
   -7   13    5      0.73      0.00
   -5   13    5      0.35      0.00
   -3   13    5      0.38      0.00
   -1   13    5      0.02      0.00
    1   13    5     -0.84      0.00
    3   13    5     -0.58      0.00
    5   13    5      0.37      0.00
    7   13    5     -0.16      0.00
    9   13    5     -1.48      0.00
  -18   14    5      0.92      0.00
  -16   14    5     -0.31      0.00
  -14   14    5     -1.31      0.00
  -12   14    5     -1.10      0.00
  -10   14    5     -0.74      0.00
   -8   14    5     -0.72      0.00
   -6   14    5     -0.63      0.00
   -4   14    5     -0.76      0.00
   -2   14    5     -0.76      0.00
    0   14    5      0.26      0.00
    2   14    5      1.03      0.00
    4   14    5      0.24      0.00
    6   14    5     -0.37      0.00
    8   14    5      0.52      0.00
  -17   15    5      0.32      0.00
  -15   15    5      1.51      0.00
  -13   15    5      1.40      0.00
  -11   15    5      0.52      0.00
   -9   15    5      0.26      0.00
   -7   15    5      0.48      0.00
   -5   15    5      0.81      0.00
   -3   15    5      1.15      0.00
   -1   15    5      0.55      0.00
    1   15    5     -0.81      0.00
    3   15    5     -0.95      0.00
    5   15    5      0.11      0.00
    7   15    5      0.23      0.00
  -16   16    5     -1.45      0.00
  -14   16    5     -1.68      0.00
  -12   16    5     -0.55      0.00
  -10   16    5      0.35      0.00
   -8   16    5      0.19      0.00
   -6   16    5     -0.43      0.00
   -4   16    5     -1.08      0.00
   -2   16    5     -1.07      0.00
    0   16    5      0.15      0.00
    2   16    5      1.15      0.00
    4   16    5      0.55      0.00
    6   16    5     -0.34      0.00
    8   16    5     -0.10      0.00
  -17   17    5      1.12      0.00
  -15   17    5      1.69      0.00
  -13   17    5      0.77      0.00
  -11   17    5     -0.69      0.00
   -9   17    5     -1.13      0.00
   -7   17    5     -0.44      0.00
   -5   17    5      0.60      0.00
   -3   17    5      1.13      0.00
   -1   17    5      0.45      0.00
    1   17    5     -0.81      0.00
    3   17    5     -0.99      0.00
    5   17    5     -0.05      0.00
    7   17    5      0.41      0.00
  -16   18    5     -1.38      0.00
  -14   18    5     -0.94      0.00
  -12   18    5      0.58      0.00
  -10   18    5      1.79      0.00
   -8   18    5      1.60      0.00
   -6   18    5      0.31      0.00
   -4   18    5     -0.82      0.00
   -2   18    5     -0.74      0.00
    0   18    5      0.32      0.00
    2   18    5      0.97      0.00
    4   18    5      0.46      0.00
    6   18    5     -0.28      0.00
  -15   19    5      0.85      0.00
  -13   19    5     -0.21      0.00
  -11   19    5     -1.74      0.00
   -9   19    5     -2.48      0.00
   -7   19    5     -1.55      0.00
   -5   19    5      0.14      0.00
   -3   19    5      0.80      0.00
   -1   19    5      0.07      0.00
    1   19    5     -0.71      0.00
    3   19    5     -0.59      0.00
    5   19    5      0.02      0.00
  -14   20    5     -0.06      0.00
  -12   20    5      1.09      0.00
  -10   20    5      2.46      0.00
   -8   20    5      2.59      0.00
   -6   20    5      0.92      0.00
   -4   20    5     -0.62      0.00
   -2   20    5     -0.44      0.00
    0   20    5      0.40      0.00
    2   20    5      0.48      0.00
    4   20    5      0.06      0.00
  -13   21    5     -0.38      0.00
  -11   21    5     -1.54      0.00
   -9   21    5     -2.71      0.00
   -7   21    5     -2.00      0.00
   -5   21    5      0.05      0.00
   -3   21    5      0.78      0.00
   -1   21    5      0.02      0.00
    1   21    5     -0.31      0.00
    3   21    5      0.06      0.00
  -12   22    5      0.36      0.00
  -10   22    5      1.73      0.00
   -8   22    5      2.40      0.00
   -6   22    5      0.84      0.00
   -4   22    5     -0.83      0.00
   -2   22    5     -0.60      0.00
    0   22    5      0.04      0.00
    2   22    5     -0.21      0.00
  -11   23    5     -0.26      0.00
   -9   23    5     -1.71      0.00
   -7   23    5     -1.50      0.00
   -5   23    5      0.37      0.00
   -3   23    5      1.08      0.00
   -1   23    5      0.43      0.00
    1   23    5      0.35      0.00
   -8   24    5      1.35      0.00
   -6   24    5      0.33      0.00
   -4   24    5     -1.08      0.00
   -2   24    5     -0.96      0.00
  -20    0    6     -1.32      0.00
  -18    0    6     -2.27      0.00
  -16    0    6     -2.78      0.00
  -14    0    6     -3.07      0.00
  -12    0    6     -3.18      0.00
  -10    0    6     -2.71      0.00
   -8    0    6     -1.43      0.00
   -6    0    6     -0.43      0.00
   -4    0    6     -0.95      0.00
   -2    0    6     -1.88      0.00
    0    0    6     -1.03      0.00
    2    0    6      1.38      0.00
    4    0    6      3.35      0.00
    6    0    6      3.93      0.00
    8    0    6      3.19      0.00
   10    0    6      1.48      0.00
  -21    1    6      0.63      0.00
  -19    1    6      1.70      0.00
  -17    1    6      2.39      0.00
  -15    1    6      2.78      0.00
  -13    1    6      3.04      0.00
  -11    1    6      2.99      0.00
   -9    1    6      2.14      0.00
   -7    1    6      0.79      0.00
   -5    1    6      0.46      0.00
   -3    1    6      1.44      0.00
   -1    1    6      1.68      0.00
    1    1    6     -0.09      0.00
    3    1    6     -2.43      0.00
    5    1    6     -3.69      0.00
    7    1    6     -3.59      0.00
    9    1    6     -2.32      0.00
  -20    2    6     -0.85      0.00
  -18    2    6     -1.61      0.00
  -16    2    6     -2.11      0.00
  -14    2    6     -2.50      0.00
  -12    2    6     -2.80      0.00
  -10    2    6     -2.58      0.00
   -8    2    6     -1.44      0.00
   -6    2    6     -0.36      0.00
   -4    2    6     -0.68      0.00
   -2    2    6     -1.54      0.00
    0    2    6     -0.89      0.00
    2    2    6      1.18      0.00
    4    2    6      2.92      0.00
    6    2    6      3.44      0.00
    8    2    6      2.78      0.00
   10    2    6      1.27      0.00
  -21    3    6      0.04      0.00
  -19    3    6      0.66      0.00
  -17    3    6      1.18      0.00
  -15    3    6      1.67      0.00
  -13    3    6      2.19      0.00
  -11    3    6      2.52      0.00
   -9    3    6      2.03      0.00
   -7    3    6      0.75      0.00
   -5    3    6      0.12      0.00
   -3    3    6      0.79      0.00
   -1    3    6      1.11      0.00
    1    3    6     -0.11      0.00
    3    3    6     -1.86      0.00
    5    3    6     -2.83      0.00
    7    3    6     -2.72      0.00
    9    3    6     -1.71      0.00
  -20    4    6      0.19      0.00
  -18    4    6     -0.17      0.00
  -16    4    6     -0.71      0.00
  -14    4    6     -1.37      0.00
  -12    4    6     -1.99      0.00
  -10    4    6     -2.17      0.00
   -8    4    6     -1.32      0.00
   -6    4    6     -0.09      0.00
   -4    4    6      0.05      0.00
   -2    4    6     -0.56      0.00
    0    4    6     -0.31      0.00
    2    4    6      0.94      0.00
    4    4    6      2.02      0.00
    6    4    6      2.28      0.00
    8    4    6      1.72      0.00
  -21    5    6     -0.69      0.00
  -19    5    6     -0.66      0.00
  -17    5    6     -0.25      0.00
  -15    5    6      0.53      0.00
  -13    5    6      1.29      0.00
  -11    5    6      1.81      0.00
   -9    5    6      1.60      0.00
   -7    5    6      0.46      0.00
   -5    5    6     -0.47      0.00
   -3    5    6     -0.30      0.00
   -1    5    6     -0.01      0.00
    1    5    6     -0.54      0.00
    3    5    6     -1.38      0.00
    5    5    6     -1.72      0.00
    7    5    6     -1.41      0.00
    9    5    6     -0.69      0.00
  -20    6    6      1.08      0.00
  -18    6    6      1.00      0.00
  -16    6    6      0.22      0.00
  -14    6    6     -0.71      0.00
  -12    6    6     -1.27      0.00
  -10    6    6     -1.38      0.00
   -8    6    6     -0.74      0.00
   -6    6    6      0.39      0.00
   -4    6    6      0.91      0.00
   -2    6    6      0.71      0.00
    0    6    6      0.74      0.00
    2    6    6      1.16      0.00
    4    6    6      1.38      0.00
    6    6    6      1.08      0.00
    8    6    6      0.43      0.00
  -21    7    6     -1.09      0.00
  -19    7    6     -1.37      0.00
  -17    7    6     -0.82      0.00
  -15    7    6      0.30      0.00
  -13    7    6      0.94      0.00
  -11    7    6      0.95      0.00
   -9    7    6      0.60      0.00
   -7    7    6     -0.21      0.00
   -5    7    6     -1.04      0.00
   -3    7    6     -1.26      0.00
   -1    7    6     -1.21      0.00
    1    7    6     -1.35      0.00
    3    7    6     -1.41      0.00
    5    7    6     -1.02      0.00
    7    7    6     -0.22      0.00
    9    7    6      0.37      0.00
  -20    8    6      1.30      0.00
  -18    8    6      1.13      0.00
  -16    8    6      0.00      0.00
  -14    8    6     -0.92      0.00
  -12    8    6     -0.77      0.00
  -10    8    6     -0.19      0.00
   -8    8    6      0.32      0.00
   -6    8    6      0.91      0.00
   -4    8    6      1.37      0.00
   -2    8    6      1.52      0.00
    0    8    6      1.60      0.00
    2    8    6      1.66      0.00
    4    8    6      1.31      0.00
    6    8    6      0.36      0.00
    8    8    6     -0.62      0.00
  -19    9    6     -1.08      0.00
  -17    9    6     -0.19      0.00
  -15    9    6      1.05      0.00
  -13    9    6      1.06      0.00
  -11    9    6      0.00      0.00
   -9    9    6     -0.74      0.00
   -7    9    6     -0.94      0.00
   -5    9    6     -1.16      0.00
   -3    9    6     -1.41      0.00
   -1    9    6     -1.56      0.00
    1    9    6     -1.72      0.00
    3    9    6     -1.68      0.00
    5    9    6     -0.92      0.00
    7    9    6      0.42      0.00
  -20   10    6      0.75      0.00
  -18   10    6      0.18      0.00
  -16   10    6     -1.13      0.00
  -14   10    6     -1.64      0.00
  -12   10    6     -0.42      0.00
  -10   10    6      1.02      0.00
   -8   10    6      1.28      0.00
   -6   10    6      0.97      0.00
   -4   10    6      0.99      0.00
   -2   10    6      1.16      0.00
    0   10    6      1.32      0.00
    2   10    6      1.64      0.00
    4   10    6      1.53      0.00
    6   10    6      0.31      0.00
    8   10    6     -1.06      0.00
  -19   11    6      0.05      0.00
  -17   11    6      1.18      0.00
  -15   11    6      2.17      0.00
  -13   11    6      1.40      0.00
  -11   11    6     -0.64      0.00
   -9   11    6     -1.62      0.00
   -7   11    6     -1.06      0.00
   -5   11    6     -0.53      0.00
   -3   11    6     -0.54      0.00
   -1   11    6     -0.60      0.00
    1   11    6     -0.93      0.00
    3   11    6     -1.58      0.00
    5   11    6     -1.23      0.00
    7   11    6      0.35      0.00
  -18   12    6     -1.27      0.00
  -16   12    6     -2.43      0.00
  -14   12    6     -2.45      0.00
  -12   12    6     -0.51      0.00
  -10   12    6      1.42      0.00
   -8   12    6      1.32      0.00
   -6   12    6      0.25      0.00
   -4   12    6     -0.09      0.00
   -2   12    6     -0.12      0.00
    0   12    6     -0.13      0.00
    2   12    6      0.72      0.00
    4   12    6      1.61      0.00
    6   12    6      0.78      0.00
  -19   13    6      1.36      0.00
  -17   13    6      2.43      0.00
  -15   13    6      3.07      0.00
  -13   13    6      2.00      0.00
  -11   13    6     -0.37      0.00
   -9   13    6     -1.32      0.00
   -7   13    6     -0.25      0.00
   -5   13    6      0.60      0.00
   -3   13    6      0.64      0.00
   -1   13    6      0.93      0.00
    1   13    6      0.66      0.00
    3   13    6     -0.91      0.00
    5   13    6     -1.62      0.00
    7   13    6     -0.26      0.00
  -18   14    6     -2.29      0.00
  -16   14    6     -3.09      0.00
  -14   14    6     -3.08      0.00
  -12   14    6     -1.28      0.00
  -10   14    6      0.64      0.00
   -8   14    6      0.34      0.00
   -6   14    6     -0.90      0.00
   -4   14    6     -1.02      0.00
   -2   14    6     -1.12      0.00
    0   14    6     -1.65      0.00
    2   14    6     -0.62      0.00
    4   14    6      1.38      0.00
    6   14    6      1.39      0.00
  -17   15    6      2.68      0.00
  -15   15    6      3.25      0.00
  -13   15    6      2.74      0.00
  -11   15    6      0.76      0.00
   -9   15    6     -0.15      0.00
   -7   15    6      0.90      0.00
   -5   15    6      1.37      0.00
   -3   15    6      0.96      0.00
   -1   15    6      1.61      0.00
    1   15    6      1.95      0.00
    3   15    6     -0.01      0.00
    5   15    6     -1.74      0.00
  -16   16    6     -2.61      0.00
  -14   16    6     -3.21      0.00
  -12   16    6     -2.30      0.00
  -10   16    6     -0.62      0.00
   -8   16    6     -0.73      0.00
   -6   16    6     -1.54      0.00
   -4   16    6     -0.90      0.00
   -2   16    6     -0.75      0.00
    0   16    6     -2.03      0.00
    2   16    6     -1.59      0.00
    4   16    6      0.87      0.00
  -15   17    6      2.49      0.00
  -13   17    6      3.07      0.00
  -11   17    6      1.79      0.00
   -9   17    6      0.76      0.00
   -7   17    6      1.35      0.00
   -5   17    6      1.06      0.00
   -3   17    6     -0.09      0.00
   -1   17    6      0.80      0.00
    1   17    6      2.18      0.00
    3   17    6      0.73      0.00
    5   17    6     -1.41      0.00
  -16   18    6     -1.15      0.00
  -14   18    6     -2.55      0.00
  -12   18    6     -2.66      0.00
  -10   18    6     -1.23      0.00
   -8   18    6     -0.94      0.00
   -6   18    6     -1.09      0.00
   -4   18    6      0.33      0.00
   -2   18    6      0.82      0.00
    0   18    6     -1.20      0.00
    2   18    6     -1.88      0.00
    4   18    6      0.20      0.00
  -15   19    6      1.11      0.00
  -13   19    6      2.52      0.00
  -11   19    6      1.85      0.00
   -9   19    6      0.74      0.00
   -7   19    6      0.80      0.00
   -5   19    6     -0.13      0.00
   -3   19    6     -1.76      0.00
   -1   19    6     -0.69      0.00
    1   19    6      1.65      0.00
    3   19    6      1.18      0.00
  -14   20    6     -1.37      0.00
  -12   20    6     -2.01      0.00
  -10   20    6     -0.90      0.00
   -8   20    6     -0.41      0.00
   -6   20    6     -0.06      0.00
   -4   20    6      1.73      0.00
   -2   20    6      2.26      0.00
    0   20    6     -0.18      0.00
    2   20    6     -1.74      0.00
  -11   21    6      1.11      0.00
   -9   21    6      0.27      0.00
   -7   21    6      0.06      0.00
   -5   21    6     -1.16      0.00
   -3   21    6     -2.74      0.00
   -1   21    6     -1.54      0.00
    1   21    6      1.13      0.00
  -10   22    6     -0.37      0.00
   -8   22    6     -0.07      0.00
   -6   22    6      0.53      0.00
   -4   22    6      2.22      0.00
   -2   22    6      2.50      0.00
   -7   23    6     -0.02      0.00
   -5   23    6     -1.26      0.00
  -21    1    7      0.47      0.00
  -19    1    7     -0.08      0.00
  -17    1    7     -0.72      0.00
  -15    1    7     -0.91      0.00
  -13    1    7     -0.56      0.00
  -11    1    7     -0.06      0.00
   -9    1    7      0.18      0.00
   -7    1    7      0.08      0.00
   -5    1    7     -0.20      0.00
   -3    1    7     -0.51      0.00
   -1    1    7     -0.74      0.00
    1    1    7     -0.80      0.00
    3    1    7     -0.69      0.00
    5    1    7     -0.50      0.00
    7    1    7     -0.28      0.00
  -20    2    7     -0.44      0.00
  -18    2    7      0.83      0.00
  -16    2    7      1.67      0.00
  -14    2    7      1.45      0.00
  -12    2    7      0.58      0.00
  -10    2    7     -0.11      0.00
   -8    2    7     -0.22      0.00
   -6    2    7      0.12      0.00
   -4    2    7      0.66      0.00
   -2    2    7      1.19      0.00
    0    2    7      1.48      0.00
    2    2    7      1.41      0.00
    4    2    7      1.11      0.00
    6    2    7      0.71      0.00
  -21    3    7      1.12      0.00
  -19    3    7     -0.27      0.00
  -17    3    7     -1.84      0.00
  -15    3    7     -2.21      0.00
  -13    3    7     -1.39      0.00
  -11    3    7     -0.37      0.00
   -9    3    7      0.11      0.00
   -7    3    7     -0.02      0.00
   -5    3    7     -0.53      0.00
   -3    3    7     -1.24      0.00
   -1    3    7     -1.82      0.00
    1    3    7     -1.98      0.00
    3    3    7     -1.69      0.00
    5    3    7     -1.17      0.00
    7    3    7     -0.61      0.00
  -20    4    7     -0.58      0.00
  -18    4    7      1.30      0.00
  -16    4    7      2.42      0.00
  -14    4    7      2.04      0.00
  -12    4    7      1.02      0.00
  -10    4    7      0.35      0.00
   -8    4    7      0.17      0.00
   -6    4    7      0.38      0.00
   -4    4    7      0.96      0.00
   -2    4    7      1.70      0.00
    0    4    7      2.17      0.00
    2    4    7      2.09      0.00
    4    4    7      1.56      0.00
    6    4    7      0.89      0.00
  -19    5    7     -0.32      0.00
  -17    5    7     -1.95      0.00
  -15    5    7     -2.19      0.00
  -13    5    7     -1.44      0.00
  -11    5    7     -0.86      0.00
   -9    5    7     -0.63      0.00
   -7    5    7     -0.49      0.00
   -5    5    7     -0.63      0.00
   -3    5    7     -1.20      0.00
   -1    5    7     -1.87      0.00
    1    5    7     -2.12      0.00
    3    5    7     -1.78      0.00
    5    5    7     -1.09      0.00
    7    5    7     -0.42      0.00
  -20    6    7     -0.60      0.00
  -18    6    7      0.98      0.00
  -16    6    7      1.77      0.00
  -14    6    7      1.37      0.00
  -12    6    7      1.01      0.00
  -10    6    7      1.08      0.00
   -8    6    7      0.92      0.00
   -6    6    7      0.56      0.00
   -4    6    7      0.62      0.00
   -2    6    7      1.13      0.00
    0    6    7      1.63      0.00
    2    6    7      1.66      0.00
    4    6    7      1.14      0.00
    6    6    7      0.43      0.00
  -19    7    7      0.09      0.00
  -17    7    7     -0.94      0.00
  -15    7    7     -0.90      0.00
  -13    7    7     -0.65      0.00
  -11    7    7     -1.09      0.00
   -9    7    7     -1.38      0.00
   -7    7    7     -0.86      0.00
   -5    7    7     -0.29      0.00
   -3    7    7     -0.29      0.00
   -1    7    7     -0.69      0.00
    1    7    7     -1.05      0.00
    3    7    7     -0.94      0.00
    5    7    7     -0.34      0.00
  -20    8    7     -0.82      0.00
  -18    8    7     -0.03      0.00
  -16    8    7      0.25      0.00
  -14    8    7      0.00      0.00
  -12    8    7      0.53      0.00
  -10    8    7      1.44      0.00
   -8    8    7      1.31      0.00
   -6    8    7      0.37      0.00
   -4    8    7     -0.28      0.00
   -2    8    7     -0.36      0.00
    0    8    7     -0.04      0.00
    2    8    7      0.30      0.00
    4    8    7      0.11      0.00
    6    8    7     -0.36      0.00
  -19    9    7      0.81      0.00
  -17    9    7      0.40      0.00
  -15    9    7      0.55      0.00
  -13    9    7      0.28      0.00
  -11    9    7     -0.95      0.00
   -9    9    7     -1.56      0.00
   -7    9    7     -0.75      0.00
   -5    9    7      0.38      0.00
   -3    9    7      1.07      0.00
   -1    9    7      1.24      0.00
    1    9    7      0.82      0.00
    3    9    7      0.43      0.00
    5    9    7      0.61      0.00
  -18   10    7     -0.91      0.00
  -16   10    7     -0.81      0.00
  -14   10    7     -0.82      0.00
  -12   10    7      0.18      0.00
  -10   10    7      1.40      0.00
   -8   10    7      1.18      0.00
   -6   10    7     -0.07      0.00
   -4   10    7     -1.21      0.00
   -2   10    7     -2.01      0.00
    0   10    7     -2.09      0.00
    2   10    7     -1.41      0.00
    4   10    7     -1.00      0.00
  -19   11    7      1.13      0.00
  -17   11    7      0.86      0.00
  -15   11    7      0.83      0.00
  -13   11    7      0.36      0.00
  -11   11    7     -0.94      0.00
   -9   11    7     -1.44      0.00
   -7   11    7     -0.46      0.00
   -5   11    7      0.88      0.00
   -3   11    7      2.08      0.00
   -1   11    7      2.91      0.00
    1   11    7      2.61      0.00
    3   11    7      1.71      0.00
    5   11    7      1.31      0.00
  -18   12    7     -0.80      0.00
  -16   12    7     -0.46      0.00
  -14   12    7     -0.32      0.00
  -12   12    7      0.56      0.00
  -10   12    7      1.50      0.00
   -8   12    7      1.05      0.00
   -6   12    7     -0.25      0.00
   -4   12    7     -1.55      0.00
   -2   12    7     -2.88      0.00
    0   12    7     -3.45      0.00
    2   12    7     -2.67      0.00
    4   12    7     -1.73      0.00
  -17   13    7      0.06      0.00
  -15   13    7     -0.20      0.00
  -13   13    7     -0.55      0.00
  -11   13    7     -1.44      0.00
   -9   13    7     -1.58      0.00
   -7   13    7     -0.52      0.00
   -5   13    7      0.75      0.00
   -3   13    7      2.12      0.00
   -1   13    7      3.41      0.00
    1   13    7      3.43      0.00
    3   13    7      2.35      0.00
  -16   14    7      0.78      0.00
  -14   14    7      0.92      0.00
  -12   14    7      1.42      0.00
  -10   14    7      1.93      0.00
   -8   14    7      1.33      0.00
   -6   14    7      0.12      0.00
   -4   14    7     -1.06      0.00
   -2   14    7     -2.51      0.00
    0   14    7     -3.44      0.00
    2   14    7     -2.90      0.00
    4   14    7     -1.82      0.00
  -17   15    7     -1.02      0.00
  -15   15    7     -1.38      0.00
  -13   15    7     -1.52      0.00
  -11   15    7     -2.02      0.00
   -9   15    7     -1.97      0.00
   -7   15    7     -1.01      0.00
   -5   15    7      0.06      0.00
   -3   15    7      1.25      0.00
   -1   15    7      2.57      0.00
    1   15    7      2.93      0.00
    3   15    7      2.13      0.00
  -16   16    7      1.54      0.00
  -14   16    7      1.64      0.00
  -12   16    7      1.89      0.00
  -10   16    7      2.20      0.00
   -8   16    7      1.75      0.00
   -6   16    7      0.81      0.00
   -4   16    7     -0.11      0.00
   -2   16    7     -1.27      0.00
    0   16    7     -2.22      0.00
    2   16    7     -2.12      0.00
  -15   17    7     -1.56      0.00
  -13   17    7     -1.64      0.00
  -11   17    7     -1.97      0.00
   -9   17    7     -2.05      0.00
   -7   17    7     -1.49      0.00
   -5   17    7     -0.74      0.00
   -3   17    7      0.10      0.00
   -1   17    7      1.07      0.00
    1   17    7      1.57      0.00
  -14   18    7      1.31      0.00
  -12   18    7      1.50      0.00
  -10   18    7      1.79      0.00
   -8   18    7      1.77      0.00
   -6   18    7      1.32      0.00
   -4   18    7      0.71      0.00
   -2   18    7     -0.01      0.00
    0   18    7     -0.66      0.00
  -13   19    7     -1.03      0.00
  -11   19    7     -1.23      0.00
   -9   19    7     -1.50      0.00
   -7   19    7     -1.56      0.00
   -5   19    7     -1.21      0.00
   -3   19    7     -0.67      0.00
   -1   19    7     -0.18      0.00
  -10   20    7      0.89      0.00
   -8   20    7      1.31      0.00
   -6   20    7      1.43      0.00
   -4   20    7      1.04      0.00
   -2   20    7      0.65      0.00
   -9   21    7     -0.67      0.00
   -7   21    7     -1.26      0.00
   -5   21    7     -1.23      0.00
  -20    0    8      0.89      0.00
  -18    0    8      1.97      0.00
  -16    0    8      2.07      0.00
  -14    0    8      0.38      0.00
  -12    0    8     -2.26      0.00
  -10    0    8     -3.78      0.00
   -8    0    8     -2.92      0.00
   -6    0    8     -0.94      0.00
   -4    0    8      0.09      0.00
   -2    0    8     -0.31      0.00
    0    0    8     -1.30      0.00
    2    0    8     -2.04      0.00
    4    0    8     -1.74      0.00
  -19    1    8     -1.33      0.00
  -17    1    8     -2.05      0.00
  -15    1    8     -1.29      0.00
  -13    1    8      0.95      0.00
  -11    1    8      3.13      0.00
   -9    1    8      3.42      0.00
   -7    1    8      1.81      0.00
   -5    1    8      0.21      0.00
   -3    1    8     -0.02      0.00
   -1    1    8      0.76      0.00
    1    1    8      1.69      0.00
    3    1    8      1.97      0.00
  -20    2    8      0.52      0.00
  -18    2    8      1.42      0.00
  -16    2    8      1.43      0.00
  -14    2    8      0.05      0.00
  -12    2    8     -1.93      0.00
  -10    2    8     -2.99      0.00
   -8    2    8     -2.28      0.00
   -6    2    8     -0.70      0.00
   -4    2    8      0.08      0.00
   -2    2    8     -0.31      0.00
    0    2    8     -1.16      0.00
    2    2    8     -1.76      0.00
    4    2    8     -1.45      0.00
  -19    3    8     -0.56      0.00
  -17    3    8     -0.98      0.00
  -15    3    8     -0.36      0.00
  -13    3    8      0.93      0.00
  -11    3    8      1.98      0.00
   -9    3    8      2.01      0.00
   -7    3    8      1.02      0.00
   -5    3    8      0.09      0.00
   -3    3    8      0.08      0.00
   -1    3    8      0.72      0.00
    1    3    8      1.35      0.00
    3    3    8      1.44      0.00
  -20    4    8     -0.15      0.00
  -18    4    8      0.36      0.00
  -16    4    8      0.19      0.00
  -14    4    8     -0.53      0.00
  -12    4    8     -1.08      0.00
  -10    4    8     -1.20      0.00
   -8    4    8     -0.83      0.00
   -6    4    8     -0.23      0.00
   -4    4    8     -0.07      0.00
   -2    4    8     -0.50      0.00
    0    4    8     -1.04      0.00
    2    4    8     -1.25      0.00
    4    4    8     -0.85      0.00
  -19    5    8      0.13      0.00
  -17    5    8      0.05      0.00
  -15    5    8      0.51      0.00
  -13    5    8      0.72      0.00
  -11    5    8      0.45      0.00
   -9    5    8      0.20      0.00
   -7    5    8      0.05      0.00
   -5    5    8      0.07      0.00
   -3    5    8      0.46      0.00
   -1    5    8      0.97      0.00
    1    5    8      1.15      0.00
    3    5    8      0.89      0.00
  -18    6    8     -0.15      0.00
  -16    6    8     -0.47      0.00
  -14    6    8     -0.72      0.00
  -12    6    8     -0.22      0.00
  -10    6    8      0.40      0.00
   -8    6    8      0.45      0.00
   -6    6    8      0.14      0.00
   -4    6    8     -0.38      0.00
   -2    6    8     -1.00      0.00
    0    6    8     -1.27      0.00
    2    6    8     -0.99      0.00
    4    6    8     -0.43      0.00
  -19    7    8      0.11      0.00
  -17    7    8      0.21      0.00
  -15    7    8      0.65      0.00
  -13    7    8      0.42      0.00
  -11    7    8     -0.49      0.00
   -9    7    8     -0.93      0.00
   -7    7    8     -0.58      0.00
   -5    7    8      0.09      0.00
   -3    7    8      0.88      0.00
   -1    7    8      1.42      0.00
    1    7    8      1.26      0.00
    3    7    8      0.64      0.00
  -18    8    8      0.12      0.00
  -16    8    8     -0.28      0.00
  -14    8    8     -0.59      0.00
  -12    8    8      0.06      0.00
  -10    8    8      0.95      0.00
   -8    8    8      1.01      0.00
   -6    8    8      0.39      0.00
   -4    8    8     -0.45      0.00
   -2    8    8     -1.27      0.00
    0    8    8     -1.51      0.00
    2    8    8     -0.97      0.00
  -17    9    8     -0.21      0.00
  -15    9    8      0.41      0.00
  -13    9    8      0.47      0.00
  -11    9    8     -0.41      0.00
   -9    9    8     -1.09      0.00
   -7    9    8     -0.88      0.00
   -5    9    8     -0.18      0.00
   -3    9    8      0.68      0.00
   -1    9    8      1.35      0.00
    1    9    8      1.24      0.00
    3    9    8      0.54      0.00
  -18   10    8      0.55      0.00
  -16   10    8      0.04      0.00
  -14   10    8     -0.67      0.00
  -12   10    8     -0.38      0.00
  -10   10    8      0.63      0.00
   -8   10    8      1.09      0.00
   -6   10    8      0.78      0.00
   -4   10    8      0.16      0.00
   -2   10    8     -0.62      0.00
    0   10    8     -1.09      0.00
    2   10    8     -0.77      0.00
  -17   11    8     -0.42      0.00
  -15   11    8      0.45      0.00
  -13   11    8      0.96      0.00
  -11   11    8      0.20      0.00
   -9   11    8     -0.86      0.00
   -7   11    8     -1.14      0.00
   -5   11    8     -0.87      0.00
   -3   11    8     -0.39      0.00
   -1   11    8      0.31      0.00
    1   11    8      0.65      0.00
  -16   12    8     -0.07      0.00
  -14   12    8     -1.04      0.00
  -12   12    8     -0.98      0.00
  -10   12    8      0.24      0.00
   -8   12    8      1.16      0.00
   -6   12    8      1.26      0.00
   -4   12    8      1.17      0.00
   -2   12    8      0.80      0.00
    0   12    8      0.06      0.00
  -15   13    8      0.74      0.00
  -13   13    8      1.34      0.00
  -11   13    8      0.50      0.00
   -9   13    8     -0.86      0.00
   -7   13    8     -1.37      0.00
   -5   13    8     -1.45      0.00
   -3   13    8     -1.61      0.00
   -1   13    8     -1.15      0.00
    1   13    8     -0.25      0.00
  -16   14    8     -0.37      0.00
  -14   14    8     -1.18      0.00
  -12   14    8     -1.00      0.00
  -10   14    8      0.36      0.00
   -8   14    8      1.30      0.00
   -6   14    8      1.37      0.00
   -4   14    8      1.70      0.00
   -2   14    8      1.97      0.00
    0   14    8      1.18      0.00
  -15   15    8      0.74      0.00
  -13   15    8      1.04      0.00
  -11   15    8      0.13      0.00
   -9   15    8     -1.09      0.00
   -7   15    8     -1.24      0.00
   -5   15    8     -1.25      0.00
   -3   15    8     -1.97      0.00
   -1   15    8     -2.00      0.00
  -14   16    8     -0.70      0.00
  -12   16    8     -0.36      0.00
  -10   16    8      0.76      0.00
   -8   16    8      1.18      0.00
   -6   16    8      0.77      0.00
   -4   16    8      1.21      0.00
   -2   16    8      2.09      0.00
  -13   17    8      0.25      0.00
  -11   17    8     -0.44      0.00
   -9   17    8     -1.09      0.00
   -7   17    8     -0.61      0.00
   -5   17    8     -0.29      0.00
   -3   17    8     -1.30      0.00
  -10   18    8      0.88      0.00
   -8   18    8      0.66      0.00
   -6   18    8     -0.21      0.00
  -19    1    9      0.11      0.00
  -17    1    9      0.55      0.00
  -15    1    9      0.83      0.00
  -13    1    9      0.53      0.00
  -11    1    9     -0.12      0.00
   -9    1    9     -0.62      0.00
   -7    1    9     -0.77      0.00
   -5    1    9     -0.54      0.00
   -3    1    9      0.01      0.00
   -1    1    9      0.46      0.00
    1    1    9      0.44      0.00
  -18    2    9     -0.57      0.00
  -16    2    9     -1.32      0.00
  -14    2    9     -1.37      0.00
  -12    2    9     -0.43      0.00
  -10    2    9      0.73      0.00
   -8    2    9      1.37      0.00
   -6    2    9      1.32      0.00
   -4    2    9      0.54      0.00
   -2    2    9     -0.53      0.00
    0    2    9     -0.96      0.00
  -17    3    9      1.19      0.00
  -15    3    9      1.84      0.00
  -13    3    9      1.31      0.00
  -11    3    9     -0.15      0.00
   -9    3    9     -1.44      0.00
   -7    3    9     -1.93      0.00
   -5    3    9     -1.38      0.00
   -3    3    9      0.03      0.00
   -1    3    9      1.18      0.00
    1    3    9      1.09      0.00
  -18    4    9     -0.66      0.00
  -16    4    9     -1.56      0.00
  -14    4    9     -1.81      0.00
  -12    4    9     -0.78      0.00
  -10    4    9      0.83      0.00
   -8    4    9      1.98      0.00
   -6    4    9      2.06      0.00
   -4    4    9      0.85      0.00
   -2    4    9     -0.85      0.00
    0    4    9     -1.48      0.00
  -17    5    9      0.80      0.00
  -15    5    9      1.47      0.00
  -13    5    9      1.36      0.00
  -11    5    9      0.14      0.00
   -9    5    9     -1.37      0.00
   -7    5    9     -2.19      0.00
   -5    5    9     -1.66      0.00
   -3    5    9      0.05      0.00
   -1    5    9      1.42      0.00
  -18    6    9     -0.13      0.00
  -16    6    9     -0.53      0.00
  -14    6    9     -1.05      0.00
  -12    6    9     -0.80      0.00
  -10    6    9      0.40      0.00
   -8    6    9      1.66      0.00
   -6    6    9      1.96      0.00
   -4    6    9      0.83      0.00
   -2    6    9     -0.84      0.00
    0    6    9     -1.37      0.00
  -17    7    9     -0.33      0.00
  -15    7    9      0.04      0.00
  -13    7    9      0.60      0.00
  -11    7    9      0.31      0.00
   -9    7    9     -0.78      0.00
   -7    7    9     -1.63      0.00
   -5    7    9     -1.32      0.00
   -3    7    9      0.04      0.00
   -1    7    9      1.09      0.00
  -16    8    9      0.93      0.00
  -14    8    9      0.34      0.00
  -12    8    9     -0.26      0.00
  -10    8    9      0.10      0.00
   -8    8    9      0.94      0.00
   -6    8    9      1.24      0.00
   -4    8    9      0.56      0.00
   -2    8    9     -0.50      0.00
  -17    9    9     -1.22      0.00
  -15    9    9     -1.31      0.00
  -13    9    9     -0.51      0.00
  -11    9    9     -0.07      0.00
   -9    9    9     -0.43      0.00
   -7    9    9     -0.82      0.00
   -5    9    9     -0.68      0.00
   -3    9    9     -0.06      0.00
   -1    9    9      0.40      0.00
  -16   10    9      1.61      0.00
  -14   10    9      1.36      0.00
  -12   10    9      0.65      0.00
  -10   10    9      0.44      0.00
   -8   10    9      0.52      0.00
   -6   10    9      0.47      0.00
   -4   10    9      0.27      0.00
   -2   10    9      0.03      0.00
  -15   11    9     -1.62      0.00
  -13   11    9     -1.31      0.00
  -11   11    9     -0.92      0.00
   -9   11    9     -0.69      0.00
   -7   11    9     -0.35      0.00
   -5   11    9     -0.16      0.00
   -3   11    9     -0.22      0.00
  -14   12    9      1.47      0.00
  -12   12    9      1.41      0.00
  -10   12    9      1.19      0.00
   -8   12    9      0.64      0.00
   -6   12    9      0.07      0.00
   -4   12    9      0.11      0.00
  -13   13    9     -1.44      0.00
  -11   13    9     -1.62      0.00
   -9   13    9     -1.23      0.00
   -7   13    9     -0.36      0.00
   -5   13    9      0.05      0.00
  -12   14    9      1.58      0.00
  -10   14    9      1.69      0.00
   -8   14    9      0.95      0.00
   -6   14    9      0.08      0.00
   -9   15    9     -1.46      0.00
  -16    0   10      0.71      0.00
  -14    0   10      2.45      0.00
  -12    0   10      1.91      0.00
  -10    0   10     -0.71      0.00
   -8    0   10     -1.19      0.00
   -6    0   10      1.32      0.00
   -4    0   10      2.73      0.00
  -15    1   10     -1.67      0.00
  -13    1   10     -2.52      0.00
  -11    1   10     -0.58      0.00
   -9    1   10      1.38      0.00
   -7    1   10      0.03      0.00
   -5    1   10     -2.37      0.00
  -16    2   10      0.84      0.00
  -14    2   10      2.25      0.00
  -12    2   10      1.63      0.00
  -10    2   10     -0.65      0.00
   -8    2   10     -0.90      0.00
   -6    2   10      1.38      0.00
   -4    2   10      2.50      0.00
  -15    3   10     -1.56      0.00
  -13    3   10     -1.97      0.00
  -11    3   10     -0.37      0.00
   -9    3   10      0.91      0.00
   -7    3   10     -0.38      0.00
   -5    3   10     -2.17      0.00
  -14    4   10      1.68      0.00
  -12    4   10      1.06      0.00
  -10    4   10     -0.32      0.00
   -8    4   10     -0.10      0.00
   -6    4   10      1.55      0.00
   -4    4   10      2.00      0.00
  -15    5   10     -1.12      0.00
  -13    5   10     -1.21      0.00
  -11    5   10     -0.35      0.00
   -9    5   10     -0.01      0.00
   -7    5   10     -1.06      0.00
   -5    5   10     -1.92      0.00
  -14    6   10      0.91      0.00
  -12    6   10      0.72      0.00
  -10    6   10      0.42      0.00
   -8    6   10      0.92      0.00
   -6    6   10      1.72      0.00
  -13    7   10     -0.65      0.00
  -11    7   10     -0.75      0.00
   -9    7   10     -1.07      0.00
   -7    7   10     -1.60      0.00
  -12    8   10      0.78      0.00
  -10    8   10      1.26      0.00
   -8    8   10      1.61      0.00
  -11    9   10     -1.25      0.00
   -9    9   10     -1.68      0.00
    2    0    0     44.29      0.00
    1    1    0    -51.39      0.00
    0    2    0     48.15      0.00
   19    5    0      0.37      0.00
   16   16    0     -0.99      0.00
   13   21    0     -0.64      0.00
   -1    1    1      0.20      0.00
  -20    4    1     -0.57      0.00
   -4   28    1      1.84      0.00
    2   28    1     -0.60      0.00
  -21    1    2     -0.31      0.00
   17    1    2      0.97      0.00
   17    3    2      0.76      0.00
  -17   17    2     -0.15      0.00
    3   27    2      0.01      0.00
   15    7    3     -1.27      0.00
  -18   16    3      0.09      0.00
    9   21    3     -0.08      0.00
  -14   22    3     -0.17      0.00
    8   22    3      0.36      0.00
  -13   23    3     -0.05      0.00
    7   23    3     -0.44      0.00
    6   24    3      0.14      0.00
   -5   27    3      0.94      0.00
   -1   27    3     -1.00      0.00
   14    0    4     -1.43      0.00
   14    2    4     -1.24      0.00
   13    9    4     -1.49      0.00
   12   12    4      0.87      0.00
    7   21    4     -0.87      0.00
    6   22    4      1.16      0.00
   12    4    5      0.21      0.00
   11    9    5     -1.97      0.00
  -20   12    5      1.42      0.00
  -18   16    5     -0.26      0.00
  -10   24    5      0.32      0.00
    0   24    5     -0.57      0.00
   -7   25    5     -0.68      0.00
   -5   25    5      0.56      0.00
   -3   25    5      1.17      0.00
   10    4    6      0.72      0.00
    9    9    6      1.09      0.00
    8   12    6     -0.79      0.00
  -17   17    6      1.65      0.00
  -13   21    6      1.38      0.00
   -9   23    6      0.20      0.00
   -3   23    6     -2.43      0.00
  -21    5    7      1.20      0.00
    7    7    7      0.14      0.00
    6   10    7     -1.02      0.00
  -18   14    7      0.12      0.00
  -12   20    7      0.72      0.00
    5    1    8      1.09      0.00
  -20    6    8     -0.36      0.00
  -19    9    8     -0.36      0.00
    2   12    8     -0.25      0.00
  -17   13    8     -0.18      0.00
   -4   18    8      0.14      0.00
  -19    3    9      0.26      0.00
    1    5    9      1.21      0.00
    0    8    9     -0.76      0.00
  -11   15    9     -1.67      0.00
   -7   15    9     -0.54      0.00
   -3    1   10     -2.25      0.00
  -16    4   10      0.91      0.00
   -5    7   10     -1.60      0.00
  -14    8   10      0.26      0.00
   -6    8   10      1.58      0.00
  -13    9   10     -0.48      0.00
   -7    9   10     -1.55      0.00
  -10   10   10      1.61      0.00
    0    0    0      0.00      0.00
loop_
  _platon_squeeze_void_nr
  _platon_squeeze_void_average_x
  _platon_squeeze_void_average_y
  _platon_squeeze_void_average_z
  _platon_squeeze_void_volume
  _platon_squeeze_void_count_electrons
  _platon_squeeze_void_content
   1  0.000  0.500 -0.015       130        24 ' '
   2  0.500  0.000  0.001       130        24 ' '
loop_
  _platon_missing_refln_index_h
  _platon_missing_refln_index_k
  _platon_missing_refln_index_l
  _platon_missing_refln_theta
    2    0    0     2.636
    1    1    0     1.596
    0    2    0     1.799
   -1    1    1     2.553
_platon_squeeze_void_probe_radius                  1.20
_platon_squeeze_details
)
TITL shelx     C 1 2/c 1    R = 0.05
CELL   17.5597   22.6337    8.5253     90.00    118.36     90.00
SPGR C2/c
Q101 0.322 0.296 0.379 !       1.87 eA-3
Q102 0.139 0.361 0.125 !       1.81 eA-3
Q103 0.450 0.268 0.086 !       1.79 eA-3
Q104 0.310 0.249 0.369 !       1.30 eA-3
C105 1.000 0.445 0.257 !       1.26 eA-3
Q106 0.448 0.065 0.252 !       1.22 eA-3
Q107 0.600 0.147 0.161 !       1.21 eA-3
Q108 0.687 0.226 0.159 !       1.10 eA-3
Q109 0.595 0.138 0.029 !       1.08 eA-3
C110 0.475 0.009 0.506 !       1.05 eA-3
Q111 0.558 0.038-0.004 !       1.03 eA-3
Q112 0.857 0.350 0.253 !       1.03 eA-3
C113 0.500 0.062 0.245 !       1.01 eA-3
Q114 0.075 0.340 0.217 !       0.97 eA-3
Q115 0.218 0.154 0.347 !       0.96 eA-3
Q116 0.381 0.108 0.010 !       0.96 eA-3
Q117 0.984 0.341 0.315 !       0.96 eA-3
C118 0.522 0.010 0.312 !       0.93 eA-3
Q119 0.792 0.197 0.024 !       0.87 eA-3
Q120 0.010 0.157 0.501 !       0.85 eA-3
Q121 0.653 0.120 0.466 !       0.85 eA-3
Q122 0.596 0.227 0.280 !       0.85 eA-3
Q123 0.798 0.226 0.312 !       0.81 eA-3
Q124 0.432 0.187 0.306 !       0.81 eA-3
C125 0.495 0.035 0.315 !       0.81 eA-3
C126 0.958 0.490 0.097 !       0.80 eA-3
Q127 0.830 0.231 0.438 !       0.80 eA-3
Q128 0.348 0.191 0.028 !       0.79 eA-3
Q129 0.175 0.282 0.401 !       0.78 eA-3
C130 0.530 0.031 0.090 !       0.78 eA-3
Q131 0.701 0.172 0.225 !       0.78 eA-3
Q132 0.786 0.075 0.148 !       0.74 eA-3
Q133 0.049 0.196 0.472 !       0.74 eA-3
Q134 0.795 0.137 0.069 !       0.74 eA-3
Q135 0.902 0.220 0.001 !       0.72 eA-3
Q136 0.562 0.201 0.445 !       0.71 eA-3
Q137 0.062 0.294 0.930 !       0.71 eA-3
Q138 0.188 0.296 0.313 !       0.71 eA-3
Q139 0.255 0.241 0.276 !       0.70 eA-3
C140 0.423 0.015 0.213 !       0.70 eA-3
Q141 0.612 0.314 0.261 !       0.69 eA-3
C142 0.063 0.466 0.323 !       0.68 eA-3
Q143 0.860 0.190 0.277 !       0.68 eA-3
Q144 0.636 0.107 0.129 !       0.67 eA-3
Q145 0.755 0.189 0.179 !       0.66 eA-3
Q146 0.010 0.219 0.001 !       0.66 eA-3
Q147 0.284 0.171 0.362 !       0.64 eA-3
Q148 0.576 0.344 0.473 !       0.64 eA-3
Q149 0.361 0.417 0.040 !       0.63 eA-3
Q150 0.813 0.265 0.308 !       0.63 eA-3
Q151 0.786 0.307 0.190 !       0.63 eA-3
Q152 0.191 0.250 0.312 !       0.62 eA-3
Q153 0.794 0.384 0.191 !       0.61 eA-3
Q154 0.227 0.203 0.026 !       0.61 eA-3
Q155 0.589 0.459 0.286 !       0.61 eA-3
Q156 0.782 0.278 0.066 !       0.59 eA-3
Q157 0.159 0.312 0.191 !       0.59 eA-3
Q158 0.901 0.158 0.160 !       0.59 eA-3
Q159 0.859 0.018 0.370 !       0.58 eA-3
Q160 0.048 0.214 0.346 !       0.58 eA-3
Q161 0.694 0.045 0.089 !       0.57 eA-3
Q162 0.587 0.383 0.131 !       0.57 eA-3
Q163 0.865 0.186 0.054 !       0.57 eA-3
C164 0.092 0.489 0.439 !       0.57 eA-3
Q165 1.000 0.195 0.260 !       0.56 eA-3
Q166 0.578 0.320 0.386 !       0.56 eA-3
Q167 0.122 0.260 0.439 !       0.56 eA-3
Q168 0.768 0.274 0.151 !       0.56 eA-3
Q169 0.019 0.238 0.406 !       0.55 eA-3
Q170 0.069 0.390 0.088 !       0.55 eA-3
Q171 0.656 0.134 0.127 !       0.55 eA-3
Q172 0.636 0.031 0.462 !       0.55 eA-3
Q173 0.894 0.124 0.424 !       0.54 eA-3
Q174 0.157 0.455 0.092 !       0.54 eA-3
Q175 0.457 0.490 0.312 !       0.54 eA-3
Q176 0.249 0.348 0.163 !       0.54 eA-3
Q177 0.790 0.430 0.277 !       0.54 eA-3
Q178 0.502 0.437 0.124 !       0.54 eA-3
Q179 0.712 0.460 0.381 !       0.54 eA-3
Q180 0.625 0.204 0.364 !       0.54 eA-3
Q181 0.717 0.048 0.003 !       0.53 eA-3
Q182 0.625 0.203 0.238 !       0.53 eA-3
Q183 0.685 0.108 0.286 !       0.53 eA-3
Q184 0.324 0.439 0.059 !       0.53 eA-3
Q185 0.487 0.502 0.437 !       0.53 eA-3
Q186 0.642 0.488 0.248 !       0.53 eA-3
Q187 0.127 0.133 0.209 !       0.52 eA-3
Q188 0.283 0.079 0.131 !       0.52 eA-3
Q189 0.348 0.039 0.316 !       0.52 eA-3
Q190 0.171 0.112 0.061 !       0.52 eA-3
Q191 0.155 0.498 0.406 !       0.51 eA-3
Q192 0.156 0.047 0.068 !       0.51 eA-3
Q193 0.087 0.102 0.124 !       0.51 eA-3
Q194 0.500 0.180 0.259 !       0.51 eA-3
Q195 0.794 0.015 0.428 !       0.51 eA-3
Q196 0.529 0.435 0.290 !       0.51 eA-3
Q197 0.344 0.190 0.488 !       0.51 eA-3
Q198 0.153 0.130 0.198 !       0.50 eA-3
Q199 0.224 0.345 0.061 !       0.50 eA-3
)
;
_shelx_shelxl_version_number     2014/7
_olex2_submission_special_instructions 'No special instructions were received'
loop_
_space_group_symop_operation_xyz
'x, y, z'
'-x, y, -z+1/2'
'x+1/2, y+1/2, z'
'-x+1/2, y+1/2, -z+1/2'
'-x, -y, -z'
'x, -y, z-1/2'
'-x+1/2, -y+1/2, -z'
'x+1/2, -y+1/2, z-1/2'
loop_
_atom_site_label
_atom_site_type_symbol
_atom_site_fract_x
_atom_site_fract_y
_atom_site_fract_z
_atom_site_U_iso_or_equiv
_atom_site_adp_type
_atom_site_occupancy
_atom_site_site_symmetry_order
_atom_site_calc_flag
_atom_site_refinement_flags_posn
_atom_site_refinement_flags_occupancy
_atom_site_disorder_assembly
_atom_site_disorder_group
Pr1 Pr 0.81645(2) 0.26431(2) 0.86637(5) 0.03694(17) Uani 1 1 d . . . .
C1 C 0.8394(4) 0.0838(3) 0.5844(8) 0.0344(15) Uani 1 1 d . . . .
C2 C 0.9043(5) 0.0578(3) 0.7413(9) 0.0436(18) Uani 1 1 d . . . .
H2 H 0.9460 0.0814 0.8297 0.052 Uiso 1 1 calc R . . .
C3 C 0.9061(5) -0.0010(3) 0.7629(9) 0.0474(19) Uani 1 1 d . . . .
H3 H 0.9478 -0.0176 0.8688 0.057 Uiso 1 1 calc R . . .
C4 C 0.8446(4) -0.0386(3) 0.6257(8) 0.0366(16) Uani 1 1 d . . . .
C5 C 0.8481(5) 0.1010(3) 1.1475(9) 0.0434(18) Uani 1 1 d . . . .
H5 H 0.8926 0.1182 1.2487 0.052 Uiso 1 1 calc R . . .
C6 C 0.7858(5) 0.1358(3) 1.0188(9) 0.0368(15) Uani 1 1 d . . . .
C7 C 0.7209(4) 0.1093(3) 0.8674(9) 0.0413(17) Uani 1 1 d . . . .
C8 C 0.7165(5) 0.0491(3) 0.8367(9) 0.0417(17) Uani 1 1 d . . . .
H8 H 0.6734 0.0332 0.7311 0.050 Uiso 1 1 calc R . . .
C9 C 0.7792(4) -0.0121(3) 0.4702(8) 0.0358(15) Uani 1 1 d . . . .
C10 C 0.7788(4) 0.0497(3) 0.4528(9) 0.0359(15) Uani 1 1 d . . . .
H10 H 0.7365 0.0675 0.3500 0.043 Uiso 1 1 calc R . . .
O1 O 0.8532(3) 0.1880(2) 0.7156(6) 0.0566(14) Uani 1 1 d . . . .
O2 O 0.9258(3) 0.1690(2) 0.5400(6) 0.0502(13) Uani 1 1 d . . . .
O3 O 0.7691(3) 0.17758(19) 0.3971(6) 0.0457(12) Uani 1 1 d . . . .
O4 O 0.6836(3) 0.2027(2) 0.6655(6) 0.0554(14) Uani 1 1 d . . . .
O5 O 0.5783(4) 0.1245(2) 0.5691(9) 0.093(2) Uani 1 1 d . . . .
O6 O 0.8979(4) 0.3147(2) 1.1758(9) 0.0766(18) Uani 1 1 d . . . .
O7 O 0.7855(3) 0.19543(18) 1.0421(6) 0.0378(11) Uani 1 1 d . . . .
O8A O 0.9148(11) 0.2992(8) 0.714(2) 0.0379(18) Uani 0.25 1 d . P A 1
H8AA H 0.8598 0.2945 0.6099 0.057 Uiso 0.25 1 d R P A 1
H8AB H 0.9449 0.2625 0.7301 0.057 Uiso 0.25 1 d R P A 1
O8B O 0.9086(6) 0.3341(4) 0.8110(12) 0.0379(18) Uani 0.45 1 d . P A 2
H8BA H 0.9593 0.3572 0.8460 0.057 Uiso 0.45 1 d R P A 2
H8BB H 0.8615 0.3550 0.7196 0.057 Uiso 0.45 1 d R P A 2
O8C O 0.8848(9) 0.3714(6) 0.9250(18) 0.0379(18) Uani 0.3 1 d . P A 3
H8CA H 0.9168 0.3681 1.0509 0.057 Uiso 0.3 1 d R P A 3
H8CB H 0.8371 0.3969 0.8975 0.057 Uiso 0.3 1 d R P A 3
O9 O 0.9695(4) 0.2300(3) 1.0565(7) 0.0651(17) Uani 1 1 d . . B 3
H9A H 1.0033 0.2594 1.1174 0.098 Uiso 1 1 d GR . B 3
H9B H 0.9899 0.2151 0.9891 0.098 Uiso 1 1 d GR . B 3
S1 S 0.84802(11) 0.16028(7) 0.5567(2) 0.0383(4) Uani 1 1 d . . C 3
S2 S 0.64026(13) 0.15785(8) 0.7161(3) 0.0614(6) Uani 1 1 d . . D 3
loop_
_atom_site_aniso_label
_atom_site_aniso_U_11
_atom_site_aniso_U_22
_atom_site_aniso_U_33
_atom_site_aniso_U_23
_atom_site_aniso_U_13
_atom_site_aniso_U_12
Pr1 0.0367(3) 0.0384(3) 0.0352(2) 0.00315(17) 0.01661(19) 0.00596(18)
C1 0.041(4) 0.029(3) 0.033(4) 0.001(3) 0.018(3) 0.002(3)
C2 0.043(4) 0.034(4) 0.042(4) -0.004(3) 0.011(3) -0.001(3)
C3 0.051(5) 0.041(4) 0.036(4) 0.007(3) 0.009(3) -0.001(3)
C4 0.037(4) 0.031(4) 0.039(4) -0.001(3) 0.016(3) -0.003(3)
C5 0.051(5) 0.041(4) 0.034(4) -0.005(3) 0.016(3) 0.002(3)
C6 0.040(4) 0.029(4) 0.048(4) 0.001(3) 0.026(3) 0.002(3)
C7 0.032(4) 0.037(4) 0.053(4) 0.011(3) 0.018(4) 0.007(3)
C8 0.037(4) 0.033(4) 0.045(4) -0.004(3) 0.012(3) -0.003(3)
C9 0.040(4) 0.027(3) 0.038(4) -0.003(3) 0.017(3) 0.001(3)
C10 0.034(4) 0.038(4) 0.035(4) 0.004(3) 0.015(3) 0.005(3)
O1 0.056(3) 0.049(3) 0.050(3) -0.013(2) 0.013(3) 0.017(3)
O2 0.049(3) 0.042(3) 0.057(3) 0.000(2) 0.023(3) -0.008(2)
O3 0.044(3) 0.032(3) 0.044(3) 0.003(2) 0.007(2) 0.001(2)
O4 0.056(3) 0.041(3) 0.048(3) 0.006(2) 0.007(3) -0.009(2)
O5 0.065(4) 0.049(3) 0.094(4) 0.004(3) -0.020(3) -0.001(3)
O6 0.050(4) 0.049(3) 0.137(5) 0.001(4) 0.050(4) 0.014(3)
O7 0.044(3) 0.028(2) 0.044(3) 0.003(2) 0.023(2) 0.008(2)
O8A 0.029(4) 0.045(5) 0.034(4) 0.006(3) 0.010(3) -0.013(4)
O8B 0.029(4) 0.045(5) 0.034(4) 0.006(3) 0.010(3) -0.013(4)
O8C 0.029(4) 0.045(5) 0.034(4) 0.006(3) 0.010(3) -0.013(4)
O9 0.051(3) 0.097(5) 0.043(3) -0.013(3) 0.019(3) 0.023(3)
S1 0.0398(10) 0.0299(9) 0.0390(9) 0.0001(7) 0.0137(8) 0.0024(7)
S2 0.0375(11) 0.0383(11) 0.0776(14) 0.0105(10) 0.0022(11) 0.0007(9)
loop_
_atom_type_symbol
_atom_type_description
_atom_type_scat_dispersion_real
_atom_type_scat_dispersion_imag
_atom_type_scat_source
C C 0.0033 0.0016 'International Tables Vol C Tables 4.2.6.8 and 6.1.1.4'
H H 0.0000 0.0000 'International Tables Vol C Tables 4.2.6.8 and 6.1.1.4'
O O 0.0106 0.0060 'International Tables Vol C Tables 4.2.6.8 and 6.1.1.4'
Pr Pr -0.2180 2.8214 'International Tables Vol C Tables 4.2.6.8 and 6.1.1.4'
S S 0.1246 0.1234 'International Tables Vol C Tables 4.2.6.8 and 6.1.1.4'
loop_
_geom_angle_atom_site_label_1
_geom_angle_atom_site_label_2
_geom_angle_atom_site_label_3
_geom_angle
_geom_angle_site_symmetry_1
_geom_angle_site_symmetry_3
O1 Pr1 Pr1 124.12(14) . 7_657
O1 Pr1 O4 69.08(18) . .
O1 Pr1 O6 134.30(16) . .
O1 Pr1 O7 149.05(18) . 7_657
O1 Pr1 O8A 64.1(4) . .
O1 Pr1 O8B 89.5(3) . .
O1 Pr1 O8C 122.9(4) . .
O1 Pr1 O9 69.44(17) . .
O3 Pr1 Pr1 110.09(12) 7_656 7_657
O3 Pr1 O1 95.72(16) 7_656 .
O3 Pr1 O4 72.95(15) 7_656 .
O3 Pr1 O6 120.36(17) 7_656 .
O3 Pr1 O7 82.37(16) 7_656 7_657
O3 Pr1 O8A 69.7(4) 7_656 .
O3 Pr1 O8B 69.4(2) 7_656 .
O3 Pr1 O8C 72.7(3) 7_656 .
O3 Pr1 O9 140.42(18) 7_656 .
O4 Pr1 Pr1 72.56(12) . 7_657
O4 Pr1 O6 144.01(18) . .
O4 Pr1 O8A 115.0(4) . .
O4 Pr1 O8C 144.6(3) . .
O6 Pr1 Pr1 71.45(13) . 7_657
O6 Pr1 O8A 100.9(4) . .
O6 Pr1 O8C 54.8(3) . .
O7 Pr1 Pr1 34.36(10) . 7_657
O7 Pr1 Pr1 33.61(9) 7_657 7_657
O7 Pr1 O1 93.72(17) . .
O7 Pr1 O3 135.27(16) . 7_656
O7 Pr1 O4 80.98(16) 7_657 .
O7 Pr1 O4 70.01(15) . .
O7 Pr1 O6 69.18(16) 7_657 .
O7 Pr1 O6 80.19(17) . .
O7 Pr1 O7 67.98(16) . 7_657
O7 Pr1 O8A 150.4(4) . .
O7 Pr1 O8A 140.4(4) 7_657 .
O7 Pr1 O8B 118.0(3) 7_657 .
O7 Pr1 O8B 154.4(2) . .
O7 Pr1 O8C 134.1(3) . .
O7 Pr1 O8C 86.2(3) 7_657 .
O7 Pr1 O9 129.08(16) 7_657 .
O7 Pr1 O9 83.48(18) . .
O8A Pr1 Pr1 171.3(4) . 7_657
O8B Pr1 Pr1 145.6(2) . 7_657
O8B Pr1 O4 134.1(2) . .
O8B Pr1 O6 79.5(3) . .
O8C Pr1 Pr1 112.0(3) . 7_657
O9 Pr1 Pr1 108.42(13) . 7_657
O9 Pr1 O4 128.37(18) . .
O9 Pr1 O6 64.89(16) . .
O9 Pr1 O8C 84.9(3) . .
C2 C1 S1 117.1(5) . .
C10 C1 C2 120.6(6) . .
C10 C1 S1 122.0(5) . .
C1 C2 H2 120.0 . .
C3 C2 C1 120.0(6) . .
C3 C2 H2 120.0 . .
C2 C3 H3 119.4 . .
C2 C3 C4 121.1(6) . .
C4 C3 H3 119.4 . .
C5 C4 C3 120.9(6) 6 .
C9 C4 C3 118.4(6) . .
C9 C4 C5 120.7(6) . 6
C4 C5 H5 120.1 6_556 .
C6 C5 C4 119.9(6) . 6_556
C6 C5 H5 120.1 . .
C5 C6 C7 119.1(6) . .
O7 C6 C5 120.6(6) . .
O7 C6 C7 120.3(6) . .
C6 C7 S2 115.3(5) . .
C8 C7 C6 123.3(6) . .
C8 C7 S2 121.3(5) . .
C7 C8 H8 120.8 . .
C7 C8 C9 118.5(6) . 6_556
C9 C8 H8 120.8 6_556 .
C4 C9 C8 118.5(6) . 6
C10 C9 C4 118.9(6) . .
C10 C9 C8 122.6(6) . 6
C1 C10 C9 120.9(6) . .
C1 C10 H10 119.5 . .
C9 C10 H10 119.5 . .
S1 O1 Pr1 152.7(3) . .
S1 O3 Pr1 155.3(3) . 7_656
S2 O4 Pr1 128.6(3) . .
S2 O6 Pr1 127.8(3) 7_657 .
Pr1 O7 Pr1 112.03(16) . 7_657
C6 O7 Pr1 122.3(4) . .
C6 O7 Pr1 118.0(4) . 7_657
Pr1 O8A H8AA 79.7 . .
Pr1 O8A H8AB 96.5 . .
H8AA O8A H8AB 106.5 . .
Pr1 O8B H8BA 153.7 . .
Pr1 O8B H8BB 94.7 . .
H8BA O8B H8BB 107.7 . .
Pr1 O8C H8CA 96.5 . .
Pr1 O8C H8CB 104.0 . .
H8CA O8C H8CB 107.7 . .
Pr1 O9 H9A 111.3 . .
Pr1 O9 H9B 109.9 . .
H9A O9 H9B 108.0 . .
O1 S1 C1 105.7(3) . .
O1 S1 O3 111.3(3) . .
O2 S1 C1 106.9(3) . .
O2 S1 O1 112.8(3) . .
O2 S1 O3 113.1(3) . .
O3 S1 C1 106.5(3) . .
O4 S2 C7 107.4(3) . .
O4 S2 O6 110.0(3) . 7_657
O5 S2 C7 108.9(3) . .
O5 S2 O4 113.5(4) . .
O5 S2 O6 112.4(4) . 7_657
O6 S2 C7 104.1(4) 7_657 .
loop_
_geom_bond_atom_site_label_1
_geom_bond_atom_site_label_2
_geom_bond_distance
_geom_bond_site_symmetry_2
Pr1 Pr1 4.0137(7) 7_657
Pr1 O1 2.416(5) .
Pr1 O3 2.414(4) 7_656
Pr1 O4 2.553(5) .
Pr1 O6 2.593(7) .
Pr1 O7 2.397(4) .
Pr1 O7 2.444(4) 7_657
Pr1 O8A 2.725(17) .
Pr1 O8B 2.462(9) .
Pr1 O8C 2.645(13) .
Pr1 O9 2.513(5) .
C1 C2 1.409(9) .
C1 C10 1.361(9) .
C1 S1 1.763(6) .
C2 H2 0.9300 .
C2 C3 1.340(9) .
C3 H3 0.9300 .
C3 C4 1.435(9) .
C4 C5 1.423(9) 6
C4 C9 1.411(9) .
C5 C4 1.423(9) 6_556
C5 H5 0.9300 .
C5 C6 1.372(9) .
C6 C7 1.388(9) .
C6 O7 1.364(7) .
C7 C8 1.383(9) .
C7 S2 1.772(7) .
C8 H8 0.9300 .
C8 C9 1.422(9) 6_556
C9 C8 1.422(9) 6
C9 C10 1.405(9) .
C10 H10 0.9300 .
O1 S1 1.457(5) .
O2 S1 1.452(5) .
O3 Pr1 2.414(4) 7_656
O3 S1 1.460(5) .
O4 S2 1.452(5) .
O5 S2 1.425(6) .
O6 S2 1.506(6) 7_657
O7 Pr1 2.444(4) 7_657
O8A H8AA 0.9572 .
O8A H8AB 0.9577 .
O8B H8BA 0.9504 .
O8B H8BB 0.9501 .
O8C H8CA 0.9490 .
O8C H8CB 0.9506 .
O9 H9A 0.8768 .
O9 H9B 0.8760 .
S2 O6 1.507(6) 7_657
loop_
_geom_torsion_atom_site_label_1
_geom_torsion_atom_site_label_2
_geom_torsion_atom_site_label_3
_geom_torsion_atom_site_label_4
_geom_torsion
_geom_torsion_site_symmetry_1
_geom_torsion_site_symmetry_4
Pr1 O1 S1 C1 -138.1(7) . .
Pr1 O1 S1 O2 105.5(8) . .
Pr1 O1 S1 O3 -22.9(9) . .
Pr1 O3 S1 C1 -149.8(7) 7_656 .
Pr1 O3 S1 O1 95.5(7) 7_656 .
Pr1 O3 S1 O2 -32.7(8) 7_656 .
Pr1 O4 S2 C7 -48.3(5) . .
Pr1 O4 S2 O5 -168.8(4) . .
Pr1 O4 S2 O6 64.4(5) . 7_657
C1 C2 C3 C4 2.4(12) . .
C2 C1 C10 C9 0.2(10) . .
C2 C1 S1 O1 -55.2(6) . .
C2 C1 S1 O2 65.2(6) . .
C2 C1 S1 O3 -173.6(5) . .
C2 C3 C4 C5 178.3(7) . 6
C2 C3 C4 C9 -3.2(11) . .
C3 C4 C9 C8 -177.8(6) . 6
C3 C4 C9 C10 2.4(10) . .
C4 C5 C6 C7 -1.2(10) 6_556 .
C4 C5 C6 O7 176.4(6) 6_556 .
C4 C9 C10 C1 -1.0(10) . .
C5 C4 C9 C8 0.7(10) 6 6
C5 C4 C9 C10 -179.1(6) 6 .
C5 C6 C7 C8 -1.3(11) . .
C5 C6 C7 S2 176.4(5) . .
C5 C6 O7 Pr1 -101.2(6) . 7_657
C5 C6 O7 Pr1 111.8(6) . .
C6 C7 C8 C9 2.8(11) . 6_556
C6 C7 S2 O4 57.1(6) . .
C6 C7 S2 O5 -179.6(6) . .
C6 C7 S2 O6 -59.5(6) . 7_657
C7 C6 O7 Pr1 76.3(7) . 7_657
C7 C6 O7 Pr1 -70.7(7) . .
C8 C7 S2 O4 -125.1(6) . .
C8 C7 S2 O5 -1.8(8) . .
C8 C7 S2 O6 118.3(6) . 7_657
C8 C9 C10 C1 179.2(7) 6 .
C10 C1 C2 C3 -0.9(11) . .
C10 C1 S1 O1 132.0(6) . .
C10 C1 S1 O2 -107.6(6) . .
C10 C1 S1 O3 13.6(7) . .
O7 C6 C7 C8 -178.9(6) . .
O7 C6 C7 S2 -1.1(9) . .
S1 C1 C2 C3 -173.9(6) . .
S1 C1 C10 C9 172.8(5) . .
S2 C7 C8 C9 -174.9(5) . 6_556
