#------------------------------------------------------------------------------
#$Date: 2016-02-05 00:51:38 +0200 (Fri, 05 Feb 2016) $
#$Revision: 175998 $
#$URL: svn://www.crystallography.net/cod/cif/7/03/73/7037363.cif $
#------------------------------------------------------------------------------
#
# This file is available in the Crystallography Open Database (COD),
# http://www.crystallography.net/
#
# All data on this site have been placed in the public domain by the
# contributors.
#
data_7037363
loop_
_publ_author_name
'D'Vries, Richard F'
'Gomez, German E.'
'Hodak, Jos\'e H'
'Soler-Illia, Galo J A A'
'Ellena, Javier'
_publ_section_title
;
 Tuning the structure, dimensionality and luminescent properties of
 lanthanide metal-organic frameworks under ancillary ligand influence.
;
_journal_issue                   2
_journal_name_full
'Dalton transactions (Cambridge, England : 2003)'
_journal_page_first              646
_journal_page_last               656
_journal_paper_doi               10.1039/c5dt04033g
_journal_volume                  45
_journal_year                    2015
_chemical_formula_moiety         'C10 H8.98 La O8.99 S2'
_chemical_formula_sum            'C10 H8.98 La O8.99 S2'
_chemical_formula_weight         476.02
_space_group_crystal_system      monoclinic
_space_group_IT_number           15
_space_group_name_Hall           '-C 2yc'
_space_group_name_H-M_alt        'C 1 2/c 1'
_symmetry_space_group_name_Hall  '-C 2yc'
_symmetry_space_group_name_H-M   'C 1 2/c 1'
_atom_sites_solution_hydrogens   mixed
_audit_creation_date             2015-11-10
_audit_creation_method
;
Olex2 1.2
(compiled 2015.09.30 svn.r3233 for OlexSys, GUI svn.r5103)
;
_audit_update_record
;
2015-11-12 deposited with the CCDC.
2015-11-20 downloaded from the CCDC.
;
_cell_angle_alpha                90
_cell_angle_beta                 118.3200(10)
_cell_angle_gamma                90
_cell_formula_units_Z            8
_cell_length_a                   17.6665(5)
_cell_length_b                   22.7226(6)
_cell_length_c                   8.5749(3)
_cell_measurement_temperature    293(2)
_cell_volume                     3030.22(16)
_computing_cell_refinement       'HKL Scalepack (Otwinowski & Minor 1997)'
_computing_data_collection       'Collect (Bruker AXS BV, 1997-2004)'
_computing_data_reduction
'HKL Denzo and Scalepack (Otwinowski & Minor 1997)'
_computing_molecular_graphics    'Olex2 (Dolomanov et al., 2009)'
_computing_publication_material  'Olex2 (Dolomanov et al., 2009)'
_computing_structure_refinement  'ShelXL (Sheldrick, 2015)'
_computing_structure_solution    'SHELXS-2013 (Sheldrick, 2013)'
_diffrn_ambient_temperature      293
_diffrn_detector_area_resol_mean 9
_diffrn_measured_fraction_theta_full 0.999
_diffrn_measured_fraction_theta_max 0.997
_diffrn_measurement_device_type  KappaCCD
_diffrn_measurement_method       'CCD rotation images, thick slices'
_diffrn_radiation_type           MoK\a
_diffrn_radiation_wavelength     0.71073
_diffrn_reflns_av_R_equivalents  0.0364
_diffrn_reflns_av_unetI/netI     0.0675
_diffrn_reflns_laue_measured_fraction_full 0.999
_diffrn_reflns_laue_measured_fraction_max 0.997
_diffrn_reflns_limit_h_max       22
_diffrn_reflns_limit_h_min       -21
_diffrn_reflns_limit_k_max       28
_diffrn_reflns_limit_k_min       -28
_diffrn_reflns_limit_l_max       10
_diffrn_reflns_limit_l_min       -10
_diffrn_reflns_number            6036
_diffrn_reflns_point_group_measured_fraction_full 0.999
_diffrn_reflns_point_group_measured_fraction_max 0.997
_diffrn_reflns_theta_full        25.242
_diffrn_reflns_theta_max         26.325
_diffrn_reflns_theta_min         2.991
_diffrn_source                   'Enraf Nonius FR590'
_exptl_absorpt_coefficient_mu    3.136
_exptl_absorpt_correction_type   none
_exptl_crystal_colour            Colourless
_exptl_crystal_colour_modifier   light
_exptl_crystal_colour_primary    green
_exptl_crystal_density_diffrn    2.087
_exptl_crystal_description       block
_exptl_crystal_F_000             1839
_exptl_crystal_preparation       Luminescent
_exptl_crystal_size_max          0.028
_exptl_crystal_size_mid          0.018
_exptl_crystal_size_min          0.015
_refine_diff_density_max         1.713
_refine_diff_density_min         -0.988
_refine_diff_density_rms         0.153
_refine_ls_extinction_method     none
_refine_ls_goodness_of_fit_ref   0.931
_refine_ls_hydrogen_treatment    constr
_refine_ls_matrix_type           full
_refine_ls_number_parameters     206
_refine_ls_number_reflns         3080
_refine_ls_number_restraints     0
_refine_ls_restrained_S_all      0.931
_refine_ls_R_factor_all          0.0667
_refine_ls_R_factor_gt           0.0433
_refine_ls_shift/su_max          0.001
_refine_ls_shift/su_mean         0.000
_refine_ls_structure_factor_coef Fsqd
_refine_ls_weighting_details
'w=1/[\s^2^(Fo^2^)+(0.0631P)^2^] where P=(Fo^2^+2Fc^2^)/3'
_refine_ls_weighting_scheme      calc
_refine_ls_wR_factor_gt          0.1021
_refine_ls_wR_factor_ref         0.1071
_reflns_Friedel_coverage         0.000
_reflns_number_gt                2044
_reflns_number_total             3080
_reflns_threshold_expression     'I > 2\s(I)'
_cod_data_source_file            c5dt04033g2.cif
_cod_data_source_block           Compound1
_cod_depositor_comments
'Adding full bibliography for 7037363--7037371.cif.'
_cod_database_code               7037363
_shelx_space_group_comment
;
The symmetry employed for this shelxl refinement is uniquely defined
by the following loop, which should always be used as a source of
symmetry information in preference to the above space-group names.
They are only intended as comments.
;
_shelx_estimated_absorpt_t_max   0.954
_shelx_estimated_absorpt_t_min   0.917
_olex2_refinement_description
;
1. Fixed Uiso
 At 1.2 times of:
  All C(H) groups
 At 1.5 times of:
  All O(H,H) groups
2. Uiso/Uaniso restraints and constraints
Uanis(O8A) = Uanis(O8B) = Uanis(O8C)
3. Others
 Fixed Sof: O8A(0.33) H8AA(0.33) H8AB(0.33) O8B(0.33) H8BA(0.33) H8BB(0.33)
 O8C(0.33) H8CA(0.33) H8CB(0.33)
4.a Riding coordinates:
 O8A(H8AA,H8AB), O8B(H8BA,H8BB), O8C(H8CA,H8CB)
4.b Rotating group:
 O9(H9A,H9B)
4.c Aromatic/amide H refined with riding coordinates:
 C2(H2), C3(H3), C5(H5), C8(H8), C10(H10)
;
_shelx_res_file
;
    shelx_sq.res created by SHELXL-2014/7

TITL shelx in C2/c
CELL 0.71073 17.6665 22.7226 8.5749 90 118.32 90
ZERR 8 0.0005 0.0006 0.0003 0 0.001 0
LATT 7
SYMM -X,+Y,0.5-Z
SFAC C H La O S
UNIT 80 71.84 8 71.92 16
EADP O8A O8B O8C

L.S. 10
PLAN  20
SIZE 0.015 0.018 0.028
TEMP 19.85
ABIN
MORE -1
BOND $H
CONF
fmap 2
acta
MERG 2
REM <olex2.extras>
REM <HklSrc "%.\\shelx_sq.hkl">
REM </olex2.extras>

WGHT    0.063100
FVAR       0.04694
LA1   3    0.818298    0.266287    0.866396    11.00000    0.03794    0.03596 =
         0.03740    0.00375    0.01900    0.00462
C1    1    0.841198    0.082842    0.587551    11.00000    0.04629    0.02833 =
         0.04267   -0.00031    0.02679   -0.00132
C2    1    0.904505    0.056967    0.743493    11.00000    0.04732    0.03533 =
         0.03299   -0.00152    0.00959   -0.00153
AFIX  43
H2    2    0.944735    0.080495    0.833328    11.00000   -1.20000
AFIX   0
C3    1    0.907167   -0.002599    0.763603    11.00000    0.04786    0.03785 =
         0.03601    0.00460    0.00890   -0.00144
AFIX  43
H3    2    0.949506   -0.019438    0.867234    11.00000   -1.20000
AFIX   0
C4    1    0.846264   -0.039228    0.628672    11.00000    0.04552    0.03026 =
         0.03817    0.00250    0.02269   -0.00191
C5    1    0.849201    0.101086    1.148267    11.00000    0.04278    0.03643 =
         0.03505   -0.00485    0.01693   -0.00027
AFIX  43
H5    2    0.893376    0.118239    1.248693    11.00000   -1.20000
AFIX   0
C6    1    0.787765    0.136046    1.021113    11.00000    0.04003    0.03132 =
         0.04560    0.00625    0.02737    0.00239
C7    1    0.722157    0.109568    0.868163    11.00000    0.03344    0.03231 =
         0.04379    0.00286    0.01339   -0.00113
C8    1    0.718300    0.049687    0.840867    11.00000    0.03839    0.03391 =
         0.04316   -0.00355    0.01004   -0.00092
AFIX  43
H8    2    0.675272    0.033530    0.736848    11.00000   -1.20000
AFIX   0
C9    1    0.781332   -0.012482    0.474512    11.00000    0.03600    0.03137 =
         0.03923   -0.00122    0.01675    0.00003
C10   1    0.780170    0.049129    0.454752    11.00000    0.03972    0.03412 =
         0.04293    0.00445    0.01950    0.00241
AFIX  43
H10   2    0.738265    0.066827    0.352258    11.00000   -1.20000
AFIX   0
O1    4    0.855688    0.186638    0.719839    11.00000    0.06154    0.04729 =
         0.04611   -0.01305    0.01703    0.01130
O2    4    0.925976    0.167724    0.542453    11.00000    0.04711    0.04453 =
         0.06276    0.00379    0.02394   -0.00837
O3    4    0.729454    0.323551    0.597171    11.00000    0.04454    0.03504 =
         0.04231    0.00436    0.00717   -0.00023
O4    4    0.684670    0.202149    0.665310    11.00000    0.05493    0.04190 =
         0.04835    0.00565    0.00613   -0.00566
O5    4    0.581094    0.122693    0.569592    11.00000    0.05872    0.04368 =
         0.08676   -0.01022   -0.01723    0.00050
O6    4    0.897080    0.316162    1.180032    11.00000    0.04901    0.03853 =
         0.10847   -0.00847    0.03460    0.00848
O7    4    0.787337    0.195268    1.042442    11.00000    0.04512    0.02729 =
         0.04808   -0.00041    0.02485    0.00222
O9    4    0.974096    0.232773    1.054845    11.00000    0.04613    0.07934 =
         0.04561   -0.01137    0.01919    0.01095
AFIX   7
H9A   2    1.005876    0.261762    1.121846    11.00000   -1.50000
H9B   2    0.995886    0.221383    0.986516    11.00000   -1.50000
AFIX   0
S1    5    0.849054    0.158891    0.559688    11.00000    0.04525    0.02821 =
         0.03827   -0.00147    0.01550    0.00025
S2    5    0.642168    0.157003    0.717248    11.00000    0.04078    0.03299 =
         0.06917    0.00127    0.00482    0.00110
PART 1
O8A   4    0.912790    0.300288    0.708377    10.33000    0.02232    0.03153 =
         0.02298    0.00542    0.00482   -0.01027
AFIX   3
H8AA  2    0.864970    0.300728    0.596237    10.33000   -1.50000
H8AB  2    0.939020    0.263658    0.723317    10.33000   -1.50000
AFIX   0
PART 0
PART 2
O8B   4    0.908320    0.337754    0.798422    10.33000    0.02232    0.03153 =
         0.02298    0.00542    0.00482   -0.01027
AFIX   3
H8BA  2    0.905200    0.371254    0.733631    10.33000   -1.50000
H8BB  2    0.962800    0.337084    0.897482    10.33000   -1.50000
AFIX   0
PART 0
PART 3
O8C   4    0.884973    0.374799    0.919670    10.33000    0.02232    0.03153 =
         0.02298    0.00542    0.00482   -0.01027
AFIX   3
H8CA  2    0.924763    0.368489    1.037650    10.33000   -1.50000
H8CB  2    0.838563    0.394819    0.916410    10.33000   -1.50000
AFIX   0
HKLF 4

REM  shelx in C2/c
REM R1 =  0.0433 for    2044 Fo > 4sig(Fo)  and  0.0667 for all    3080 data
REM    206 parameters refined using      0 restraints

END

WGHT      0.0631      0.0000

REM Highest difference peak  1.713,  deepest hole -0.988,  1-sigma level  0.153
Q1    1   0.8142  0.2001  0.8609  11.00000  0.05    1.71
Q2    1   0.9519  0.2351  0.5966  11.00000  0.05    1.62
Q3    1   0.7810  0.1584  1.1579  11.00000  0.05    0.80
Q4    1   0.9300  0.3093  0.7953  11.00000  0.05    0.74
Q5    1   0.9874  0.3434  1.2993  11.00000  0.05    0.73
Q6    1   0.7791  0.3438  0.4596  11.00000  0.05    0.69
Q7    1   0.9079  0.3571  0.8431  11.00000  0.05    0.69
Q8    1   0.8528  0.3723  0.5723  11.00000  0.05    0.65
Q9    1   0.8570  0.1868  1.2819  11.00000  0.05    0.63
Q10   1   0.9966  0.1535  1.0138  11.00000  0.05    0.62
Q11   1   0.8494  0.3692  0.8895  11.00000  0.05    0.61
Q12   1   0.8620  0.1202  1.2709  11.00000  0.05    0.57
Q13   1   0.8887  0.3987  0.8984  11.00000  0.05    0.53
Q14   1   0.7155  0.1692  0.9658  11.00000  0.05    0.50
Q15   1   0.8994  0.3400  0.7222  11.00000  0.05    0.47
Q16   1   0.7813  0.2131  0.9541  11.00000  0.05    0.44
Q17   1   0.9488  0.2055  1.0734  11.00000  0.05    0.44
Q18   1   0.8863  0.1640  0.9618  11.00000  0.05    0.44
Q19   1   0.8122  0.2695  1.0391  11.00000  0.05    0.43
Q20   1   0.9932  0.3140  1.0146  11.00000  0.05    0.41
;
_shelx_res_checksum              92971
_shelx_fab_checksum              13332
_shelx_fab_file
;
    4    0    0     24.32      0.00
    6    0    0      7.49      0.00
    8    0    0      0.74      0.00
   10    0    0     -0.77      0.00
   12    0    0      0.43      0.00
   14    0    0      1.40      0.00
   16    0    0      0.59      0.00
   18    0    0      0.37      0.00
    3    1    0    -34.61      0.00
    5    1    0    -13.77      0.00
    7    1    0     -3.08      0.00
    9    1    0      0.38      0.00
   11    1    0      0.31      0.00
   13    1    0     -1.09      0.00
   15    1    0     -1.02      0.00
   17    1    0     -0.18      0.00
   19    1    0     -0.75      0.00
    2    2    0     39.69      0.00
    4    2    0     19.97      0.00
    6    2    0      6.26      0.00
    8    2    0      0.85      0.00
   10    2    0     -0.42      0.00
   12    2    0      0.41      0.00
   14    2    0      1.06      0.00
   16    2    0      0.29      0.00
   18    2    0      0.08      0.00
    1    3    0    -36.17      0.00
    3    3    0    -22.87      0.00
    5    3    0     -9.16      0.00
    7    3    0     -2.37      0.00
    9    3    0     -0.20      0.00
   11    3    0     -0.06      0.00
   13    3    0     -0.70      0.00
   15    3    0     -0.43      0.00
   17    3    0      0.24      0.00
   19    3    0     -0.14      0.00
    0    4    0     25.10      0.00
    2    4    0     19.93      0.00
    4    4    0     10.00      0.00
    6    4    0      3.40      0.00
    8    4    0      1.01      0.00
   10    4    0      0.34      0.00
   12    4    0      0.42      0.00
   14    4    0      0.40      0.00
   16    4    0     -0.21      0.00
   18    4    0     -0.40      0.00
    1    5    0    -11.62      0.00
    3    5    0     -7.30      0.00
    5    5    0     -3.06      0.00
    7    5    0     -1.29      0.00
    9    5    0     -0.84      0.00
   11    5    0     -0.59      0.00
   13    5    0     -0.37      0.00
   15    5    0      0.07      0.00
   17    5    0      0.50      0.00
   19    5    0      0.39      0.00
    0    6    0      1.67      0.00
    2    6    0      1.33      0.00
    4    6    0      0.74      0.00
    6    6    0      0.61      0.00
    8    6    0      0.92      0.00
   10    6    0      1.00      0.00
   12    6    0      0.62      0.00
   14    6    0      0.11      0.00
   16    6    0     -0.32      0.00
   18    6    0     -0.52      0.00
    1    7    0      5.40      0.00
    3    7    0      3.29      0.00
    5    7    0      1.12      0.00
    7    7    0     -0.27      0.00
    9    7    0     -1.08      0.00
   11    7    0     -1.08      0.00
   13    7    0     -0.46      0.00
   15    7    0      0.05      0.00
   17    7    0      0.35      0.00
    0    8    0     -9.61      0.00
    2    8    0     -7.47      0.00
    4    8    0     -3.56      0.00
    6    8    0     -0.95      0.00
    8    8    0      0.53      0.00
   10    8    0      1.30      0.00
   12    8    0      0.99      0.00
   14    8    0      0.30      0.00
   16    8    0     -0.11      0.00
   18    8    0     -0.34      0.00
    1    9    0      9.68      0.00
    3    9    0      5.81      0.00
    5    9    0      2.29      0.00
    7    9    0      0.45      0.00
    9    9    0     -0.92      0.00
   11    9    0     -1.39      0.00
   13    9    0     -0.76      0.00
   15    9    0     -0.11      0.00
   17    9    0      0.23      0.00
    0   10    0     -8.75      0.00
    2   10    0     -6.68      0.00
    4   10    0     -3.22      0.00
    6   10    0     -1.31      0.00
    8   10    0      0.05      0.00
   10   10    0      1.27      0.00
   12   10    0      1.22      0.00
   14   10    0      0.37      0.00
   16   10    0     -0.20      0.00
   18   10    0     -0.38      0.00
    1   11    0      5.48      0.00
    3   11    0      3.20      0.00
    5   11    0      1.61      0.00
    7   11    0      0.78      0.00
    9   11    0     -0.59      0.00
   11   11    0     -1.34      0.00
   13   11    0     -0.67      0.00
   15   11    0      0.23      0.00
   17   11    0      0.58      0.00
    0   12    0     -2.75      0.00
    2   12    0     -1.98      0.00
    4   12    0     -1.11      0.00
    6   12    0     -1.03      0.00
    8   12    0     -0.25      0.00
   10   12    0      0.97      0.00
   12   12    0      0.86      0.00
   14   12    0     -0.20      0.00
   16   12    0     -0.85      0.00
    1   13    0     -0.06      0.00
    3   13    0     -0.10      0.00
    5   13    0      0.52      0.00
    7   13    0      0.71      0.00
    9   13    0     -0.28      0.00
   11   13    0     -0.77      0.00
   13   13    0      0.12      0.00
   15   13    0      1.07      0.00
   17   13    0      1.12      0.00
    0   14    0      1.98      0.00
    2   14    0      1.64      0.00
    4   14    0      0.56      0.00
    6   14    0     -0.46      0.00
    8   14    0     -0.25      0.00
   10   14    0      0.39      0.00
   12   14    0     -0.08      0.00
   14   14    0     -1.16      0.00
   16   14    0     -1.45      0.00
    1   15    0     -2.89      0.00
    3   15    0     -1.78      0.00
    5   15    0     -0.34      0.00
    7   15    0      0.24      0.00
    9   15    0     -0.03      0.00
   11   15    0      0.17      0.00
   13   15    0      1.13      0.00
   15   15    0      1.66      0.00
    0   16    0      3.31      0.00
    2   16    0      2.63      0.00
    4   16    0      1.25      0.00
    6   16    0      0.30      0.00
    8   16    0      0.05      0.00
   10   16    0     -0.24      0.00
   12   16    0     -1.06      0.00
   14   16    0     -1.70      0.00
   16   16    0     -1.33      0.00
    1   17    0     -2.78      0.00
    3   17    0     -1.79      0.00
    5   17    0     -0.92      0.00
    7   17    0     -0.52      0.00
    9   17    0      0.02      0.00
   11   17    0      0.92      0.00
   13   17    0      1.60      0.00
   15   17    0      1.42      0.00
    0   18    0      2.18      0.00
    2   18    0      1.73      0.00
    4   18    0      1.16      0.00
    6   18    0      1.05      0.00
    8   18    0      0.58      0.00
   10   18    0     -0.53      0.00
   12   18    0     -1.41      0.00
   14   18    0     -1.39      0.00
    1   19    0     -1.12      0.00
    3   19    0     -0.82      0.00
    5   19    0     -1.12      0.00
    7   19    0     -1.26      0.00
    9   19    0     -0.23      0.00
   11   19    0      1.04      0.00
   13   19    0      1.28      0.00
    0   20    0      0.22      0.00
    2   20    0      0.10      0.00
    4   20    0      0.52      0.00
    6   20    0      1.44      0.00
    8   20    0      1.14      0.00
   10   20    0     -0.33      0.00
   12   20    0     -1.08      0.00
    1   21    0      0.66      0.00
    3   21    0      0.42      0.00
    5   21    0     -0.82      0.00
    7   21    0     -1.63      0.00
    9   21    0     -0.63      0.00
   11   21    0      0.65      0.00
   13   21    0      0.65      0.00
    0   22    0     -1.24      0.00
    2   22    0     -1.21      0.00
    4   22    0     -0.30      0.00
    6   22    0      1.28      0.00
    8   22    0      1.40      0.00
   10   22    0      0.08      0.00
   12   22    0     -0.57      0.00
    1   23    0      1.54      0.00
    3   23    0      1.24      0.00
    5   23    0     -0.23      0.00
    7   23    0     -1.45      0.00
    9   23    0     -0.85      0.00
   11   23    0      0.25      0.00
    0   24    0     -1.46      0.00
    2   24    0     -1.51      0.00
    4   24    0     -0.81      0.00
    6   24    0      0.73      0.00
    8   24    0      1.20      0.00
   10   24    0      0.28      0.00
    1   25    0      1.17      0.00
    3   25    0      1.19      0.00
    5   25    0      0.23      0.00
    7   25    0     -0.88      0.00
    9   25    0     -0.70      0.00
    0   26    0     -0.58      0.00
    2   26    0     -0.82      0.00
    4   26    0     -0.73      0.00
    6   26    0      0.17      0.00
    1   27    0      0.10      0.00
    3   27    0      0.51      0.00
    5   27    0      0.35      0.00
    0   28    0      0.50      0.00
    2   28    0      0.14      0.00
  -19    1    1     -0.41      0.00
  -17    1    1     -0.40      0.00
  -15    1    1     -0.32      0.00
  -13    1    1     -0.77      0.00
  -11    1    1     -1.55      0.00
   -9    1    1     -2.42      0.00
   -7    1    1     -3.48      0.00
   -5    1    1     -3.45      0.00
   -3    1    1     -1.21      0.00
    1    1    1      1.62      0.00
    3    1    1      0.46      0.00
    5    1    1     -0.41      0.00
    7    1    1     -0.82      0.00
    9    1    1     -0.85      0.00
   11    1    1     -0.43      0.00
   13    1    1     -0.17      0.00
   15    1    1     -0.37      0.00
   17    1    1     -0.47      0.00
  -20    2    1      0.51      0.00
  -18    2    1      0.79      0.00
  -16    2    1      0.57      0.00
  -14    2    1      0.86      0.00
  -12    2    1      2.15      0.00
  -10    2    1      3.66      0.00
   -8    2    1      5.54      0.00
   -6    2    1      7.00      0.00
   -4    2    1      4.90      0.00
   -2    2    1     -0.25      0.00
    0    2    1     -3.16      0.00
    2    2    1     -1.99      0.00
    4    2    1      0.05      0.00
    6    2    1      1.14      0.00
    8    2    1      1.61      0.00
   10    2    1      1.21      0.00
   12    2    1      0.42      0.00
   14    2    1      0.44      0.00
   16    2    1      0.85      0.00
   18    2    1      0.72      0.00
  -19    3    1     -0.84      0.00
  -17    3    1     -0.84      0.00
  -15    3    1     -0.72      0.00
  -13    3    1     -1.92      0.00
  -11    3    1     -3.89      0.00
   -9    3    1     -6.05      0.00
   -7    3    1     -8.73      0.00
   -5    3    1     -8.89      0.00
   -3    3    1     -3.56      0.00
   -1    3    1      2.63      0.00
    1    3    1      3.67      0.00
    3    3    1      1.18      0.00
    5    3    1     -0.76      0.00
    7    3    1     -1.76      0.00
    9    3    1     -1.92      0.00
   11    3    1     -0.97      0.00
   13    3    1     -0.39      0.00
   15    3    1     -0.89      0.00
   17    3    1     -1.09      0.00
  -20    4    1      0.51      0.00
  -18    4    1      0.87      0.00
  -16    4    1      0.65      0.00
  -14    4    1      1.26      0.00
  -12    4    1      3.30      0.00
  -10    4    1      5.53      0.00
   -8    4    1      8.34      0.00
   -6    4    1     10.79      0.00
   -4    4    1      8.15      0.00
   -2    4    1      0.78      0.00
    0    4    1     -3.78      0.00
    2    4    1     -2.68      0.00
    4    4    1     -0.26      0.00
    6    4    1      1.14      0.00
    8    4    1      1.95      0.00
   10    4    1      1.54      0.00
   12    4    1      0.52      0.00
   14    4    1      0.63      0.00
   16    4    1      1.18      0.00
   18    4    1      0.99      0.00
  -19    5    1     -0.54      0.00
  -17    5    1     -0.59      0.00
  -15    5    1     -0.65      0.00
  -13    5    1     -2.20      0.00
  -11    5    1     -4.44      0.00
   -9    5    1     -6.76      0.00
   -7    5    1     -9.92      0.00
   -5    5    1    -10.75      0.00
   -3    5    1     -5.55      0.00
   -1    5    1      1.23      0.00
    1    5    1      3.12      0.00
    3    5    1      1.44      0.00
    5    5    1     -0.03      0.00
    7    5    1     -1.10      0.00
    9    5    1     -1.54      0.00
   11    5    1     -0.77      0.00
   13    5    1     -0.35      0.00
   15    5    1     -0.93      0.00
   17    5    1     -1.11      0.00
  -18    6    1      0.35      0.00
  -16    6    1      0.31      0.00
  -14    6    1      1.10      0.00
  -12    6    1      3.04      0.00
  -10    6    1      4.93      0.00
   -8    6    1      7.38      0.00
   -6    6    1     10.09      0.00
   -4    6    1      8.84      0.00
   -2    6    1      3.04      0.00
    0    6    1     -1.43      0.00
    2    6    1     -1.86      0.00
    4    6    1     -1.05      0.00
    6    6    1     -0.29      0.00
    8    6    1      0.63      0.00
   10    6    1      0.67      0.00
   12    6    1      0.17      0.00
   14    6    1      0.49      0.00
   16    6    1      0.97      0.00
  -19    7    1     -0.02      0.00
  -17    7    1     -0.11      0.00
  -15    7    1     -0.38      0.00
  -13    7    1     -1.68      0.00
  -11    7    1     -3.25      0.00
   -9    7    1     -4.71      0.00
   -7    7    1     -7.17      0.00
   -5    7    1     -8.85      0.00
   -3    7    1     -6.50      0.00
   -1    7    1     -1.95      0.00
    1    7    1      0.70      0.00
    3    7    1      1.42      0.00
    5    7    1      1.54      0.00
    7    7    1      0.88      0.00
    9    7    1      0.15      0.00
   11    7    1      0.15      0.00
   13    7    1     -0.04      0.00
   15    7    1     -0.62      0.00
   17    7    1     -0.76      0.00
  -18    8    1     -0.04      0.00
  -16    8    1      0.11      0.00
  -14    8    1      0.74      0.00
  -12    8    1      1.86      0.00
  -10    8    1      2.70      0.00
   -8    8    1      3.92      0.00
   -6    8    1      6.14      0.00
   -4    8    1      7.06      0.00
   -2    8    1      5.01      0.00
    0    8    1      1.84      0.00
    2    8    1     -0.58      0.00
    4    8    1     -2.05      0.00
    6    8    1     -2.28      0.00
    8    8    1     -1.52      0.00
   10    8    1     -0.91      0.00
   12    8    1     -0.47      0.00
   14    8    1      0.18      0.00
   16    8    1      0.55      0.00
  -19    9    1      0.10      0.00
  -17    9    1     -0.10      0.00
  -15    9    1     -0.38      0.00
  -13    9    1     -0.94      0.00
  -11    9    1     -1.41      0.00
   -9    9    1     -1.67      0.00
   -7    9    1     -2.78      0.00
   -5    9    1     -4.79      0.00
   -3    9    1     -5.71      0.00
   -1    9    1     -4.28      0.00
    1    9    1     -1.32      0.00
    3    9    1      1.53      0.00
    5    9    1      2.96      0.00
    7    9    1      2.79      0.00
    9    9    1      2.02      0.00
   11    9    1      1.23      0.00
   13    9    1      0.35      0.00
   15    9    1     -0.25      0.00
   17    9    1     -0.43      0.00
  -18   10    1      0.18      0.00
  -16   10    1      0.47      0.00
  -14   10    1      0.64      0.00
  -12   10    1      0.70      0.00
  -10   10    1      0.54      0.00
   -8   10    1      0.51      0.00
   -6   10    1      1.62      0.00
   -4   10    1      3.78      0.00
   -2   10    1      4.89      0.00
    0   10    1      3.21      0.00
    2   10    1     -0.20      0.00
    4   10    1     -2.75      0.00
    6   10    1     -3.40      0.00
    8   10    1     -2.98      0.00
   10   10    1     -2.15      0.00
   12   10    1     -1.04      0.00
   14   10    1     -0.14      0.00
   16   10    1      0.21      0.00
  -17   11    1     -0.69      0.00
  -15   11    1     -0.85      0.00
  -13   11    1     -0.56      0.00
  -11   11    1     -0.14      0.00
   -9   11    1      0.34      0.00
   -7   11    1      0.50      0.00
   -5   11    1     -0.82      0.00
   -3   11    1     -3.20      0.00
   -1   11    1     -3.74      0.00
    1   11    1     -1.18      0.00
    3   11    1      1.92      0.00
    5   11    1      3.22      0.00
    7   11    1      3.25      0.00
    9   11    1      2.83      0.00
   11   11    1      1.81      0.00
   13   11    1      0.65      0.00
   15   11    1      0.06      0.00
  -18   12    1      0.83      0.00
  -16   12    1      1.25      0.00
  -14   12    1      0.94      0.00
  -12   12    1      0.19      0.00
  -10   12    1     -0.36      0.00
   -8   12    1     -0.99      0.00
   -6   12    1     -1.16      0.00
   -4   12    1      0.46      0.00
   -2   12    1      2.44      0.00
    0   12    1      1.68      0.00
    2   12    1     -1.07      0.00
    4   12    1     -2.65      0.00
    6   12    1     -2.78      0.00
    8   12    1     -2.79      0.00
   10   12    1     -2.35      0.00
   12   12    1     -1.23      0.00
   14   12    1     -0.40      0.00
   16   12    1     -0.06      0.00
  -17   13    1     -1.49      0.00
  -15   13    1     -1.55      0.00
  -13   13    1     -0.65      0.00
  -11   13    1      0.14      0.00
   -9   13    1      0.58      0.00
   -7   13    1      1.39      0.00
   -5   13    1      1.45      0.00
   -3   13    1     -0.15      0.00
   -1   13    1     -0.91      0.00
    1   13    1      0.74      0.00
    3   13    1      2.22      0.00
    5   13    1      2.07      0.00
    7   13    1      1.97      0.00
    9   13    1      2.22      0.00
   11   13    1      1.65      0.00
   13   13    1      0.75      0.00
   15   13    1      0.34      0.00
  -16   14    1      2.01      0.00
  -14   14    1      1.41      0.00
  -12   14    1      0.24      0.00
  -10   14    1     -0.16      0.00
   -8   14    1     -0.58      0.00
   -6   14    1     -1.60      0.00
   -4   14    1     -1.55      0.00
   -2   14    1     -0.60      0.00
    0   14    1     -1.08      0.00
    2   14    1     -2.20      0.00
    4   14    1     -1.71      0.00
    6   14    1     -0.87      0.00
    8   14    1     -1.30      0.00
   10   14    1     -1.60      0.00
   12   14    1     -1.00      0.00
   14   14    1     -0.54      0.00
  -17   15    1     -2.00      0.00
  -15   15    1     -2.14      0.00
  -13   15    1     -0.92      0.00
  -11   15    1     -0.05      0.00
   -9   15    1     -0.11      0.00
   -7   15    1      0.58      0.00
   -5   15    1      1.73      0.00
   -3   15    1      1.77      0.00
   -1   15    1      1.75      0.00
    1   15    1      2.45      0.00
    3   15    1      1.92      0.00
    5   15    1      0.23      0.00
    7   15    1     -0.03      0.00
    9   15    1      0.88      0.00
   11   15    1      0.97      0.00
   13   15    1      0.60      0.00
   15   15    1      0.53      0.00
  -16   16    1      2.41      0.00
  -14   16    1      1.80      0.00
  -12   16    1      0.40      0.00
  -10   16    1      0.22      0.00
   -8   16    1      0.37      0.00
   -6   16    1     -0.73      0.00
   -4   16    1     -1.85      0.00
   -2   16    1     -2.15      0.00
    0   16    1     -2.59      0.00
    2   16    1     -2.35      0.00
    4   16    1     -0.39      0.00
    6   16    1      1.02      0.00
    8   16    1      0.33      0.00
   10   16    1     -0.52      0.00
   12   16    1     -0.46      0.00
   14   16    1     -0.49      0.00
  -15   17    1     -2.43      0.00
  -13   17    1     -1.16      0.00
  -11   17    1     -0.17      0.00
   -9   17    1     -0.55      0.00
   -7   17    1     -0.35      0.00
   -5   17    1      0.99      0.00
   -3   17    1      1.91      0.00
   -1   17    1      2.34      0.00
    1   17    1      2.45      0.00
    3   17    1      1.00      0.00
    5   17    1     -1.15      0.00
    7   17    1     -1.43      0.00
    9   17    1     -0.34      0.00
   11   17    1      0.12      0.00
   13   17    1      0.21      0.00
  -14   18    1      2.02      0.00
  -12   18    1      0.57      0.00
  -10   18    1      0.26      0.00
   -8   18    1      0.69      0.00
   -6   18    1      0.01      0.00
   -4   18    1     -1.16      0.00
   -2   18    1     -1.73      0.00
    0   18    1     -1.99      0.00
    2   18    1     -1.36      0.00
    4   18    1      0.58      0.00
    6   18    1      1.85      0.00
    8   18    1      1.28      0.00
   10   18    1      0.46      0.00
   12   18    1      0.21      0.00
  -15   19    1     -2.40      0.00
  -13   19    1     -1.42      0.00
  -11   19    1     -0.29      0.00
   -9   19    1     -0.42      0.00
   -7   19    1     -0.46      0.00
   -5   19    1      0.40      0.00
   -3   19    1      1.05      0.00
   -1   19    1      1.22      0.00
    1   19    1      1.10      0.00
    3   19    1      0.01      0.00
    5   19    1     -1.51      0.00
    7   19    1     -1.81      0.00
    9   19    1     -1.14      0.00
   11   19    1     -0.71      0.00
   13   19    1     -0.27      0.00
  -14   20    1      2.11      0.00
  -12   20    1      0.94      0.00
  -10   20    1      0.28      0.00
   -8   20    1      0.36      0.00
   -6   20    1     -0.01      0.00
   -4   20    1     -0.58      0.00
   -2   20    1     -0.63      0.00
    0   20    1     -0.48      0.00
    2   20    1     -0.10      0.00
    4   20    1      0.89      0.00
    6   20    1      1.70      0.00
    8   20    1      1.64      0.00
   10   20    1      1.25      0.00
   12   20    1      0.81      0.00
  -13   21    1     -1.73      0.00
  -11   21    1     -0.73      0.00
   -9   21    1     -0.28      0.00
   -7   21    1     -0.03      0.00
   -5   21    1      0.41      0.00
   -3   21    1      0.46      0.00
   -1   21    1      0.07      0.00
    1   21    1     -0.22      0.00
    3   21    1     -0.56      0.00
    5   21    1     -1.20      0.00
    7   21    1     -1.69      0.00
    9   21    1     -1.70      0.00
   11   21    1     -1.32      0.00
  -12   22    1      1.48      0.00
  -10   22    1      0.67      0.00
   -8   22    1      0.10      0.00
   -6   22    1     -0.38      0.00
   -4   22    1     -0.57      0.00
   -2   22    1     -0.16      0.00
    0   22    1      0.40      0.00
    2   22    1      0.61      0.00
    4   22    1      0.79      0.00
    6   22    1      1.32      0.00
    8   22    1      1.85      0.00
   10   22    1      1.76      0.00
  -11   23    1     -1.36      0.00
   -9   23    1     -0.54      0.00
   -7   23    1      0.21      0.00
   -5   23    1      0.65      0.00
   -3   23    1      0.52      0.00
   -1   23    1     -0.12      0.00
    1   23    1     -0.65      0.00
    3   23    1     -0.71      0.00
    5   23    1     -0.90      0.00
    7   23    1     -1.61      0.00
    9   23    1     -2.00      0.00
  -10   24    1      1.20      0.00
   -8   24    1      0.26      0.00
   -6   24    1     -0.48      0.00
   -4   24    1     -0.75      0.00
   -2   24    1     -0.41      0.00
    0   24    1      0.31      0.00
    2   24    1      0.70      0.00
    4   24    1      0.73      0.00
    6   24    1      1.19      0.00
    8   24    1      1.91      0.00
   -9   25    1     -0.88      0.00
   -7   25    1      0.03      0.00
   -5   25    1      0.62      0.00
   -3   25    1      0.75      0.00
   -1   25    1      0.28      0.00
    1   25    1     -0.42      0.00
    3   25    1     -0.69      0.00
    5   25    1     -0.89      0.00
    7   25    1     -1.56      0.00
   -8   26    1      0.50      0.00
   -6   26    1     -0.22      0.00
   -4   26    1     -0.68      0.00
   -2   26    1     -0.70      0.00
    0   26    1     -0.12      0.00
    2   26    1      0.50      0.00
    4   26    1      0.74      0.00
    6   26    1      1.16      0.00
   -5   27    1      0.33      0.00
   -3   27    1      0.69      0.00
   -1   27    1      0.55      0.00
    1   27    1     -0.06      0.00
    3   27    1     -0.54      0.00
   -2   28    1     -0.63      0.00
    0   28    1     -0.36      0.00
  -20    0    2     -1.67      0.00
  -18    0    2     -1.38      0.00
  -16    0    2     -0.97      0.00
  -14    0    2     -0.05      0.00
  -12    0    2     -0.59      0.00
  -10    0    2     -2.65      0.00
   -8    0    2     -4.55      0.00
   -6    0    2     -8.54      0.00
   -4    0    2    -15.20      0.00
   -2    0    2    -17.27      0.00
    0    0    2    -11.00      0.00
    2    0    2     -3.32      0.00
    4    0    2      0.34      0.00
    6    0    2      1.54      0.00
    8    0    2      1.13      0.00
   10    0    2     -0.81      0.00
   12    0    2     -1.41      0.00
   14    0    2      0.04      0.00
   16    0    2      0.72      0.00
  -21    1    2      1.78      0.00
  -19    1    2      1.37      0.00
  -17    1    2      1.17      0.00
  -15    1    2      0.46      0.00
  -13    1    2      0.13      0.00
  -11    1    2      1.70      0.00
   -9    1    2      3.62      0.00
   -7    1    2      5.84      0.00
   -5    1    2     11.08      0.00
   -3    1    2     15.92      0.00
   -1    1    2     13.39      0.00
    1    1    2      5.70      0.00
    3    1    2      0.42      0.00
    5    1    2     -1.33      0.00
    7    1    2     -1.61      0.00
    9    1    2     -0.20      0.00
   11    1    2      1.39      0.00
   13    1    2      0.72      0.00
   15    1    2     -0.63      0.00
   17    1    2     -0.47      0.00
  -20    2    2     -1.25      0.00
  -18    2    2     -0.99      0.00
  -16    2    2     -0.69      0.00
  -14    2    2     -0.19      0.00
  -12    2    2     -1.06      0.00
  -10    2    2     -2.99      0.00
   -8    2    2     -4.32      0.00
   -6    2    2     -6.77      0.00
   -4    2    2    -10.95      0.00
   -2    2    2    -11.43      0.00
    0    2    2     -5.91      0.00
    2    2    2     -0.22      0.00
    4    2    2      1.77      0.00
    6    2    2      1.92      0.00
    8    2    2      1.08      0.00
   10    2    2     -0.72      0.00
   12    2    2     -1.15      0.00
   14    2    2      0.17      0.00
   16    2    2      0.77      0.00
  -19    3    2      0.66      0.00
  -17    3    2      0.50      0.00
  -15    3    2      0.26      0.00
  -13    3    2      0.72      0.00
  -11    3    2      2.45      0.00
   -9    3    2      3.77      0.00
   -7    3    2      4.28      0.00
   -5    3    2      5.73      0.00
   -3    3    2      6.43      0.00
   -1    3    2      3.16      0.00
    1    3    2     -1.61      0.00
    3    3    2     -3.43      0.00
    5    3    2     -2.83      0.00
    7    3    2     -1.78      0.00
    9    3    2     -0.17      0.00
   11    3    2      1.01      0.00
   13    3    2      0.37      0.00
   15    3    2     -0.68      0.00
   17    3    2     -0.60      0.00
  -20    4    2     -0.33      0.00
  -18    4    2     -0.12      0.00
  -16    4    2     -0.02      0.00
  -14    4    2     -0.41      0.00
  -12    4    2     -1.89      0.00
  -10    4    2     -3.45      0.00
   -8    4    2     -3.55      0.00
   -6    4    2     -2.73      0.00
   -4    4    2     -1.47      0.00
   -2    4    2      1.41      0.00
    0    4    2      5.09      0.00
    2    4    2      6.36      0.00
    4    4    2      4.86      0.00
    6    4    2      2.83      0.00
    8    4    2      1.02      0.00
   10    4    2     -0.47      0.00
   12    4    2     -0.63      0.00
   14    4    2      0.27      0.00
   16    4    2      0.68      0.00
  -19    5    2     -0.22      0.00
  -17    5    2     -0.39      0.00
  -15    5    2     -0.09      0.00
  -13    5    2      1.20      0.00
  -11    5    2      2.87      0.00
   -9    5    2      3.40      0.00
   -7    5    2      2.02      0.00
   -5    5    2     -1.04      0.00
   -3    5    2     -5.29      0.00
   -1    5    2     -9.10      0.00
    1    5    2    -10.04      0.00
    3    5    2     -7.84      0.00
    5    5    2     -4.68      0.00
    7    5    2     -2.07      0.00
    9    5    2     -0.21      0.00
   11    5    2      0.53      0.00
   13    5    2      0.14      0.00
   15    5    2     -0.41      0.00
  -20    6    2      0.46      0.00
  -18    6    2      0.71      0.00
  -16    6    2      0.69      0.00
  -14    6    2     -0.33      0.00
  -12    6    2     -2.00      0.00
  -10    6    2     -2.95      0.00
   -8    6    2     -2.18      0.00
   -6    6    2      1.00      0.00
   -4    6    2      6.49      0.00
   -2    6    2     11.70      0.00
    0    6    2     13.29      0.00
    2    6    2     10.98      0.00
    4    6    2      7.14      0.00
    6    6    2      3.61      0.00
    8    6    2      1.06      0.00
   10    6    2     -0.19      0.00
   12    6    2     -0.30      0.00
   14    6    2      0.01      0.00
   16    6    2      0.21      0.00
  -19    7    2     -0.87      0.00
  -17    7    2     -1.13      0.00
  -15    7    2     -0.59      0.00
  -13    7    2      0.91      0.00
  -11    7    2      2.07      0.00
   -9    7    2      1.99      0.00
   -7    7    2     -0.02      0.00
   -5    7    2     -5.07      0.00
   -3    7    2    -11.47      0.00
   -1    7    2    -14.71      0.00
    1    7    2    -13.18      0.00
    3    7    2     -9.38      0.00
    5    7    2     -5.49      0.00
    7    7    2     -2.24      0.00
    9    7    2     -0.33      0.00
   11    7    2      0.20      0.00
   13    7    2      0.21      0.00
   15    7    2      0.14      0.00
  -20    8    2      0.93      0.00
  -18    8    2      1.33      0.00
  -16    8    2      1.33      0.00
  -14    8    2      0.22      0.00
  -12    8    2     -1.01      0.00
  -10    8    2     -1.25      0.00
   -8    8    2     -0.39      0.00
   -6    8    2      2.79      0.00
   -4    8    2      8.71      0.00
   -2    8    2     13.46      0.00
    0    8    2     13.50      0.00
    2    8    2     10.45      0.00
    4    8    2      7.00      0.00
    6    8    2      3.64      0.00
    8    8    2      1.07      0.00
   10    8    2      0.09      0.00
   12    8    2     -0.12      0.00
   14    8    2     -0.29      0.00
   16    8    2     -0.26      0.00
  -19    9    2     -1.35      0.00
  -17    9    2     -1.74      0.00
  -15    9    2     -1.23      0.00
  -13    9    2     -0.05      0.00
  -11    9    2      0.36      0.00
   -9    9    2     -0.04      0.00
   -7    9    2     -1.38      0.00
   -5    9    2     -5.21      0.00
   -3    9    2    -10.02      0.00
   -1    9    2    -11.62      0.00
    1    9    2     -9.79      0.00
    3    9    2     -7.31      0.00
    5    9    2     -4.72      0.00
    7    9    2     -1.98      0.00
    9    9    2     -0.49      0.00
   11    9    2     -0.21      0.00
   13    9    2      0.04      0.00
   15    9    2      0.25      0.00
  -18   10    2      1.85      0.00
  -16   10    2      1.94      0.00
  -14   10    2      1.04      0.00
  -12   10    2      0.39      0.00
  -10   10    2      0.70      0.00
   -8   10    2      1.23      0.00
   -6   10    2      2.76      0.00
   -4   10    2      6.00      0.00
   -2   10    2      8.16      0.00
    0   10    2      7.49      0.00
    2   10    2      6.06      0.00
    4   10    2      4.81      0.00
    6   10    2      2.77      0.00
    8   10    2      0.95      0.00
   10   10    2      0.58      0.00
   12   10    2      0.55      0.00
   14   10    2      0.21      0.00
  -19   11    2     -1.71      0.00
  -17   11    2     -2.26      0.00
  -15   11    2     -1.87      0.00
  -13   11    2     -1.03      0.00
  -11   11    2     -1.09      0.00
   -9   11    2     -1.59      0.00
   -7   11    2     -1.92      0.00
   -5   11    2     -3.06      0.00
   -3   11    2     -4.46      0.00
   -1   11    2     -4.31      0.00
    1   11    2     -3.59      0.00
    3   11    2     -3.59      0.00
    5   11    2     -2.92      0.00
    7   11    2     -1.38      0.00
    9   11    2     -0.84      0.00
   11   11    2     -1.19      0.00
   13   11    2     -1.09      0.00
   15   11    2     -0.64      0.00
  -18   12    2      2.17      0.00
  -16   12    2      2.40      0.00
  -14   12    2      1.67      0.00
  -12   12    2      1.23      0.00
  -10   12    2      1.68      0.00
   -8   12    2      1.93      0.00
   -6   12    2      1.80      0.00
   -4   12    2      1.79      0.00
   -2   12    2      1.31      0.00
    0   12    2      0.73      0.00
    2   12    2      1.38      0.00
    4   12    2      2.15      0.00
    6   12    2      1.52      0.00
    8   12    2      0.95      0.00
   10   12    2      1.60      0.00
   12   12    2      2.11      0.00
   14   12    2      1.72      0.00
  -17   13    2     -2.44      0.00
  -15   13    2     -2.23      0.00
  -13   13    2     -1.44      0.00
  -11   13    2     -1.39      0.00
   -9   13    2     -1.81      0.00
   -7   13    2     -1.58      0.00
   -5   13    2     -0.65      0.00
   -3   13    2      0.64      0.00
   -1   13    2      1.62      0.00
    1   13    2      1.04      0.00
    3   13    2     -0.60      0.00
    5   13    2     -1.16      0.00
    7   13    2     -0.91      0.00
    9   13    2     -1.65      0.00
   11   13    2     -2.87      0.00
   13   13    2     -2.99      0.00
  -18   14    2      1.94      0.00
  -16   14    2      2.39      0.00
  -14   14    2      1.80      0.00
  -12   14    2      1.13      0.00
  -10   14    2      1.27      0.00
   -8   14    2      1.42      0.00
   -6   14    2      0.54      0.00
   -4   14    2     -1.29      0.00
   -2   14    2     -2.92      0.00
    0   14    2     -2.87      0.00
    2   14    2     -1.12      0.00
    4   14    2      0.32      0.00
    6   14    2      0.65      0.00
    8   14    2      1.41      0.00
   10   14    2      3.09      0.00
   12   14    2      4.03      0.00
   14   14    2      3.35      0.00
  -17   15    2     -1.98      0.00
  -15   15    2     -2.00      0.00
  -13   15    2     -1.17      0.00
  -11   15    2     -0.66      0.00
   -9   15    2     -0.85      0.00
   -7   15    2     -0.58      0.00
   -5   15    2      1.02      0.00
   -3   15    2      3.09      0.00
   -1   15    2      3.74      0.00
    1   15    2      2.38      0.00
    3   15    2      0.64      0.00
    5   15    2     -0.17      0.00
    7   15    2     -0.98      0.00
    9   15    2     -2.79      0.00
   11   15    2     -4.47      0.00
   13   15    2     -4.45      0.00
  -16   16    2      1.73      0.00
  -14   16    2      1.33      0.00
  -12   16    2      0.42      0.00
  -10   16    2      0.12      0.00
   -8   16    2      0.25      0.00
   -6   16    2     -0.55      0.00
   -4   16    2     -2.49      0.00
   -2   16    2     -3.71      0.00
    0   16    2     -2.89      0.00
    2   16    2     -1.26      0.00
    4   16    2     -0.34      0.00
    6   16    2      0.43      0.00
    8   16    2      2.17      0.00
   10   16    2      4.25      0.00
   12   16    2      5.00      0.00
  -17   17    2     -1.01      0.00
  -15   17    2     -1.21      0.00
  -13   17    2     -0.50      0.00
  -11   17    2      0.31      0.00
   -9   17    2      0.35      0.00
   -7   17    2      0.38      0.00
   -5   17    2      1.61      0.00
   -3   17    2      3.05      0.00
   -1   17    2      2.77      0.00
    1   17    2      1.32      0.00
    3   17    2      0.54      0.00
    5   17    2      0.11      0.00
    7   17    2     -1.37      0.00
    9   17    2     -3.56      0.00
   11   17    2     -4.87      0.00
   13   17    2     -4.30      0.00
  -16   18    2      0.69      0.00
  -14   18    2      0.51      0.00
  -12   18    2     -0.32      0.00
  -10   18    2     -0.82      0.00
   -8   18    2     -0.60      0.00
   -6   18    2     -0.89      0.00
   -4   18    2     -2.06      0.00
   -2   18    2     -2.26      0.00
    0   18    2     -0.99      0.00
    2   18    2     -0.23      0.00
    4   18    2     -0.34      0.00
    6   18    2      0.50      0.00
    8   18    2      2.59      0.00
   10   18    2      4.23      0.00
   12   18    2      4.23      0.00
  -15   19    2     -0.21      0.00
  -13   19    2      0.21      0.00
  -11   19    2      0.89      0.00
   -9   19    2      0.92      0.00
   -7   19    2      0.57      0.00
   -5   19    2      1.03      0.00
   -3   19    2      1.49      0.00
   -1   19    2      0.55      0.00
    1   19    2     -0.41      0.00
    3   19    2      0.04      0.00
    5   19    2      0.17      0.00
    7   19    2     -1.46      0.00
    9   19    2     -3.30      0.00
   11   19    2     -3.70      0.00
  -14   20    2     -0.30      0.00
  -12   20    2     -0.75      0.00
  -10   20    2     -1.04      0.00
   -8   20    2     -0.58      0.00
   -6   20    2     -0.25      0.00
   -4   20    2     -0.55      0.00
   -2   20    2     -0.09      0.00
    0   20    2      1.00      0.00
    2   20    2      0.71      0.00
    4   20    2     -0.32      0.00
    6   20    2      0.34      0.00
    8   20    2      2.20      0.00
   10   20    2      2.97      0.00
  -13   21    2      0.69      0.00
  -11   21    2      0.96      0.00
   -9   21    2      0.69      0.00
   -7   21    2     -0.08      0.00
   -5   21    2     -0.32      0.00
   -3   21    2     -0.46      0.00
   -1   21    2     -1.34      0.00
    1   21    2     -1.50      0.00
    3   21    2     -0.13      0.00
    5   21    2      0.42      0.00
    7   21    2     -0.99      0.00
    9   21    2     -2.17      0.00
  -12   22    2     -0.86      0.00
  -10   22    2     -0.75      0.00
   -8   22    2      0.03      0.00
   -6   22    2      0.82      0.00
   -4   22    2      1.05      0.00
   -2   22    2      1.54      0.00
    0   22    2      1.96      0.00
    2   22    2      0.86      0.00
    4   22    2     -0.57      0.00
    6   22    2     -0.10      0.00
    8   22    2      1.28      0.00
  -11   23    2      0.75      0.00
   -9   23    2      0.17      0.00
   -7   23    2     -0.83      0.00
   -5   23    2     -1.42      0.00
   -3   23    2     -1.71      0.00
   -1   23    2     -2.07      0.00
    1   23    2     -1.45      0.00
    3   23    2      0.22      0.00
    5   23    2      0.78      0.00
    7   23    2     -0.34      0.00
  -10   24    2     -0.36      0.00
   -8   24    2      0.51      0.00
   -6   24    2      1.36      0.00
   -4   24    2      1.75      0.00
   -2   24    2      1.99      0.00
    0   24    2      1.69      0.00
    2   24    2      0.27      0.00
    4   24    2     -0.93      0.00
    6   24    2     -0.46      0.00
   -9   25    2     -0.14      0.00
   -7   25    2     -0.95      0.00
   -5   25    2     -1.49      0.00
   -3   25    2     -1.77      0.00
   -1   25    2     -1.67      0.00
    1   25    2     -0.64      0.00
    3   25    2      0.74      0.00
    5   25    2      0.91      0.00
   -8   26    2      0.46      0.00
   -6   26    2      0.96      0.00
   -4   26    2      1.32      0.00
   -2   26    2      1.46      0.00
    0   26    2      0.83      0.00
    2   26    2     -0.43      0.00
    4   26    2     -1.03      0.00
   -5   27    2     -0.68      0.00
   -3   27    2     -1.04      0.00
   -1   27    2     -0.90      0.00
    1   27    2      0.08      0.00
  -21    1    3      0.02      0.00
  -19    1    3     -0.16      0.00
  -17    1    3     -0.04      0.00
  -15    1    3      0.78      0.00
  -13    1    3      1.65      0.00
  -11    1    3      2.13      0.00
   -9    1    3      2.45      0.00
   -7    1    3      1.97      0.00
   -5    1    3      0.10      0.00
   -3    1    3     -1.62      0.00
   -1    1    3     -1.62      0.00
    1    1    3     -0.54      0.00
    3    1    3      0.44      0.00
    5    1    3      1.02      0.00
    7    1    3      0.95      0.00
    9    1    3      0.28      0.00
   11    1    3     -0.25      0.00
   13    1    3     -0.32      0.00
   15    1    3     -0.26      0.00
  -20    2    3      0.18      0.00
  -18    2    3      0.39      0.00
  -16    2    3     -0.55      0.00
  -14    2    3     -2.37      0.00
  -12    2    3     -3.58      0.00
  -10    2    3     -4.29      0.00
   -8    2    3     -4.40      0.00
   -6    2    3     -2.12      0.00
   -4    2    3      1.72      0.00
   -2    2    3      3.38      0.00
    0    2    3      2.01      0.00
    2    2    3     -0.04      0.00
    4    2    3     -1.50      0.00
    6    2    3     -2.03      0.00
    8    2    3     -1.21      0.00
   10    2    3      0.07      0.00
   12    2    3      0.57      0.00
   14    2    3      0.51      0.00
  -21    3    3     -0.16      0.00
  -19    3    3     -0.61      0.00
  -17    3    3     -0.22      0.00
  -15    3    3      1.93      0.00
  -13    3    3      4.10      0.00
  -11    3    3      5.22      0.00
   -9    3    3      5.94      0.00
   -7    3    3      4.70      0.00
   -5    3    3      0.15      0.00
   -3    3    3     -3.92      0.00
   -1    3    3     -3.76      0.00
    1    3    3     -1.12      0.00
    3    3    3      1.22      0.00
    5    3    3      2.58      0.00
    7    3    3      2.35      0.00
    9    3    3      0.70      0.00
   11    3    3     -0.51      0.00
   13    3    3     -0.68      0.00
   15    3    3     -0.64      0.00
  -20    4    3      0.64      0.00
  -18    4    3      0.88      0.00
  -16    4    3     -0.71      0.00
  -14    4    3     -3.53      0.00
  -12    4    3     -5.28      0.00
  -10    4    3     -6.20      0.00
   -8    4    3     -6.24      0.00
   -6    4    3     -2.86      0.00
   -4    4    3      2.57      0.00
   -2    4    3      4.67      0.00
    0    4    3      2.54      0.00
    2    4    3     -0.36      0.00
    4    4    3     -2.37      0.00
    6    4    3     -3.03      0.00
    8    4    3     -1.76      0.00
   10    4    3      0.01      0.00
   12    4    3      0.62      0.00
   14    4    3      0.67      0.00
  -21    5    3     -0.62      0.00
  -19    5    3     -1.15      0.00
  -17    5    3     -0.53      0.00
  -15    5    3      2.07      0.00
  -13    5    3      4.51      0.00
  -11    5    3      5.56      0.00
   -9    5    3      6.12      0.00
   -7    5    3      4.65      0.00
   -5    5    3     -0.12      0.00
   -3    5    3     -4.02      0.00
   -1    5    3     -3.44      0.00
    1    5    3     -0.63      0.00
    3    5    3      1.66      0.00
    5    5    3      2.93      0.00
    7    5    3      2.49      0.00
    9    5    3      0.74      0.00
   11    5    3     -0.32      0.00
   13    5    3     -0.48      0.00
   15    5    3     -0.70      0.00
  -20    6    3      1.13      0.00
  -18    6    3      1.26      0.00
  -16    6    3     -0.41      0.00
  -14    6    3     -3.03      0.00
  -12    6    3     -4.42      0.00
  -10    6    3     -4.89      0.00
   -8    6    3     -4.63      0.00
   -6    6    3     -1.81      0.00
   -4    6    3      2.22      0.00
   -2    6    3      3.27      0.00
    0    6    3      1.24      0.00
    2    6    3     -0.93      0.00
    4    6    3     -2.29      0.00
    6    6    3     -2.53      0.00
    8    6    3     -1.30      0.00
   10    6    3     -0.07      0.00
   12    6    3      0.16      0.00
   14    6    3      0.38      0.00
  -19    7    3     -1.40      0.00
  -17    7    3     -0.76      0.00
  -15    7    3      1.30      0.00
  -13    7    3      2.98      0.00
  -11    7    3      3.33      0.00
   -9    7    3      3.24      0.00
   -7    7    3      2.08      0.00
   -5    7    3     -0.60      0.00
   -3    7    3     -2.19      0.00
   -1    7    3     -1.16      0.00
    1    7    3      0.57      0.00
    3    7    3      1.63      0.00
    5    7    3      2.02      0.00
    7    7    3      1.35      0.00
    9    7    3      0.27      0.00
   11    7    3      0.05      0.00
   13    7    3      0.07      0.00
   15    7    3     -0.41      0.00
  -20    8    3      1.18      0.00
  -18    8    3      1.18      0.00
  -16    8    3      0.05      0.00
  -14    8    3     -1.47      0.00
  -12    8    3     -1.93      0.00
  -10    8    3     -1.53      0.00
   -8    8    3     -0.88      0.00
   -6    8    3      0.29      0.00
   -4    8    3      1.18      0.00
   -2    8    3      0.55      0.00
    0    8    3     -0.71      0.00
    2    8    3     -1.35      0.00
    4    8    3     -1.45      0.00
    6    8    3     -0.98      0.00
    8    8    3     -0.11      0.00
   10    8    3      0.05      0.00
   12    8    3     -0.33      0.00
   14    8    3     -0.09      0.00
  -19    9    3     -1.05      0.00
  -17    9    3     -0.65      0.00
  -15    9    3      0.29      0.00
  -13    9    3      0.79      0.00
  -11    9    3      0.28      0.00
   -9    9    3     -0.66      0.00
   -7    9    3     -1.31      0.00
   -5    9    3     -1.17      0.00
   -3    9    3     -0.08      0.00
   -1    9    3      1.09      0.00
    1    9    3      1.45      0.00
    3    9    3      1.19      0.00
    5    9    3      0.58      0.00
    7    9    3     -0.27      0.00
    9    9    3     -0.49      0.00
   11    9    3      0.16      0.00
   13    9    3      0.45      0.00
  -20   10    3      0.70      0.00
  -18   10    3      0.62      0.00
  -16   10    3      0.28      0.00
  -14   10    3      0.01      0.00
  -12   10    3      0.39      0.00
  -10   10    3      1.58      0.00
   -8   10    3      2.66      0.00
   -6   10    3      2.29      0.00
   -4   10    3      0.45      0.00
   -2   10    3     -1.23      0.00
    0   10    3     -1.63      0.00
    2   10    3     -1.22      0.00
    4   10    3     -0.48      0.00
    6   10    3      0.54      0.00
    8   10    3      1.04      0.00
   10   10    3      0.42      0.00
   12   10    3     -0.36      0.00
   14   10    3     -0.37      0.00
  -19   11    3     -0.33      0.00
  -17   11    3     -0.24      0.00
  -15   11    3     -0.34      0.00
  -13   11    3     -0.67      0.00
  -11   11    3     -1.68      0.00
   -9   11    3     -3.27      0.00
   -7   11    3     -3.68      0.00
   -5   11    3     -1.77      0.00
   -3   11    3      0.67      0.00
   -1   11    3      1.53      0.00
    1   11    3      1.21      0.00
    3   11    3      0.61      0.00
    5   11    3     -0.42      0.00
    7   11    3     -1.35      0.00
    9   11    3     -1.11      0.00
   11   11    3     -0.16      0.00
   13   11    3      0.34      0.00
  -18   12    3     -0.05      0.00
  -16   12    3      0.21      0.00
  -14   12    3      0.69      0.00
  -12   12    3      1.34      0.00
  -10   12    3      2.85      0.00
   -8   12    3      4.29      0.00
   -6   12    3      3.35      0.00
   -4   12    3      0.64      0.00
   -2   12    3     -0.92      0.00
    0   12    3     -0.87      0.00
    2   12    3     -0.60      0.00
    4   12    3      0.02      0.00
    6   12    3      1.17      0.00
    8   12    3      1.55      0.00
   10   12    3      0.84      0.00
   12   12    3      0.09      0.00
  -19   13    3      0.24      0.00
  -17   13    3      0.14      0.00
  -15   13    3     -0.49      0.00
  -13   13    3     -1.00      0.00
  -11   13    3     -1.91      0.00
   -9   13    3     -3.69      0.00
   -7   13    3     -4.23      0.00
   -5   13    3     -2.22      0.00
   -3   13    3     -0.15      0.00
   -1   13    3      0.16      0.00
    1   13    3      0.14      0.00
    3   13    3      0.25      0.00
    5   13    3     -0.56      0.00
    7   13    3     -1.51      0.00
    9   13    3     -1.35      0.00
   11   13    3     -0.69      0.00
   13   13    3     -0.11      0.00
  -18   14    3     -0.39      0.00
  -16   14    3      0.13      0.00
  -14   14    3      0.78      0.00
  -12   14    3      1.17      0.00
  -10   14    3      2.40      0.00
   -8   14    3      3.90      0.00
   -6   14    3      3.31      0.00
   -4   14    3      1.36      0.00
   -2   14    3      0.67      0.00
    0   14    3      0.67      0.00
    2   14    3      0.01      0.00
    4   14    3     -0.07      0.00
    6   14    3      0.96      0.00
    8   14    3      1.48      0.00
   10   14    3      1.16      0.00
   12   14    3      0.66      0.00
  -17   15    3      0.21      0.00
  -15   15    3     -0.56      0.00
  -13   15    3     -0.93      0.00
  -11   15    3     -1.33      0.00
   -9   15    3     -2.71      0.00
   -7   15    3     -3.42      0.00
   -5   15    3     -2.29      0.00
   -3   15    3     -1.37      0.00
   -1   15    3     -1.44      0.00
    1   15    3     -0.76      0.00
    3   15    3      0.24      0.00
    5   15    3     -0.19      0.00
    7   15    3     -1.17      0.00
    9   15    3     -1.35      0.00
   11   15    3     -1.09      0.00
  -18   16    3     -0.31      0.00
  -16   16    3      0.27      0.00
  -14   16    3      0.94      0.00
  -12   16    3      0.98      0.00
  -10   16    3      1.54      0.00
   -8   16    3      2.67      0.00
   -6   16    3      2.63      0.00
   -4   16    3      1.84      0.00
   -2   16    3      1.84      0.00
    0   16    3      1.53      0.00
    2   16    3      0.17      0.00
    4   16    3     -0.35      0.00
    6   16    3      0.57      0.00
    8   16    3      1.27      0.00
   10   16    3      1.27      0.00
   12   16    3      0.89      0.00
  -17   17    3     -0.03      0.00
  -15   17    3     -0.86      0.00
  -13   17    3     -1.17      0.00
  -11   17    3     -1.06      0.00
   -9   17    3     -1.69      0.00
   -7   17    3     -2.32      0.00
   -5   17    3     -2.05      0.00
   -3   17    3     -1.90      0.00
   -1   17    3     -1.90      0.00
    1   17    3     -0.80      0.00
    3   17    3      0.39      0.00
    5   17    3      0.05      0.00
    7   17    3     -0.95      0.00
    9   17    3     -1.28      0.00
   11   17    3     -1.07      0.00
  -16   18    3      0.59      0.00
  -14   18    3      1.34      0.00
  -12   18    3      1.27      0.00
  -10   18    3      1.17      0.00
   -8   18    3      1.70      0.00
   -6   18    3      1.98      0.00
   -4   18    3      1.88      0.00
   -2   18    3      1.86      0.00
    0   18    3      1.21      0.00
    2   18    3     -0.08      0.00
    4   18    3     -0.40      0.00
    6   18    3      0.49      0.00
    8   18    3      1.16      0.00
   10   18    3      1.10      0.00
  -15   19    3     -1.16      0.00
  -13   19    3     -1.58      0.00
  -11   19    3     -1.24      0.00
   -9   19    3     -1.21      0.00
   -7   19    3     -1.66      0.00
   -5   19    3     -1.87      0.00
   -3   19    3     -1.77      0.00
   -1   19    3     -1.28      0.00
    1   19    3     -0.23      0.00
    3   19    3      0.43      0.00
    5   19    3     -0.08      0.00
    7   19    3     -0.91      0.00
    9   19    3     -1.06      0.00
  -14   20    3      1.49      0.00
  -12   20    3      1.49      0.00
  -10   20    3      1.09      0.00
   -8   20    3      1.23      0.00
   -6   20    3      1.74      0.00
   -4   20    3      1.86      0.00
   -2   20    3      1.34      0.00
    0   20    3      0.37      0.00
    2   20    3     -0.35      0.00
    4   20    3     -0.16      0.00
    6   20    3      0.58      0.00
    8   20    3      0.94      0.00
  -13   21    3     -1.42      0.00
  -11   21    3     -1.13      0.00
   -9   21    3     -0.89      0.00
   -7   21    3     -1.36      0.00
   -5   21    3     -1.93      0.00
   -3   21    3     -1.64      0.00
   -1   21    3     -0.56      0.00
    1   21    3      0.31      0.00
    3   21    3      0.29      0.00
    5   21    3     -0.30      0.00
    7   21    3     -0.74      0.00
  -12   22    3      0.97      0.00
  -10   22    3      0.64      0.00
   -8   22    3      0.82      0.00
   -6   22    3      1.65      0.00
   -4   22    3      1.99      0.00
   -2   22    3      1.05      0.00
    0   22    3     -0.17      0.00
    2   22    3     -0.42      0.00
    4   22    3      0.09      0.00
    6   22    3      0.51      0.00
    8   22    3      0.50      0.00
  -11   23    3     -0.33      0.00
   -9   23    3     -0.27      0.00
   -7   23    3     -0.98      0.00
   -5   23    3     -1.92      0.00
   -3   23    3     -1.66      0.00
   -1   23    3     -0.29      0.00
    1   23    3      0.49      0.00
    3   23    3      0.13      0.00
    5   23    3     -0.34      0.00
    7   23    3     -0.38      0.00
  -10   24    3     -0.21      0.00
   -8   24    3      0.18      0.00
   -6   24    3      1.27      0.00
   -4   24    3      1.88      0.00
   -2   24    3      0.96      0.00
    0   24    3     -0.29      0.00
    2   24    3     -0.36      0.00
    4   24    3      0.17      0.00
   -9   25    3      0.46      0.00
   -7   25    3     -0.34      0.00
   -5   25    3     -1.42      0.00
   -3   25    3     -1.38      0.00
   -1   25    3     -0.19      0.00
    1   25    3      0.44      0.00
    3   25    3      0.06      0.00
   -8   26    3     -0.41      0.00
   -6   26    3      0.54      0.00
   -4   26    3      1.18      0.00
   -2   26    3      0.60      0.00
    0   26    3     -0.28      0.00
    2   26    3     -0.26      0.00
   -5   27    3     -0.51      0.00
   -3   27    3     -0.58      0.00
   -1   27    3      0.04      0.00
  -20    0    4      0.98      0.00
  -18    0    4      1.30      0.00
  -16    0    4      0.84      0.00
  -14    0    4      0.59      0.00
  -12    0    4      0.65      0.00
  -10    0    4      0.30      0.00
   -8    0    4      1.30      0.00
   -6    0    4      4.88      0.00
   -4    0    4      8.26      0.00
   -2    0    4      9.12      0.00
    0    0    4      8.00      0.00
    2    0    4      5.20      0.00
    4    0    4      1.66      0.00
    6    0    4     -0.14      0.00
    8    0    4     -0.12      0.00
   10    0    4     -0.38      0.00
   12    0    4     -0.95      0.00
   14    0    4     -0.89      0.00
  -21    1    4     -0.59      0.00
  -19    1    4     -1.07      0.00
  -17    1    4     -1.05      0.00
  -15    1    4     -0.69      0.00
  -13    1    4     -0.79      0.00
  -11    1    4     -0.63      0.00
   -9    1    4     -0.57      0.00
   -7    1    4     -2.75      0.00
   -5    1    4     -6.35      0.00
   -3    1    4     -8.33      0.00
   -1    1    4     -8.12      0.00
    1    1    4     -6.31      0.00
    3    1    4     -3.10      0.00
    5    1    4     -0.42      0.00
    7    1    4      0.12      0.00
    9    1    4      0.06      0.00
   11    1    4      0.66      0.00
   13    1    4      0.97      0.00
  -20    2    4      0.41      0.00
  -18    2    4      0.79      0.00
  -16    2    4      0.81      0.00
  -14    2    4      0.99      0.00
  -12    2    4      1.17      0.00
  -10    2    4      0.81      0.00
   -8    2    4      1.37      0.00
   -6    2    4      3.77      0.00
   -4    2    4      5.98      0.00
   -2    2    4      6.53      0.00
    0    2    4      5.79      0.00
    2    2    4      3.72      0.00
    4    2    4      1.14      0.00
    6    2    4      0.07      0.00
    8    2    4      0.27      0.00
   10    2    4     -0.10      0.00
   12    2    4     -0.79      0.00
   14    2    4     -0.84      0.00
  -21    3    4      0.29      0.00
  -19    3    4      0.00      0.00
  -17    3    4     -0.49      0.00
  -15    3    4     -1.05      0.00
  -13    3    4     -1.60      0.00
  -11    3    4     -1.52      0.00
   -9    3    4     -1.23      0.00
   -7    3    4     -1.94      0.00
   -5    3    4     -3.19      0.00
   -3    3    4     -3.76      0.00
   -1    3    4     -3.69      0.00
    1    3    4     -2.89      0.00
    3    3    4     -1.24      0.00
    5    3    4     -0.20      0.00
    7    3    4     -0.49      0.00
    9    3    4     -0.55      0.00
   11    3    4      0.23      0.00
   13    3    4      0.73      0.00
  -20    4    4     -0.86      0.00
  -18    4    4     -0.37      0.00
  -16    4    4      0.66      0.00
  -14    4    4      1.70      0.00
  -12    4    4      2.08      0.00
  -10    4    4      1.80      0.00
   -8    4    4      1.51      0.00
   -6    4    4      1.30      0.00
   -4    4    4      0.93      0.00
   -2    4    4      0.76      0.00
    0    4    4      0.76      0.00
    2    4    4      0.24      0.00
    4    4    4     -0.22      0.00
    6    4    4      0.36      0.00
    8    4    4      1.01      0.00
   10    4    4      0.56      0.00
   12    4    4     -0.24      0.00
  -21    5    4      1.35      0.00
  -19    5    4      1.36      0.00
  -17    5    4      0.28      0.00
  -15    5    4     -1.28      0.00
  -13    5    4     -2.19      0.00
  -11    5    4     -2.27      0.00
   -9    5    4     -1.94      0.00
   -7    5    4     -0.93      0.00
   -5    5    4      0.77      0.00
   -3    5    4      1.91      0.00
   -1    5    4      1.88      0.00
    1    5    4      1.64      0.00
    3    5    4      1.42      0.00
    5    5    4      0.39      0.00
    7    5    4     -0.95      0.00
    9    5    4     -1.22      0.00
   11    5    4     -0.54      0.00
   13    5    4      0.10      0.00
  -20    6    4     -1.96      0.00
  -18    6    4     -1.42      0.00
  -16    6    4      0.33      0.00
  -14    6    4      1.77      0.00
  -12    6    4      2.20      0.00
  -10    6    4      2.27      0.00
   -8    6    4      1.54      0.00
   -6    6    4     -0.82      0.00
   -4    6    4     -3.31      0.00
   -2    6    4     -4.05      0.00
    0    6    4     -3.65      0.00
    2    6    4     -3.08      0.00
    4    6    4     -1.75      0.00
    6    6    4      0.18      0.00
    8    6    4      1.33      0.00
   10    6    4      1.25      0.00
   12    6    4      0.67      0.00
  -21    7    4      1.97      0.00
  -19    7    4      2.22      0.00
  -17    7    4      0.89      0.00
  -15    7    4     -0.91      0.00
  -13    7    4     -1.64      0.00
  -11    7    4     -1.94      0.00
   -9    7    4     -2.04      0.00
   -7    7    4     -0.25      0.00
   -5    7    4      3.05      0.00
   -3    7    4      4.98      0.00
   -1    7    4      5.00      0.00
    1    7    4      4.49      0.00
    3    7    4      3.30      0.00
    5    7    4      1.13      0.00
    7    7    4     -0.73      0.00
    9    7    4     -1.46      0.00
   11    7    4     -1.41      0.00
   13    7    4     -0.81      0.00
  -20    8    4     -2.40      0.00
  -18    8    4     -1.90      0.00
  -16    8    4     -0.19      0.00
  -14    8    4      0.85      0.00
  -12    8    4      1.09      0.00
  -10    8    4      1.72      0.00
   -8    8    4      1.30      0.00
   -6    8    4     -1.58      0.00
   -4    8    4     -4.48      0.00
   -2    8    4     -5.24      0.00
    0    8    4     -5.02      0.00
    2    8    4     -4.35      0.00
    4    8    4     -2.51      0.00
    6    8    4     -0.35      0.00
    8    8    4      0.98      0.00
   10    8    4      1.67      0.00
   12    8    4      1.62      0.00
  -19    9    4      2.36      0.00
  -17    9    4      1.20      0.00
  -15    9    4     -0.03      0.00
  -13    9    4     -0.20      0.00
  -11    9    4     -0.70      0.00
   -9    9    4     -1.47      0.00
   -7    9    4     -0.04      0.00
   -5    9    4      2.92      0.00
   -3    9    4      4.41      0.00
   -1    9    4      4.49      0.00
    1    9    4      4.37      0.00
    3    9    4      3.32      0.00
    5    9    4      1.39      0.00
    7    9    4     -0.09      0.00
    9    9    4     -1.21      0.00
   11    9    4     -2.00      0.00
   13    9    4     -1.53      0.00
  -20   10    4     -2.21      0.00
  -18   10    4     -1.85      0.00
  -16   10    4     -0.70      0.00
  -14   10    4     -0.42      0.00
  -12   10    4     -0.38      0.00
  -10   10    4      0.70      0.00
   -8   10    4      0.91      0.00
   -6   10    4     -1.10      0.00
   -4   10    4     -2.91      0.00
   -2   10    4     -3.21      0.00
    0   10    4     -3.34      0.00
    2   10    4     -3.13      0.00
    4   10    4     -1.87      0.00
    6   10    4     -0.64      0.00
    8   10    4      0.31      0.00
   10   10    4      1.60      0.00
   12   10    4      2.05      0.00
  -19   11    4      1.98      0.00
  -17   11    4      1.23      0.00
  -15   11    4      0.75      0.00
  -13   11    4      1.00      0.00
  -11   11    4      0.36      0.00
   -9   11    4     -0.78      0.00
   -7   11    4     -0.22      0.00
   -5   11    4      1.27      0.00
   -3   11    4      1.69      0.00
   -1   11    4      1.72      0.00
    1   11    4      1.99      0.00
    3   11    4      1.54      0.00
    5   11    4      0.78      0.00
    7   11    4      0.41      0.00
    9   11    4     -0.61      0.00
   11   11    4     -1.87      0.00
  -18   12    4     -1.46      0.00
  -16   12    4     -0.92      0.00
  -14   12    4     -1.07      0.00
  -12   12    4     -1.01      0.00
  -10   12    4      0.10      0.00
   -8   12    4      0.69      0.00
   -6   12    4      0.02      0.00
   -4   12    4     -0.32      0.00
   -2   12    4     -0.12      0.00
    0   12    4     -0.38      0.00
    2   12    4     -0.49      0.00
    4   12    4     -0.24      0.00
    6   12    4     -0.47      0.00
    8   12    4     -0.35      0.00
   10   12    4      0.95      0.00
   12   12    4      1.60      0.00
  -19   13    4      1.30      0.00
  -17   13    4      0.99      0.00
  -15   13    4      0.88      0.00
  -13   13    4      1.03      0.00
  -11   13    4      0.42      0.00
   -9   13    4     -0.52      0.00
   -7   13    4     -0.69      0.00
   -5   13    4     -0.66      0.00
   -3   13    4     -1.05      0.00
   -1   13    4     -1.09      0.00
    1   13    4     -0.82      0.00
    3   13    4     -0.76      0.00
    5   13    4     -0.18      0.00
    7   13    4      0.68      0.00
    9   13    4      0.20      0.00
   11   13    4     -0.97      0.00
  -18   14    4     -0.89      0.00
  -16   14    4     -0.71      0.00
  -14   14    4     -0.68      0.00
  -12   14    4     -0.44      0.00
  -10   14    4      0.24      0.00
   -8   14    4      0.77      0.00
   -6   14    4      1.15      0.00
   -4   14    4      1.74      0.00
   -2   14    4      2.04      0.00
    0   14    4      1.87      0.00
    2   14    4      1.76      0.00
    4   14    4      1.16      0.00
    6   14    4     -0.27      0.00
    8   14    4     -0.94      0.00
   10   14    4     -0.08      0.00
  -17   15    4      0.57      0.00
  -15   15    4      0.37      0.00
  -13   15    4      0.09      0.00
  -11   15    4     -0.25      0.00
   -9   15    4     -0.57      0.00
   -7   15    4     -1.11      0.00
   -5   15    4     -1.96      0.00
   -3   15    4     -2.46      0.00
   -1   15    4     -2.37      0.00
    1   15    4     -2.33      0.00
    3   15    4     -2.01      0.00
    5   15    4     -0.56      0.00
    7   15    4      0.97      0.00
    9   15    4      0.99      0.00
  -18   16    4     -0.34      0.00
  -16   16    4     -0.25      0.00
  -14   16    4      0.20      0.00
  -12   16    4      0.54      0.00
  -10   16    4      0.50      0.00
   -8   16    4      0.70      0.00
   -6   16    4      1.67      0.00
   -4   16    4      2.47      0.00
   -2   16    4      2.39      0.00
    0   16    4      2.27      0.00
    2   16    4      2.29      0.00
    4   16    4      1.30      0.00
    6   16    4     -0.51      0.00
    8   16    4     -1.38      0.00
   10   16    4     -0.90      0.00
  -17   17    4      0.16      0.00
  -15   17    4     -0.21      0.00
  -13   17    4     -0.77      0.00
  -11   17    4     -0.66      0.00
   -9   17    4     -0.27      0.00
   -7   17    4     -0.91      0.00
   -5   17    4     -2.05      0.00
   -3   17    4     -2.16      0.00
   -1   17    4     -1.74      0.00
    1   17    4     -1.86      0.00
    3   17    4     -1.55      0.00
    5   17    4     -0.04      0.00
    7   17    4      1.29      0.00
    9   17    4      1.33      0.00
  -16   18    4      0.08      0.00
  -14   18    4      0.67      0.00
  -12   18    4      0.83      0.00
  -10   18    4      0.10      0.00
   -8   18    4     -0.02      0.00
   -6   18    4      1.13      0.00
   -4   18    4      1.71      0.00
   -2   18    4      1.12      0.00
    0   18    4      0.92      0.00
    2   18    4      1.11      0.00
    4   18    4      0.30      0.00
    6   18    4     -1.00      0.00
    8   18    4     -1.40      0.00
  -15   19    4     -0.33      0.00
  -13   19    4     -0.71      0.00
  -11   19    4     -0.13      0.00
   -9   19    4      0.71      0.00
   -7   19    4      0.12      0.00
   -5   19    4     -0.93      0.00
   -3   19    4     -0.61      0.00
   -1   19    4      0.07      0.00
    1   19    4     -0.14      0.00
    3   19    4     -0.08      0.00
    5   19    4      0.80      0.00
    7   19    4      1.28      0.00
  -14   20    4      0.32      0.00
  -12   20    4      0.07      0.00
  -10   20    4     -0.97      0.00
   -8   20    4     -1.21      0.00
   -6   20    4     -0.20      0.00
   -4   20    4      0.10      0.00
   -2   20    4     -0.72      0.00
    0   20    4     -0.94      0.00
    2   20    4     -0.57      0.00
    4   20    4     -0.81      0.00
    6   20    4     -1.17      0.00
  -13   21    4      0.19      0.00
  -11   21    4      0.99      0.00
   -9   21    4      1.78      0.00
   -7   21    4      1.30      0.00
   -5   21    4      0.56      0.00
   -3   21    4      1.02      0.00
   -1   21    4      1.64      0.00
    1   21    4      1.35      0.00
    3   21    4      1.06      0.00
    5   21    4      1.13      0.00
  -12   22    4     -1.04      0.00
  -10   22    4     -1.85      0.00
   -8   22    4     -1.93      0.00
   -6   22    4     -1.24      0.00
   -4   22    4     -1.18      0.00
   -2   22    4     -1.82      0.00
    0   22    4     -1.87      0.00
    2   22    4     -1.40      0.00
    4   22    4     -1.15      0.00
  -11   23    4      1.74      0.00
   -9   23    4      2.00      0.00
   -7   23    4      1.58      0.00
   -5   23    4      1.29      0.00
   -3   23    4      1.65      0.00
   -1   23    4      1.90      0.00
    1   23    4      1.56      0.00
    3   23    4      1.18      0.00
  -10   24    4     -1.78      0.00
   -8   24    4     -1.45      0.00
   -6   24    4     -1.15      0.00
   -4   24    4     -1.35      0.00
   -2   24    4     -1.58      0.00
    0   24    4     -1.38      0.00
    2   24    4     -1.06      0.00
   -9   25    4      1.08      0.00
   -7   25    4      0.68      0.00
   -5   25    4      0.89      0.00
   -3   25    4      1.17      0.00
   -1   25    4      0.98      0.00
    1   25    4      0.71      0.00
   -6   26    4     -0.18      0.00
   -4   26    4     -0.70      0.00
   -2   26    4     -0.62      0.00
  -21    1    5      0.37      0.00
  -19    1    5      0.42      0.00
  -17    1    5     -0.14      0.00
  -15    1    5     -0.66      0.00
  -13    1    5     -0.90      0.00
  -11    1    5     -1.16      0.00
   -9    1    5     -1.12      0.00
   -7    1    5     -0.58      0.00
   -5    1    5     -0.18      0.00
   -3    1    5     -0.20      0.00
   -1    1    5     -0.08      0.00
    1    1    5      0.13      0.00
    3    1    5      0.01      0.00
    5    1    5     -0.14      0.00
    7    1    5     -0.05      0.00
    9    1    5      0.01      0.00
   11    1    5     -0.07      0.00
  -20    2    5     -0.89      0.00
  -18    2    5     -0.34      0.00
  -16    2    5      0.82      0.00
  -14    2    5      1.45      0.00
  -12    2    5      1.88      0.00
  -10    2    5      2.24      0.00
   -8    2    5      1.63      0.00
   -6    2    5      0.59      0.00
   -4    2    5      0.36      0.00
   -2    2    5      0.37      0.00
    0    2    5     -0.08      0.00
    2    2    5     -0.19      0.00
    4    2    5      0.18      0.00
    6    2    5      0.22      0.00
    8    2    5      0.04      0.00
   10    2    5      0.13      0.00
   12    2    5      0.26      0.00
  -21    3    5      0.96      0.00
  -19    3    5      1.00      0.00
  -17    3    5     -0.35      0.00
  -15    3    5     -1.53      0.00
  -13    3    5     -2.09      0.00
  -11    3    5     -2.78      0.00
   -9    3    5     -2.73      0.00
   -7    3    5     -1.38      0.00
   -5    3    5     -0.53      0.00
   -3    3    5     -0.66      0.00
   -1    3    5     -0.29      0.00
    1    3    5      0.28      0.00
    3    3    5     -0.01      0.00
    5    3    5     -0.37      0.00
    7    3    5     -0.21      0.00
    9    3    5     -0.23      0.00
   11    3    5     -0.47      0.00
  -20    4    5     -1.30      0.00
  -18    4    5     -0.41      0.00
  -16    4    5      1.13      0.00
  -14    4    5      1.87      0.00
  -12    4    5      2.57      0.00
  -10    4    5      3.22      0.00
   -8    4    5      2.31      0.00
   -6    4    5      0.88      0.00
   -4    4    5      0.79      0.00
   -2    4    5      0.82      0.00
    0    4    5      0.00      0.00
    2    4    5     -0.22      0.00
    4    4    5      0.32      0.00
    6    4    5      0.39      0.00
    8    4    5      0.35      0.00
   10    4    5      0.72      0.00
   12    4    5      0.81      0.00
  -21    5    5      1.08      0.00
  -19    5    5      0.95      0.00
  -17    5    5     -0.44      0.00
  -15    5    5     -1.37      0.00
  -13    5    5     -1.85      0.00
  -11    5    5     -2.80      0.00
   -9    5    5     -2.82      0.00
   -7    5    5     -1.40      0.00
   -5    5    5     -0.81      0.00
   -3    5    5     -1.19      0.00
   -1    5    5     -0.62      0.00
    1    5    5      0.20      0.00
    3    5    5     -0.09      0.00
    5    5    5     -0.44      0.00
    7    5    5     -0.41      0.00
    9    5    5     -0.87      0.00
   11    5    5     -1.27      0.00
  -20    6    5     -0.98      0.00
  -18    6    5     -0.13      0.00
  -16    6    5      0.80      0.00
  -14    6    5      1.02      0.00
  -12    6    5      1.71      0.00
  -10    6    5      2.48      0.00
   -8    6    5      1.74      0.00
   -6    6    5      0.82      0.00
   -4    6    5      1.23      0.00
   -2    6    5      1.27      0.00
    0    6    5      0.23      0.00
    2    6    5     -0.09      0.00
    4    6    5      0.31      0.00
    6    6    5      0.36      0.00
    8    6    5      0.76      0.00
   10    6    5      1.56      0.00
  -21    7    5      0.61      0.00
  -19    7    5      0.29      0.00
  -17    7    5     -0.42      0.00
  -15    7    5     -0.42      0.00
  -13    7    5     -0.51      0.00
  -11    7    5     -1.39      0.00
   -9    7    5     -1.51      0.00
   -7    7    5     -0.73      0.00
   -5    7    5     -0.94      0.00
   -3    7    5     -1.56      0.00
   -1    7    5     -0.88      0.00
    1    7    5      0.00      0.00
    3    7    5     -0.11      0.00
    5    7    5     -0.24      0.00
    7    7    5     -0.45      0.00
    9    7    5     -1.43      0.00
   11    7    5     -1.94      0.00
  -20    8    5     -0.09      0.00
  -18    8    5      0.39      0.00
  -16    8    5      0.25      0.00
  -14    8    5     -0.25      0.00
  -12    8    5      0.12      0.00
  -10    8    5      0.68      0.00
   -8    8    5      0.37      0.00
   -6    8    5      0.43      0.00
   -4    8    5      1.32      0.00
   -2    8    5      1.32      0.00
    0    8    5      0.34      0.00
    2    8    5      0.00      0.00
    4    8    5      0.09      0.00
    6    8    5      0.12      0.00
    8    8    5      0.91      0.00
   10    8    5      1.95      0.00
  -19    9    5     -0.61      0.00
  -17    9    5     -0.51      0.00
  -15    9    5      0.32      0.00
  -13    9    5      0.66      0.00
  -11    9    5      0.31      0.00
   -9    9    5      0.32      0.00
   -7    9    5      0.27      0.00
   -5    9    5     -0.63      0.00
   -3    9    5     -1.22      0.00
   -1    9    5     -0.60      0.00
    1    9    5      0.01      0.00
    3    9    5      0.03      0.00
    5    9    5      0.09      0.00
    7    9    5     -0.30      0.00
    9    9    5     -1.44      0.00
   11    9    5     -1.87      0.00
  -20   10    5      0.82      0.00
  -18   10    5      0.95      0.00
  -16   10    5      0.18      0.00
  -14   10    5     -0.63      0.00
  -12   10    5     -0.83      0.00
  -10   10    5     -0.99      0.00
   -8   10    5     -1.07      0.00
   -6   10    5     -0.30      0.00
   -4   10    5      0.59      0.00
   -2   10    5      0.45      0.00
    0   10    5     -0.09      0.00
    2   10    5     -0.17      0.00
    4   10    5     -0.18      0.00
    6   10    5     -0.09      0.00
    8   10    5      0.71      0.00
   10   10    5      1.51      0.00
  -19   11    5     -1.27      0.00
  -17   11    5     -0.87      0.00
  -15   11    5     -0.04      0.00
  -13   11    5      0.53      0.00
  -11   11    5      1.14      0.00
   -9   11    5      1.70      0.00
   -7   11    5      1.28      0.00
   -5   11    5      0.32      0.00
   -3   11    5      0.14      0.00
   -1   11    5      0.49      0.00
    1   11    5      0.47      0.00
    3   11    5      0.29      0.00
    5   11    5      0.23      0.00
    7   11    5     -0.19      0.00
    9   11    5     -0.88      0.00
  -18   12    5      1.36      0.00
  -16   12    5      0.86      0.00
  -14   12    5      0.37      0.00
  -12   12    5     -0.47      0.00
  -10   12    5     -1.73      0.00
   -8   12    5     -2.03      0.00
   -6   12    5     -1.24      0.00
   -4   12    5     -0.90      0.00
   -2   12    5     -1.21      0.00
    0   12    5     -1.08      0.00
    2   12    5     -0.59      0.00
    4   12    5     -0.31      0.00
    6   12    5     -0.01      0.00
    8   12    5      0.40      0.00
   10   12    5      0.53      0.00
  -19   13    5     -1.40      0.00
  -17   13    5     -1.39      0.00
  -15   13    5     -1.27      0.00
  -13   13    5     -0.73      0.00
  -11   13    5      0.92      0.00
   -9   13    5      2.25      0.00
   -7   13    5      1.99      0.00
   -5   13    5      1.54      0.00
   -3   13    5      1.91      0.00
   -1   13    5      1.95      0.00
    1   13    5      1.21      0.00
    3   13    5      0.56      0.00
    5   13    5      0.10      0.00
    7   13    5     -0.25      0.00
    9   13    5     -0.18      0.00
  -18   14    5      1.45      0.00
  -16   14    5      1.72      0.00
  -14   14    5      1.79      0.00
  -12   14    5      0.45      0.00
  -10   14    5     -1.69      0.00
   -8   14    5     -2.38      0.00
   -6   14    5     -1.95      0.00
   -4   14    5     -2.25      0.00
   -2   14    5     -2.68      0.00
    0   14    5     -2.06      0.00
    2   14    5     -1.06      0.00
    4   14    5     -0.32      0.00
    6   14    5      0.22      0.00
    8   14    5      0.15      0.00
  -17   15    5     -1.61      0.00
  -15   15    5     -2.17      0.00
  -13   15    5     -1.66      0.00
  -11   15    5      0.54      0.00
   -9   15    5      2.26      0.00
   -7   15    5      2.20      0.00
   -5   15    5      2.17      0.00
   -3   15    5      2.86      0.00
   -1   15    5      2.76      0.00
    1   15    5      1.75      0.00
    3   15    5      0.75      0.00
    5   15    5     -0.04      0.00
    7   15    5     -0.27      0.00
  -18   16    5      1.18      0.00
  -16   16    5      1.84      0.00
  -14   16    5      2.07      0.00
  -12   16    5      0.57      0.00
  -10   16    5     -1.64      0.00
   -8   16    5     -2.29      0.00
   -6   16    5     -1.96      0.00
   -4   16    5     -2.41      0.00
   -2   16    5     -2.87      0.00
    0   16    5     -2.30      0.00
    2   16    5     -1.29      0.00
    4   16    5     -0.35      0.00
    6   16    5      0.24      0.00
    8   16    5     -0.07      0.00
  -17   17    5     -1.23      0.00
  -15   17    5     -1.66      0.00
  -13   17    5     -1.00      0.00
  -11   17    5      0.94      0.00
   -9   17    5      2.18      0.00
   -7   17    5      1.89      0.00
   -5   17    5      1.73      0.00
   -3   17    5      2.27      0.00
   -1   17    5      2.33      0.00
    1   17    5      1.69      0.00
    3   17    5      0.83      0.00
    5   17    5      0.03      0.00
    7   17    5     -0.08      0.00
  -16   18    5      0.95      0.00
  -14   18    5      0.66      0.00
  -12   18    5     -0.65      0.00
  -10   18    5     -1.99      0.00
   -8   18    5     -1.97      0.00
   -6   18    5     -1.31      0.00
   -4   18    5     -1.33      0.00
   -2   18    5     -1.71      0.00
    0   18    5     -1.66      0.00
    2   18    5     -1.16      0.00
    4   18    5     -0.42      0.00
    6   18    5      0.01      0.00
  -15   19    5     -0.04      0.00
  -13   19    5      0.94      0.00
  -11   19    5      2.00      0.00
   -9   19    5      2.11      0.00
   -7   19    5      1.29      0.00
   -5   19    5      0.65      0.00
   -3   19    5      0.74      0.00
   -1   19    5      1.08      0.00
    1   19    5      1.15      0.00
    3   19    5      0.73      0.00
    5   19    5      0.19      0.00
  -14   20    5     -1.37      0.00
  -12   20    5     -2.31      0.00
  -10   20    5     -2.36      0.00
   -8   20    5     -1.50      0.00
   -6   20    5     -0.48      0.00
   -4   20    5      0.01      0.00
   -2   20    5     -0.20      0.00
    0   20    5     -0.71      0.00
    2   20    5     -0.80      0.00
    4   20    5     -0.39      0.00
  -13   21    5      2.62      0.00
  -11   21    5      2.73      0.00
   -9   21    5      1.78      0.00
   -7   21    5      0.63      0.00
   -5   21    5     -0.23      0.00
   -3   21    5     -0.51      0.00
   -1   21    5     -0.02      0.00
    1   21    5      0.57      0.00
    3   21    5      0.49      0.00
  -12   22    5     -3.03      0.00
  -10   22    5     -2.11      0.00
   -8   22    5     -0.81      0.00
   -6   22    5      0.11      0.00
   -4   22    5      0.71      0.00
   -2   22    5      0.64      0.00
    0   22    5     -0.08      0.00
    2   22    5     -0.45      0.00
  -11   23    5      2.41      0.00
   -9   23    5      0.99      0.00
   -7   23    5      0.00      0.00
   -5   23    5     -0.56      0.00
   -3   23    5     -0.85      0.00
   -1   23    5     -0.41      0.00
    1   23    5      0.24      0.00
   -8   24    5      0.00      0.00
   -6   24    5      0.45      0.00
   -4   24    5      0.71      0.00
   -2   24    5      0.66      0.00
    0   24    5      0.07      0.00
   -5   25    5     -0.58      0.00
  -20    0    6     -2.68      0.00
  -18    0    6     -3.15      0.00
  -16    0    6     -2.45      0.00
  -14    0    6     -1.06      0.00
  -12    0    6      0.34      0.00
  -10    0    6      0.32      0.00
   -8    0    6     -0.88      0.00
   -6    0    6     -1.15      0.00
   -4    0    6     -0.56      0.00
   -2    0    6     -0.90      0.00
    0    0    6     -1.33      0.00
    2    0    6      0.14      0.00
    4    0    6      2.68      0.00
    6    0    6      3.75      0.00
    8    0    6      2.27      0.00
  -21    1    6      1.78      0.00
  -19    1    6      2.87      0.00
  -17    1    6      2.76      0.00
  -15    1    6      1.76      0.00
  -13    1    6      0.30      0.00
  -11    1    6     -0.51      0.00
   -9    1    6      0.26      0.00
   -7    1    6      1.11      0.00
   -5    1    6      0.68      0.00
   -3    1    6      0.43      0.00
   -1    1    6      1.12      0.00
    1    1    6      0.82      0.00
    3    1    6     -1.30      0.00
    5    1    6     -3.27      0.00
    7    1    6     -3.07      0.00
    9    1    6     -0.93      0.00
  -20    2    6     -1.83      0.00
  -18    2    6     -2.43      0.00
  -16    2    6     -2.07      0.00
  -14    2    6     -0.99      0.00
  -12    2    6      0.17      0.00
  -10    2    6      0.18      0.00
   -8    2    6     -0.67      0.00
   -6    2    6     -0.64      0.00
   -4    2    6      0.01      0.00
   -2    2    6     -0.32      0.00
    0    2    6     -0.91      0.00
    2    2    6     -0.02      0.00
    4    2    6      1.87      0.00
    6    2    6      2.79      0.00
    8    2    6      1.75      0.00
   10    2    6     -0.15      0.00
  -21    3    6      0.42      0.00
  -19    3    6      1.39      0.00
  -17    3    6      1.77      0.00
  -15    3    6      1.35      0.00
  -13    3    6      0.40      0.00
  -11    3    6     -0.13      0.00
   -9    3    6      0.24      0.00
   -7    3    6      0.38      0.00
   -5    3    6     -0.33      0.00
   -3    3    6     -0.60      0.00
   -1    3    6      0.13      0.00
    1    3    6      0.47      0.00
    3    3    6     -0.40      0.00
    5    3    6     -1.56      0.00
    7    3    6     -1.70      0.00
    9    3    6     -0.57      0.00
  -20    4    6      0.01      0.00
  -18    4    6     -0.87      0.00
  -16    4    6     -1.18      0.00
  -14    4    6     -0.75      0.00
  -12    4    6     -0.21      0.00
  -10    4    6     -0.16      0.00
   -8    4    6     -0.12      0.00
   -6    4    6      0.59      0.00
   -4    4    6      1.29      0.00
   -2    4    6      1.01      0.00
    0    4    6      0.12      0.00
    2    4    6     -0.27      0.00
    4    4    6      0.17      0.00
    6    4    6      0.80      0.00
    8    4    6      0.74      0.00
  -21    5    6     -1.14      0.00
  -19    5    6     -0.35      0.00
  -17    5    6      0.51      0.00
  -15    5    6      0.66      0.00
  -13    5    6      0.43      0.00
  -11    5    6      0.37      0.00
   -9    5    6      0.13      0.00
   -7    5    6     -0.73      0.00
   -5    5    6     -1.69      0.00
   -3    5    6     -1.91      0.00
   -1    5    6     -1.25      0.00
    1    5    6     -0.15      0.00
    3    5    6      0.54      0.00
    5    5    6      0.34      0.00
    7    5    6     -0.22      0.00
    9    5    6     -0.33      0.00
  -20    6    6      1.37      0.00
  -18    6    6      0.37      0.00
  -16    6    6     -0.21      0.00
  -14    6    6     -0.27      0.00
  -12    6    6     -0.49      0.00
  -10    6    6     -0.43      0.00
   -8    6    6      0.59      0.00
   -6    6    6      1.84      0.00
   -4    6    6      2.40      0.00
   -2    6    6      2.20      0.00
    0    6    6      1.22      0.00
    2    6    6     -0.24      0.00
    4    6    6     -0.99      0.00
    6    6    6     -0.56      0.00
    8    6    6      0.15      0.00
  -21    7    6     -1.79      0.00
  -19    7    6     -1.10      0.00
  -17    7    6     -0.31      0.00
  -15    7    6     -0.17      0.00
  -13    7    6      0.20      0.00
  -11    7    6      0.68      0.00
   -9    7    6     -0.10      0.00
   -7    7    6     -1.71      0.00
   -5    7    6     -2.57      0.00
   -3    7    6     -2.63      0.00
   -1    7    6     -2.17      0.00
    1    7    6     -0.75      0.00
    3    7    6      0.81      0.00
    5    7    6      1.07      0.00
    7    7    6      0.27      0.00
    9    7    6     -0.45      0.00
  -20    8    6      1.43      0.00
  -18    8    6      0.63      0.00
  -16    8    6      0.55      0.00
  -14    8    6      0.45      0.00
  -12    8    6     -0.46      0.00
  -10    8    6     -0.49      0.00
   -8    8    6      1.17      0.00
   -6    8    6      2.50      0.00
   -4    8    6      2.65      0.00
   -2    8    6      2.51      0.00
    0    8    6      1.72      0.00
    2    8    6     -0.01      0.00
    4    8    6     -1.04      0.00
    6    8    6     -0.60      0.00
    8    8    6      0.24      0.00
  -19    9    6     -0.67      0.00
  -17    9    6     -0.55      0.00
  -15    9    6     -1.02      0.00
  -13    9    6     -0.32      0.00
  -11    9    6      0.67      0.00
   -9    9    6     -0.32      0.00
   -7    9    6     -2.09      0.00
   -5    9    6     -2.50      0.00
   -3    9    6     -2.30      0.00
   -1    9    6     -2.07      0.00
    1    9    6     -0.85      0.00
    3    9    6      0.58      0.00
    5    9    6      0.66      0.00
    7    9    6     -0.06      0.00
  -20   10    6      0.53      0.00
  -18   10    6      0.20      0.00
  -16   10    6      1.04      0.00
  -14   10    6      1.22      0.00
  -12   10    6     -0.15      0.00
  -10   10    6     -0.40      0.00
   -8   10    6      1.26      0.00
   -6   10    6      2.20      0.00
   -4   10    6      1.86      0.00
   -2   10    6      1.71      0.00
    0   10    6      1.22      0.00
    2   10    6     -0.03      0.00
    4   10    6     -0.54      0.00
    6   10    6     -0.01      0.00
    8   10    6      0.45      0.00
  -19   11    6      0.23      0.00
  -17   11    6     -0.47      0.00
  -15   11    6     -1.60      0.00
  -13   11    6     -0.82      0.00
  -11   11    6      0.48      0.00
   -9   11    6     -0.25      0.00
   -7   11    6     -1.57      0.00
   -5   11    6     -1.45      0.00
   -3   11    6     -1.00      0.00
   -1   11    6     -0.90      0.00
    1   11    6     -0.20      0.00
    3   11    6      0.44      0.00
    5   11    6      0.08      0.00
    7   11    6     -0.37      0.00
  -18   12    6     -0.32      0.00
  -16   12    6      1.17      0.00
  -14   12    6      1.57      0.00
  -12   12    6      0.13      0.00
  -10   12    6     -0.40      0.00
   -8   12    6      0.64      0.00
   -6   12    6      0.95      0.00
   -4   12    6      0.33      0.00
   -2   12    6      0.12      0.00
    0   12    6     -0.06      0.00
    2   12    6     -0.50      0.00
    4   12    6     -0.27      0.00
    6   12    6      0.27      0.00
  -19   13    6      0.86      0.00
  -17   13    6     -0.24      0.00
  -15   13    6     -1.52      0.00
  -13   13    6     -0.90      0.00
  -11   13    6      0.35      0.00
   -9   13    6      0.20      0.00
   -7   13    6     -0.27      0.00
   -5   13    6      0.19      0.00
   -3   13    6      0.67      0.00
   -1   13    6      0.71      0.00
    1   13    6      0.81      0.00
    3   13    6      0.58      0.00
    5   13    6     -0.03      0.00
    7   13    6     -0.20      0.00
  -18   14    6     -0.60      0.00
  -16   14    6      0.77      0.00
  -14   14    6      1.13      0.00
  -12   14    6      0.11      0.00
  -10   14    6     -0.53      0.00
   -8   14    6     -0.41      0.00
   -6   14    6     -0.67      0.00
   -4   14    6     -1.21      0.00
   -2   14    6     -1.38      0.00
    0   14    6     -1.30      0.00
    2   14    6     -0.97      0.00
    4   14    6     -0.31      0.00
    6   14    6      0.04      0.00
  -17   15    6      0.13      0.00
  -15   15    6     -0.66      0.00
  -13   15    6     -0.37      0.00
  -11   15    6      0.34      0.00
   -9   15    6      0.72      0.00
   -7   15    6      1.07      0.00
   -5   15    6      1.52      0.00
   -3   15    6      1.76      0.00
   -1   15    6      1.72      0.00
    1   15    6      1.34      0.00
    3   15    6      0.64      0.00
    5   15    6      0.16      0.00
  -16   16    6     -0.08      0.00
  -14   16    6      0.06      0.00
  -12   16    6     -0.16      0.00
  -10   16    6     -0.55      0.00
   -8   16    6     -1.16      0.00
   -6   16    6     -1.67      0.00
   -4   16    6     -1.81      0.00
   -2   16    6     -1.79      0.00
    0   16    6     -1.54      0.00
    2   16    6     -0.86      0.00
    4   16    6     -0.30      0.00
  -15   17    6      0.52      0.00
  -13   17    6      0.39      0.00
  -11   17    6      0.26      0.00
   -9   17    6      0.78      0.00
   -7   17    6      1.55      0.00
   -5   17    6      1.67      0.00
   -3   17    6      1.47      0.00
   -1   17    6      1.34      0.00
    1   17    6      0.87      0.00
    3   17    6      0.29      0.00
    5   17    6      0.25      0.00
  -16   18    6     -0.85      0.00
  -14   18    6     -0.91      0.00
  -12   18    6     -0.33      0.00
  -10   18    6     -0.22      0.00
   -8   18    6     -1.02      0.00
   -6   18    6     -1.40      0.00
   -4   18    6     -1.00      0.00
   -2   18    6     -0.74      0.00
    0   18    6     -0.55      0.00
    2   18    6     -0.14      0.00
    4   18    6     -0.09      0.00
  -15   19    6      1.19      0.00
  -13   19    6      0.74      0.00
  -11   19    6     -0.06      0.00
   -9   19    6      0.25      0.00
   -7   19    6      0.90      0.00
   -5   19    6      0.59      0.00
   -3   19    6     -0.01      0.00
   -1   19    6     -0.13      0.00
    1   19    6     -0.23      0.00
    3   19    6     -0.19      0.00
  -14   20    6     -1.05      0.00
  -12   20    6     -0.11      0.00
  -10   20    6      0.34      0.00
   -8   20    6     -0.21      0.00
   -6   20    6     -0.24      0.00
   -4   20    6      0.55      0.00
   -2   20    6      0.95      0.00
    0   20    6      0.82      0.00
    2   20    6      0.55      0.00
  -13   21    6      0.37      0.00
  -11   21    6     -0.49      0.00
   -9   21    6     -0.40      0.00
   -7   21    6     -0.13      0.00
   -5   21    6     -0.75      0.00
   -3   21    6     -1.50      0.00
   -1   21    6     -1.49      0.00
    1   21    6     -1.00      0.00
  -10   22    6      0.68      0.00
   -8   22    6      0.44      0.00
   -6   22    6      0.73      0.00
   -4   22    6      1.57      0.00
   -2   22    6      1.90      0.00
   -9   23    6     -0.56      0.00
   -7   23    6     -0.62      0.00
   -5   23    6     -1.27      0.00
   -3   23    6     -1.83      0.00
  -21    1    7      0.05      0.00
  -19    1    7      0.09      0.00
  -17    1    7     -0.11      0.00
  -15    1    7     -0.27      0.00
  -13    1    7     -0.03      0.00
  -11    1    7      0.18      0.00
   -9    1    7      0.07      0.00
   -7    1    7      0.03      0.00
   -5    1    7      0.07      0.00
   -3    1    7     -0.21      0.00
   -1    1    7     -0.57      0.00
    1    1    7     -0.53      0.00
    3    1    7     -0.20      0.00
    5    1    7      0.08      0.00
    7    1    7      0.13      0.00
  -20    2    7     -0.22      0.00
  -18    2    7     -0.06      0.00
  -16    2    7      0.46      0.00
  -14    2    7      0.36      0.00
  -12    2    7     -0.23      0.00
  -10    2    7     -0.26      0.00
   -8    2    7      0.00      0.00
   -6    2    7     -0.10      0.00
   -4    2    7      0.06      0.00
   -2    2    7      0.78      0.00
    0    2    7      1.12      0.00
    2    2    7      0.66      0.00
    4    2    7      0.03      0.00
    6    2    7     -0.30      0.00
  -21    3    7      0.29      0.00
  -19    3    7      0.41      0.00
  -17    3    7     -0.29      0.00
  -15    3    7     -0.77      0.00
  -13    3    7     -0.09      0.00
  -11    3    7      0.44      0.00
   -9    3    7      0.06      0.00
   -7    3    7     -0.07      0.00
   -5    3    7      0.09      0.00
   -3    3    7     -0.55      0.00
   -1    3    7     -1.38      0.00
    1    3    7     -1.19      0.00
    3    3    7     -0.34      0.00
    5    3    7      0.35      0.00
    7    3    7      0.54      0.00
  -20    4    7     -0.72      0.00
  -18    4    7     -0.25      0.00
  -16    4    7      0.86      0.00
  -14    4    7      0.70      0.00
  -12    4    7     -0.33      0.00
  -10    4    7     -0.27      0.00
   -8    4    7      0.27      0.00
   -6    4    7      0.07      0.00
   -4    4    7      0.18      0.00
   -2    4    7      1.14      0.00
    0    4    7      1.48      0.00
    2    4    7      0.72      0.00
    4    4    7     -0.21      0.00
    6    4    7     -0.78      0.00
  -21    5    7      0.84      0.00
  -19    5    7      0.93      0.00
  -17    5    7     -0.39      0.00
  -15    5    7     -1.20      0.00
  -13    5    7     -0.23      0.00
  -11    5    7      0.43      0.00
   -9    5    7     -0.25      0.00
   -7    5    7     -0.46      0.00
   -5    5    7     -0.10      0.00
   -3    5    7     -0.62      0.00
   -1    5    7     -1.33      0.00
    1    5    7     -0.95      0.00
    3    5    7     -0.01      0.00
    5    5    7      0.76      0.00
    7    5    7      1.13      0.00
  -20    6    7     -1.41      0.00
  -18    6    7     -0.52      0.00
  -16    6    7      1.14      0.00
  -14    6    7      0.98      0.00
  -12    6    7     -0.21      0.00
  -10    6    7      0.01      0.00
   -8    6    7      0.75      0.00
   -6    6    7      0.43      0.00
   -4    6    7      0.24      0.00
   -2    6    7      0.81      0.00
    0    6    7      0.84      0.00
    2    6    7      0.11      0.00
    4    6    7     -0.60      0.00
    6    6    7     -1.19      0.00
  -19    7    7      1.43      0.00
  -17    7    7     -0.37      0.00
  -15    7    7     -1.39      0.00
  -13    7    7     -0.38      0.00
  -11    7    7      0.15      0.00
   -9    7    7     -0.69      0.00
   -7    7    7     -0.91      0.00
   -5    7    7     -0.31      0.00
   -3    7    7     -0.28      0.00
   -1    7    7     -0.42      0.00
    1    7    7      0.03      0.00
    3    7    7      0.54      0.00
    5    7    7      0.99      0.00
    7    7    7      1.44      0.00
  -20    8    7     -1.89      0.00
  -18    8    7     -0.74      0.00
  -16    8    7      1.05      0.00
  -14    8    7      0.95      0.00
  -12    8    7     -0.01      0.00
  -10    8    7      0.38      0.00
   -8    8    7      1.13      0.00
   -6    8    7      0.75      0.00
   -4    8    7      0.14      0.00
   -2    8    7     -0.04      0.00
    0    8    7     -0.36      0.00
    2    8    7     -0.70      0.00
    4    8    7     -0.82      0.00
    6    8    7     -1.20      0.00
  -19    9    7      1.59      0.00
  -17    9    7     -0.09      0.00
  -15    9    7     -0.95      0.00
  -13    9    7     -0.26      0.00
  -11    9    7     -0.10      0.00
   -9    9    7     -0.93      0.00
   -7    9    7     -1.14      0.00
   -5    9    7     -0.46      0.00
   -3    9    7      0.17      0.00
   -1    9    7      0.67      0.00
    1    9    7      1.00      0.00
    3    9    7      0.90      0.00
    5    9    7      0.89      0.00
  -18   10    7     -0.90      0.00
  -16   10    7      0.26      0.00
  -14   10    7      0.21      0.00
  -12   10    7     -0.10      0.00
  -10   10    7      0.49      0.00
   -8   10    7      1.13      0.00
   -6   10    7      0.90      0.00
   -4   10    7      0.15      0.00
   -2   10    7     -0.66      0.00
    0   10    7     -1.19      0.00
    2   10    7     -1.13      0.00
    4   10    7     -0.82      0.00
    6   10    7     -0.87      0.00
  -19   11    7      1.35      0.00
  -17   11    7      0.64      0.00
  -15   11    7      0.40      0.00
  -13   11    7      0.49      0.00
  -11   11    7      0.04      0.00
   -9   11    7     -0.71      0.00
   -7   11    7     -1.01      0.00
   -5   11    7     -0.66      0.00
   -3   11    7      0.19      0.00
   -1   11    7      1.03      0.00
    1   11    7      1.25      0.00
    3   11    7      0.93      0.00
    5   11    7      0.73      0.00
  -18   12    7     -1.11      0.00
  -16   12    7     -1.22      0.00
  -14   12    7     -1.28      0.00
  -12   12    7     -0.73      0.00
  -10   12    7      0.08      0.00
   -8   12    7      0.63      0.00
   -6   12    7      0.85      0.00
   -4   12    7      0.47      0.00
   -2   12    7     -0.42      0.00
    0   12    7     -1.00      0.00
    2   12    7     -0.95      0.00
    4   12    7     -0.77      0.00
  -17   13    7      1.61      0.00
  -15   13    7      2.21      0.00
  -13   13    7      1.71      0.00
  -11   13    7      0.67      0.00
   -9   13    7      0.03      0.00
   -7   13    7     -0.45      0.00
   -5   13    7     -0.78      0.00
   -3   13    7     -0.38      0.00
   -1   13    7      0.33      0.00
    1   13    7      0.64      0.00
    3   13    7      0.74      0.00
  -16   14    7     -2.64      0.00
  -14   14    7     -2.78      0.00
  -12   14    7     -1.59      0.00
  -10   14    7     -0.71      0.00
   -8   14    7     -0.31      0.00
   -6   14    7      0.37      0.00
   -4   14    7      0.81      0.00
   -2   14    7      0.50      0.00
    0   14    7      0.03      0.00
    2   14    7     -0.38      0.00
    4   14    7     -0.78      0.00
  -17   15    7      2.19      0.00
  -15   15    7      3.36      0.00
  -13   15    7      2.59      0.00
  -11   15    7      1.36      0.00
   -9   15    7      1.01      0.00
   -7   15    7      0.56      0.00
   -5   15    7     -0.41      0.00
   -3   15    7     -0.96      0.00
   -1   15    7     -0.81      0.00
    1   15    7     -0.30      0.00
    3   15    7      0.47      0.00
  -16   16    7     -2.97      0.00
  -14   16    7     -3.20      0.00
  -12   16    7     -2.00      0.00
  -10   16    7     -1.41      0.00
   -8   16    7     -1.43      0.00
   -6   16    7     -0.67      0.00
   -4   16    7      0.57      0.00
   -2   16    7      1.24      0.00
    0   16    7      1.03      0.00
    2   16    7      0.15      0.00
  -15   17    7      2.95      0.00
  -13   17    7      2.39      0.00
  -11   17    7      1.58      0.00
   -9   17    7      1.77      0.00
   -7   17    7      1.77      0.00
   -5   17    7      0.61      0.00
   -3   17    7     -0.87      0.00
   -1   17    7     -1.45      0.00
    1   17    7     -0.83      0.00
  -14   18    7     -2.16      0.00
  -12   18    7     -1.57      0.00
  -10   18    7     -1.61      0.00
   -8   18    7     -2.23      0.00
   -6   18    7     -1.90      0.00
   -4   18    7     -0.31      0.00
   -2   18    7      1.17      0.00
    0   18    7      1.27      0.00
  -13   19    7      1.21      0.00
  -11   19    7      1.21      0.00
   -9   19    7      1.95      0.00
   -7   19    7      2.55      0.00
   -5   19    7      1.70      0.00
   -3   19    7     -0.17      0.00
   -1   19    7     -1.20      0.00
  -12   20    7     -0.68      0.00
  -10   20    7     -1.30      0.00
   -8   20    7     -2.30      0.00
   -6   20    7     -2.52      0.00
   -4   20    7     -1.13      0.00
   -2   20    7      0.54      0.00
   -9   21    7      1.55      0.00
   -7   21    7      2.39      0.00
   -5   21    7      2.03      0.00
  -20    0    8      0.96      0.00
  -18    0    8      1.52      0.00
  -16    0    8      2.37      0.00
  -14    0    8      1.91      0.00
  -12    0    8      0.43      0.00
  -10    0    8     -0.42      0.00
   -8    0    8     -0.49      0.00
   -6    0    8     -0.30      0.00
   -4    0    8      0.15      0.00
   -2    0    8      0.35      0.00
    0    0    8     -0.46      0.00
    2    0    8     -1.69      0.00
    4    0    8     -2.01      0.00
  -19    1    8     -0.99      0.00
  -17    1    8     -1.86      0.00
  -15    1    8     -2.19      0.00
  -13    1    8     -1.06      0.00
  -11    1    8      0.19      0.00
   -9    1    8      0.51      0.00
   -7    1    8      0.40      0.00
   -5    1    8      0.10      0.00
   -3    1    8     -0.32      0.00
   -1    1    8     -0.07      0.00
    1    1    8      1.00      0.00
    3    1    8      1.80      0.00
    5    1    8      1.50      0.00
  -20    2    8      0.47      0.00
  -18    2    8      0.95      0.00
  -16    2    8      1.75      0.00
  -14    2    8      1.37      0.00
  -12    2    8      0.10      0.00
  -10    2    8     -0.55      0.00
   -8    2    8     -0.45      0.00
   -6    2    8     -0.23      0.00
   -4    2    8      0.08      0.00
   -2    2    8      0.24      0.00
    0    2    8     -0.27      0.00
    2    2    8     -1.05      0.00
    4    2    8     -1.18      0.00
  -19    3    8     -0.09      0.00
  -17    3    8     -0.81      0.00
  -15    3    8     -1.15      0.00
  -13    3    8     -0.31      0.00
  -11    3    8      0.58      0.00
   -9    3    8      0.58      0.00
   -7    3    8      0.27      0.00
   -5    3    8      0.08      0.00
   -3    3    8     -0.08      0.00
   -1    3    8     -0.07      0.00
    1    3    8      0.25      0.00
    3    3    8      0.42      0.00
  -20    4    8     -0.45      0.00
  -18    4    8     -0.15      0.00
  -16    4    8      0.48      0.00
  -14    4    8      0.32      0.00
  -12    4    8     -0.52      0.00
  -10    4    8     -0.80      0.00
   -8    4    8     -0.39      0.00
   -6    4    8     -0.11      0.00
   -4    4    8     -0.11      0.00
   -2    4    8     -0.04      0.00
    0    4    8      0.15      0.00
    2    4    8      0.33      0.00
    4    4    8      0.53      0.00
  -19    5    8      0.71      0.00
  -17    5    8      0.27      0.00
  -15    5    8     -0.07      0.00
  -13    5    8      0.36      0.00
  -11    5    8      0.91      0.00
   -9    5    8      0.68      0.00
   -7    5    8      0.17      0.00
   -5    5    8      0.16      0.00
   -3    5    8      0.32      0.00
   -1    5    8     -0.01      0.00
    1    5    8     -0.67      0.00
    3    5    8     -1.15      0.00
  -20    6    8     -0.76      0.00
  -18    6    8     -0.71      0.00
  -16    6    8     -0.31      0.00
  -14    6    8     -0.21      0.00
  -12    6    8     -0.69      0.00
  -10    6    8     -0.92      0.00
   -8    6    8     -0.44      0.00
   -6    6    8     -0.16      0.00
   -4    6    8     -0.50      0.00
   -2    6    8     -0.44      0.00
    0    6    8      0.46      0.00
    2    6    8      1.38      0.00
    4    6    8      1.64      0.00
  -19    7    8      0.63      0.00
  -17    7    8      0.56      0.00
  -15    7    8      0.20      0.00
  -13    7    8      0.24      0.00
  -11    7    8      0.77      0.00
   -9    7    8      0.78      0.00
   -7    7    8      0.34      0.00
   -5    7    8      0.53      0.00
   -3    7    8      0.90      0.00
   -1    7    8      0.19      0.00
    1    7    8     -1.11      0.00
    3    7    8     -1.75      0.00
  -18    8    8     -0.44      0.00
  -16    8    8     -0.30      0.00
  -14    8    8      0.10      0.00
  -12    8    8     -0.18      0.00
  -10    8    8     -0.78      0.00
   -8    8    8     -0.69      0.00
   -6    8    8     -0.62      0.00
   -4    8    8     -1.16      0.00
   -2    8    8     -0.99      0.00
    0    8    8      0.39      0.00
    2    8    8      1.49      0.00
  -19    9    8     -0.03      0.00
  -17    9    8      0.31      0.00
  -15    9    8     -0.09      0.00
  -13    9    8     -0.42      0.00
  -11    9    8      0.24      0.00
   -9    9    8      0.84      0.00
   -7    9    8      0.86      0.00
   -5    9    8      1.29      0.00
   -3    9    8      1.64      0.00
   -1    9    8      0.62      0.00
    1    9    8     -0.87      0.00
    3    9    8     -1.25      0.00
  -18   10    8     -0.03      0.00
  -16   10    8     -0.17      0.00
  -14   10    8      0.53      0.00
  -12   10    8      0.48      0.00
  -10   10    8     -0.49      0.00
   -8   10    8     -1.06      0.00
   -6   10    8     -1.43      0.00
   -4   10    8     -2.02      0.00
   -2   10    8     -1.61      0.00
    0   10    8     -0.05      0.00
    2   10    8      0.85      0.00
  -17   11    8      0.32      0.00
  -15   11    8     -0.05      0.00
  -13   11    8     -0.74      0.00
  -11   11    8     -0.18      0.00
   -9   11    8      0.88      0.00
   -7   11    8      1.53      0.00
   -5   11    8      2.19      0.00
   -3   11    8      2.33      0.00
   -1   11    8      1.11      0.00
    1   11    8     -0.24      0.00
  -16   12    8     -0.56      0.00
  -14   12    8      0.22      0.00
  -12   12    8      0.55      0.00
  -10   12    8     -0.34      0.00
   -8   12    8     -1.40      0.00
   -6   12    8     -2.21      0.00
   -4   12    8     -2.68      0.00
   -2   12    8     -2.02      0.00
    0   12    8     -0.58      0.00
    2   12    8      0.08      0.00
  -17   13    8      0.81      0.00
  -15   13    8      0.66      0.00
  -13   13    8     -0.15      0.00
  -11   13    8     -0.06      0.00
   -9   13    8      0.97      0.00
   -7   13    8      2.05      0.00
   -5   13    8      2.75      0.00
   -3   13    8      2.55      0.00
   -1   13    8      1.38      0.00
    1   13    8      0.37      0.00
  -16   14    8     -1.23      0.00
  -14   14    8     -0.75      0.00
  -12   14    8     -0.17      0.00
  -10   14    8     -0.55      0.00
   -8   14    8     -1.65      0.00
   -6   14    8     -2.61      0.00
   -4   14    8     -2.73      0.00
   -2   14    8     -1.91      0.00
    0   14    8     -0.88      0.00
  -15   15    8      1.41      0.00
  -13   15    8      0.91      0.00
  -11   15    8      0.58      0.00
   -9   15    8      1.19      0.00
   -7   15    8      2.29      0.00
   -5   15    8      2.71      0.00
   -3   15    8      2.11      0.00
   -1   15    8      1.22      0.00
  -14   16    8     -1.52      0.00
  -12   16    8     -1.11      0.00
  -10   16    8     -1.03      0.00
   -8   16    8     -1.85      0.00
   -6   16    8     -2.57      0.00
   -4   16    8     -2.17      0.00
   -2   16    8     -1.31      0.00
  -13   17    8      1.59      0.00
  -11   17    8      1.26      0.00
   -9   17    8      1.52      0.00
   -7   17    8      2.29      0.00
   -5   17    8      2.21      0.00
   -3   17    8      1.29      0.00
  -10   18    8     -1.44      0.00
   -8   18    8     -1.95      0.00
   -6   18    8     -2.19      0.00
  -19    1    9      0.21      0.00
  -17    1    9      0.41      0.00
  -15    1    9      0.39      0.00
  -13    1    9      0.27      0.00
  -11    1    9      0.12      0.00
   -9    1    9     -0.15      0.00
   -7    1    9     -0.31      0.00
   -5    1    9     -0.09      0.00
   -3    1    9      0.27      0.00
   -1    1    9      0.40      0.00
    1    1    9      0.27      0.00
  -18    2    9     -0.62      0.00
  -16    2    9     -0.77      0.00
  -14    2    9     -0.58      0.00
  -12    2    9     -0.38      0.00
  -10    2    9      0.00      0.00
   -8    2    9      0.49      0.00
   -6    2    9      0.45      0.00
   -4    2    9     -0.18      0.00
   -2    2    9     -0.67      0.00
    0    2    9     -0.63      0.00
  -19    3    9      0.49      0.00
  -17    3    9      0.98      0.00
  -15    3    9      0.84      0.00
  -13    3    9      0.58      0.00
  -11    3    9      0.31      0.00
   -9    3    9     -0.31      0.00
   -7    3    9     -0.74      0.00
   -5    3    9     -0.23      0.00
   -3    3    9      0.61      0.00
   -1    3    9      0.88      0.00
    1    3    9      0.54      0.00
  -18    4    9     -0.90      0.00
  -16    4    9     -1.02      0.00
  -14    4    9     -0.66      0.00
  -12    4    9     -0.50      0.00
  -10    4    9     -0.11      0.00
   -8    4    9      0.65      0.00
   -6    4    9      0.70      0.00
   -4    4    9     -0.17      0.00
   -2    4    9     -0.83      0.00
    0    4    9     -0.71      0.00
  -17    5    9      1.04      0.00
  -15    5    9      0.70      0.00
  -13    5    9      0.44      0.00
  -11    5    9      0.43      0.00
   -9    5    9     -0.17      0.00
   -7    5    9     -0.83      0.00
   -5    5    9     -0.45      0.00
   -3    5    9      0.40      0.00
   -1    5    9      0.63      0.00
    1    5    9      0.29      0.00
  -18    6    9     -0.81      0.00
  -16    6    9     -0.75      0.00
  -14    6    9     -0.29      0.00
  -12    6    9     -0.41      0.00
  -10    6    9     -0.35      0.00
   -8    6    9      0.47      0.00
   -6    6    9      0.86      0.00
   -4    6    9      0.32      0.00
   -2    6    9     -0.19      0.00
    0    6    9     -0.16      0.00
  -17    7    9      0.73      0.00
  -15    7    9      0.24      0.00
  -13    7    9      0.15      0.00
  -11    7    9      0.54      0.00
   -9    7    9      0.16      0.00
   -7    7    9     -0.76      0.00
   -5    7    9     -0.96      0.00
   -3    7    9     -0.55      0.00
   -1    7    9     -0.27      0.00
  -16    8    9     -0.29      0.00
  -14    8    9      0.07      0.00
  -12    8    9     -0.35      0.00
  -10    8    9     -0.62      0.00
   -8    8    9      0.17      0.00
   -6    8    9      1.13      0.00
   -4    8    9      1.31      0.00
   -2    8    9      0.99      0.00
    0    8    9      0.57      0.00
  -17    9    9      0.27      0.00
  -15    9    9     -0.13      0.00
  -13    9    9      0.04      0.00
  -11    9    9      0.67      0.00
   -9    9    9      0.50      0.00
   -7    9    9     -0.66      0.00
   -5    9    9     -1.65      0.00
   -3    9    9     -1.77      0.00
   -1    9    9     -1.23      0.00
  -16   10    9      0.14      0.00
  -14   10    9      0.19      0.00
  -12   10    9     -0.41      0.00
  -10   10    9     -0.83      0.00
   -8   10    9     -0.14      0.00
   -6   10    9      1.27      0.00
   -4   10    9      2.19      0.00
   -2   10    9      1.96      0.00
  -15   11    9     -0.35      0.00
  -13   11    9      0.09      0.00
  -11   11    9      0.73      0.00
   -9   11    9      0.74      0.00
   -7   11    9     -0.37      0.00
   -5   11    9     -1.88      0.00
   -3   11    9     -2.39      0.00
  -14   12    9      0.20      0.00
  -12   12    9     -0.43      0.00
  -10   12    9     -0.86      0.00
   -8   12    9     -0.47      0.00
   -6   12    9      0.92      0.00
   -4   12    9      2.17      0.00
  -13   13    9      0.11      0.00
  -11   13    9      0.63      0.00
   -9   13    9      0.82      0.00
   -7   13    9      0.13      0.00
   -5   13    9     -1.27      0.00
  -12   14    9     -0.33      0.00
  -10   14    9     -0.68      0.00
   -8   14    9     -0.69      0.00
   -6   14    9      0.17      0.00
   -9   15    9      0.65      0.00
   -7   15    9      0.52      0.00
  -16    0   10     -0.44      0.00
  -14    0   10      0.70      0.00
  -12    0   10     -0.17      0.00
  -10    0   10     -2.52      0.00
   -8    0   10     -3.81      0.00
   -6    0   10     -3.13      0.00
  -15    1   10     -0.48      0.00
  -13    1   10     -0.75      0.00
  -11    1   10      1.19      0.00
   -9    1   10      3.34      0.00
   -7    1   10      3.62      0.00
   -5    1   10      2.33      0.00
  -16    2   10      0.31      0.00
  -14    2   10      1.46      0.00
  -12    2   10      0.43      0.00
  -10    2   10     -2.13      0.00
   -8    2   10     -3.58      0.00
   -6    2   10     -2.93      0.00
  -15    3   10     -1.82      0.00
  -13    3   10     -1.98      0.00
  -11    3   10      0.28      0.00
   -9    3   10      2.78      0.00
   -7    3   10      3.25      0.00
   -5    3   10      1.99      0.00
  -16    4   10      1.79      0.00
  -14    4   10      2.99      0.00
  -12    4   10      1.78      0.00
  -10    4   10     -1.17      0.00
   -8    4   10     -3.00      0.00
   -6    4   10     -2.53      0.00
  -15    5   10     -3.14      0.00
  -13    5   10     -3.35      0.00
  -11    5   10     -0.96      0.00
   -9    5   10      1.91      0.00
   -7    5   10      2.75      0.00
   -5    5   10      1.67      0.00
  -14    6   10      3.82      0.00
  -12    6   10      2.85      0.00
  -10    6   10     -0.11      0.00
   -8    6   10     -2.30      0.00
   -6    6   10     -2.21      0.00
  -13    7   10     -3.66      0.00
  -11    7   10     -1.77      0.00
   -9    7   10      1.05      0.00
   -7    7   10      2.27      0.00
  -12    8   10      2.85      0.00
  -10    8   10      0.56      0.00
   -8    8   10     -1.61      0.00
   -6    8   10     -1.93      0.00
  -11    9   10     -1.74      0.00
   -9    9   10      0.41      0.00
   -7    9   10      1.71      0.00
  -10   10   10      0.69      0.00
    2    0    0     48.23      0.00
    1    1    0    -54.50      0.00
    0    2    0     49.80      0.00
    8   26    0      0.70      0.00
   -1    1    1      1.30      0.00
  -20    6    1      0.10      0.00
   18    6    1      0.84      0.00
  -16   18    1      2.38      0.00
   14   18    1     -0.24      0.00
   -7   27    1     -0.20      0.00
    5   27    1     -0.86      0.00
   -4   28    1     -0.41      0.00
    2   28    1      0.15      0.00
  -21    3    2      0.97      0.00
   16   10    2     -0.02      0.00
   15   13    2     -2.07      0.00
    9   23    2     -0.96      0.00
    8   24    2      0.49      0.00
   -7   27    2     -0.42      0.00
    3   27    2      0.91      0.00
   -2   28    2      0.75      0.00
  -21    7    3     -0.96      0.00
  -15   21    3     -1.04      0.00
    9   21    3     -0.60      0.00
  -14   22    3      0.97      0.00
  -13   23    3     -0.52      0.00
  -12   24    3     -0.10      0.00
    6   24    3      0.29      0.00
   14    4    4     -0.57      0.00
  -21    9    4      2.02      0.00
  -20   12    4     -1.62      0.00
   11   15    4      0.14      0.00
    8   20    4     -0.87      0.00
  -15   21    4      0.02      0.00
    7   21    4      0.80      0.00
  -14   22    4     -0.44      0.00
    6   22    4     -0.78      0.00
    5   23    4      0.77      0.00
  -21    9    5     -0.19      0.00
  -20   12    5      1.21      0.00
    9   15    5      0.31      0.00
  -10   24    5     -1.20      0.00
   -7   25    5     -0.53      0.00
   -3   25    5     -0.62      0.00
   10    0    6     -0.18      0.00
   10    4    6      0.03      0.00
    9    9    6     -0.63      0.00
    8   12    6      0.31      0.00
    6   16    6     -0.26      0.00
  -17   17    6      0.54      0.00
    0   22    6      1.44      0.00
  -20   10    7     -1.78      0.00
    5   13    7      0.76      0.00
  -18   14    7     -1.27      0.00
   -3   21    7      0.44      0.00
    5    3    8      0.17      0.00
    4    8    8      1.48      0.00
  -18   12    8     -0.18      0.00
  -12   18    8     -1.56      0.00
   -4   18    8     -1.37      0.00
   -9   19    8      1.66      0.00
   -7   19    8      2.02      0.00
  -19    5    9      0.51      0.00
  -18    8    9     -0.52      0.00
   -2   12    9      1.99      0.00
   -3   13    9     -1.89      0.00
   -4   14    9      1.20      0.00
  -11   15    9      0.40      0.00
   -4    0   10     -1.66      0.00
  -17    1   10      0.88      0.00
   -3    1   10      1.01      0.00
   -4    2   10     -1.44      0.00
   -3    3   10      0.63      0.00
   -4    4   10     -1.05      0.00
   -4    6   10     -0.93      0.00
  -15    7   10     -3.10      0.00
   -5    7   10      1.58      0.00
  -14    8   10      3.10      0.00
  -13    9   10     -2.60      0.00
  -12   10   10      1.83      0.00
   -8   10   10     -0.93      0.00
    0    0    0      0.00      0.00
loop_
  _platon_squeeze_void_nr
  _platon_squeeze_void_average_x
  _platon_squeeze_void_average_y
  _platon_squeeze_void_average_z
  _platon_squeeze_void_volume
  _platon_squeeze_void_count_electrons
  _platon_squeeze_void_content
   1  0.000  0.500 -0.013       131        26 ' '
   2  0.500  1.000  0.011       131        26 ' '
loop_
  _platon_missing_refln_index_h
  _platon_missing_refln_index_k
  _platon_missing_refln_index_l
  _platon_missing_refln_theta
    2    0    0     2.619
    1    1    0     1.587
    0    2    0     1.792
   -1    1    1     2.539
_platon_squeeze_void_probe_radius                  1.20
_platon_squeeze_details
)
TITL shelx     C 1 2/c 1    R = 0.05
CELL   17.6665   22.7226    8.5749     90.00    118.32     90.00
SPGR C2/c
C101 1.000 0.453 0.243 !       1.97 eA-3
Q102 0.451 0.266 0.091 !       1.75 eA-3
Q103 0.682 0.301 0.134 !       1.73 eA-3
Q104 0.455 0.061 0.249 !       1.55 eA-3
Q105 0.597 0.149 0.148 !       1.27 eA-3
Q106 0.362 0.109 0.380 !       1.17 eA-3
Q107 0.780 0.165 0.151 !       1.12 eA-3
C108 0.989 0.489 0.064 !       1.11 eA-3
Q109 0.426 0.189 0.279 !       1.07 eA-3
Q110 0.406 0.120 0.505 !       1.03 eA-3
Q111 0.317 0.231 0.368 !       1.02 eA-3
C112 0.969 0.498 0.161 !       0.98 eA-3
Q113 0.539 0.039-0.011 !       0.96 eA-3
C114 0.042 0.472 0.376 !       0.96 eA-3
Q115 0.032 0.249 0.461 !       0.85 eA-3
C116 0.483 0.041 0.340 !       0.81 eA-3
Q117 0.015 0.339 0.210 !       0.80 eA-3
Q118 0.603 0.218 0.323 !       0.78 eA-3
Q119 0.352 0.187 0.067 !       0.76 eA-3
Q120 0.928 0.162 0.497 !       0.76 eA-3
Q121 0.560 0.217 0.281 !       0.74 eA-3
Q122 0.402 0.165 0.221 !       0.74 eA-3
C123 0.559 0.012 0.406 !       0.72 eA-3
Q124 0.134 0.117 0.229 !       0.71 eA-3
Q125 0.763 0.062 0.464 !       0.71 eA-3
C126 0.500 0.031 0.236 !       0.70 eA-3
Q127 0.231 0.149 0.465 !       0.68 eA-3
Q128 0.334 0.110 0.036 !       0.67 eA-3
Q129 0.868 0.349 0.384 !       0.65 eA-3
Q130 0.925 0.432 0.041 !       0.65 eA-3
Q131 0.966 0.086 0.462 !       0.64 eA-3
Q132 1.000 0.150 0.470 !       0.64 eA-3
Q133 0.408 0.470 0.220 !       0.64 eA-3
Q134 0.785 0.342 0.473 !       0.64 eA-3
Q135 0.132 0.111 0.347 !       0.63 eA-3
Q136 0.374 0.303 0.214 !       0.62 eA-3
Q137 0.213 0.336 0.435 !       0.62 eA-3
Q138 0.341 0.424 0.065 !       0.61 eA-3
Q139 0.238 0.335 0.102 !       0.61 eA-3
Q140 0.866 0.192 0.343 !       0.60 eA-3
Q141 0.408 0.115-0.002 !       0.60 eA-3
Q142 0.029 0.258 0.124 !       0.60 eA-3
Q143 0.855 0.355 0.253 !       0.59 eA-3
Q144 0.059 0.212 0.440 !       0.58 eA-3
Q145 0.776 0.182 0.012 !       0.58 eA-3
Q146 0.853 0.185 0.254 !       0.58 eA-3
Q147 0.314 0.330 0.182 !       0.58 eA-3
Q148 0.722 0.406 0.441 !       0.57 eA-3
Q149 0.814 0.022 0.040 !       0.57 eA-3
Q150 0.844 0.428 0.125 !       0.57 eA-3
Q151 0.468 0.138 0.472 !       0.57 eA-3
C152 0.940 0.503 0.410 !       0.56 eA-3
Q153 0.072 0.037 0.380 !       0.56 eA-3
Q154 0.784 0.378 0.157 !       0.55 eA-3
Q155 0.247 0.191 0.029 !       0.55 eA-3
Q156 0.251 0.344 0.275 !       0.55 eA-3
Q157 0.768 0.285 0.029 !       0.54 eA-3
Q158 0.968 0.100 0.023 !       0.54 eA-3
Q159 0.063 0.276 0.412 !       0.54 eA-3
Q160 0.613 0.046 0.061 !       0.53 eA-3
Q161 0.011 0.314 0.473 !       0.52 eA-3
Q162 0.082 0.116 0.030 !       0.52 eA-3
Q163 0.238 0.227 0.005 !       0.52 eA-3
Q164 0.570 0.474 0.339 !       0.51 eA-3
Q165 0.809 0.242 0.275 !       0.51 eA-3
Q166 0.769 0.074 0.133 !       0.51 eA-3
Q167 0.626 0.110 0.250 !       0.51 eA-3
Q168 0.998 0.245 0.190 !       0.50 eA-3
)
;
_shelx_shelxl_version_number     2014/7
_olex2_submission_special_instructions 'No special instructions were received'
loop_
_space_group_symop_operation_xyz
'x, y, z'
'-x, y, -z+1/2'
'x+1/2, y+1/2, z'
'-x+1/2, y+1/2, -z+1/2'
'-x, -y, -z'
'x, -y, z-1/2'
'-x+1/2, -y+1/2, -z'
'x+1/2, -y+1/2, z-1/2'
loop_
_atom_site_label
_atom_site_type_symbol
_atom_site_fract_x
_atom_site_fract_y
_atom_site_fract_z
_atom_site_U_iso_or_equiv
_atom_site_adp_type
_atom_site_occupancy
_atom_site_site_symmetry_order
_atom_site_calc_flag
_atom_site_refinement_flags_posn
_atom_site_refinement_flags_occupancy
_atom_site_disorder_assembly
_atom_site_disorder_group
La1 La 0.81830(2) 0.26629(2) 0.86640(5) 0.03664(15) Uani 1 1 d . . . .
C1 C 0.8412(4) 0.0828(2) 0.5876(8) 0.0368(14) Uani 1 1 d . . . .
C2 C 0.9045(4) 0.0570(3) 0.7435(8) 0.0424(15) Uani 1 1 d . . . .
H2 H 0.9447 0.0805 0.8333 0.051 Uiso 1 1 calc R . . .
C3 C 0.9072(4) -0.0026(3) 0.7636(8) 0.0451(16) Uani 1 1 d . . . .
H3 H 0.9495 -0.0194 0.8672 0.054 Uiso 1 1 calc R . . .
C4 C 0.8463(4) -0.0392(2) 0.6287(8) 0.0368(14) Uani 1 1 d . . . .
C5 C 0.8492(4) 0.1011(3) 1.1483(8) 0.0387(14) Uani 1 1 d . . . .
H5 H 0.8934 0.1182 1.2487 0.046 Uiso 1 1 calc R . . .
C6 C 0.7878(4) 0.1360(2) 1.0211(8) 0.0361(14) Uani 1 1 d . . . .
C7 C 0.7222(4) 0.1096(2) 0.8682(8) 0.0385(14) Uani 1 1 d . . . .
C8 C 0.7183(4) 0.0497(2) 0.8409(8) 0.0423(15) Uani 1 1 d . . . .
H8 H 0.6753 0.0335 0.7368 0.051 Uiso 1 1 calc R . . .
C9 C 0.7813(4) -0.0125(2) 0.4745(8) 0.0360(14) Uani 1 1 d . . . .
C10 C 0.7802(4) 0.0491(2) 0.4548(8) 0.0390(14) Uani 1 1 d . . . .
H10 H 0.7383 0.0668 0.3523 0.047 Uiso 1 1 calc R . . .
O1 O 0.8557(3) 0.18664(19) 0.7198(6) 0.0551(12) Uani 1 1 d . . . .
O2 O 0.9260(3) 0.16772(18) 0.5425(6) 0.0523(12) Uani 1 1 d . . . .
O3 O 0.7295(3) 0.32355(17) 0.5972(5) 0.0461(11) Uani 1 1 d . . . .
O4 O 0.6847(3) 0.2021(2) 0.6653(6) 0.0559(13) Uani 1 1 d . . . .
O5 O 0.5811(3) 0.1227(2) 0.5696(7) 0.0842(18) Uani 1 1 d . . . .
O6 O 0.8971(3) 0.31616(19) 1.1800(8) 0.0665(14) Uani 1 1 d . . . .
O7 O 0.7873(3) 0.19527(16) 1.0424(5) 0.0390(10) Uani 1 1 d . . . .
O9 O 0.9741(3) 0.2328(2) 1.0548(6) 0.0581(13) Uani 1 1 d . . . .
H9A H 1.0059 0.2618 1.1218 0.087 Uiso 1 1 d GR . . .
H9B H 0.9959 0.2214 0.9865 0.087 Uiso 1 1 d GR . . .
S1 S 0.84905(10) 0.15889(6) 0.5597(2) 0.0390(4) Uani 1 1 d . . . .
S2 S 0.64217(11) 0.15700(7) 0.7172(3) 0.0563(5) Uani 1 1 d . . . .
O8A O 0.9128(7) 0.3003(5) 0.7084(14) 0.0280(14) Uani 0.33 1 d . P A 1
H8AA H 0.8650 0.3007 0.5962 0.042 Uiso 0.33 1 d R P A 1
H8AB H 0.9390 0.2637 0.7233 0.042 Uiso 0.33 1 d R P A 1
O8B O 0.9083(7) 0.3378(5) 0.7984(14) 0.0280(14) Uani 0.33 1 d . P A 2
H8BA H 0.9052 0.3713 0.7336 0.042 Uiso 0.33 1 d R P A 2
H8BB H 0.9628 0.3371 0.8975 0.042 Uiso 0.33 1 d R P A 2
O8C O 0.8850(7) 0.3748(4) 0.9197(13) 0.0280(14) Uani 0.33 1 d . P A 3
H8CA H 0.9248 0.3685 1.0376 0.042 Uiso 0.33 1 d R P A 3
H8CB H 0.8386 0.3948 0.9164 0.042 Uiso 0.33 1 d R P A 3
loop_
_atom_site_aniso_label
_atom_site_aniso_U_11
_atom_site_aniso_U_22
_atom_site_aniso_U_33
_atom_site_aniso_U_23
_atom_site_aniso_U_13
_atom_site_aniso_U_12
La1 0.0379(2) 0.0360(2) 0.0374(2) 0.00375(16) 0.01900(18) 0.00462(17)
C1 0.046(4) 0.028(3) 0.043(4) 0.000(3) 0.027(3) -0.001(3)
C2 0.047(4) 0.035(3) 0.033(4) -0.002(3) 0.010(3) -0.002(3)
C3 0.048(4) 0.038(3) 0.036(4) 0.005(3) 0.009(3) -0.001(3)
C4 0.046(4) 0.030(3) 0.038(4) 0.002(3) 0.023(3) -0.002(3)
C5 0.043(4) 0.036(3) 0.035(3) -0.005(3) 0.017(3) 0.000(3)
C6 0.040(4) 0.031(3) 0.046(4) 0.006(3) 0.027(3) 0.002(3)
C7 0.033(4) 0.032(3) 0.044(4) 0.003(3) 0.013(3) -0.001(3)
C8 0.038(4) 0.034(3) 0.043(4) -0.004(3) 0.010(3) -0.001(3)
C9 0.036(3) 0.031(3) 0.039(4) -0.001(3) 0.017(3) 0.000(3)
C10 0.040(4) 0.034(3) 0.043(4) 0.004(3) 0.020(3) 0.002(3)
O1 0.062(3) 0.047(3) 0.046(3) -0.013(2) 0.017(2) 0.011(2)
O2 0.047(3) 0.045(2) 0.063(3) 0.004(2) 0.024(2) -0.008(2)
O3 0.045(3) 0.035(2) 0.042(3) 0.0044(19) 0.007(2) -0.0002(19)
O4 0.055(3) 0.042(3) 0.048(3) 0.006(2) 0.006(2) -0.006(2)
O5 0.059(3) 0.044(3) 0.087(4) -0.010(3) -0.017(3) 0.000(2)
O6 0.049(3) 0.039(3) 0.108(4) -0.008(3) 0.035(3) 0.008(2)
O7 0.045(2) 0.027(2) 0.048(2) -0.0004(19) 0.025(2) 0.0022(19)
O9 0.046(3) 0.079(4) 0.046(3) -0.011(2) 0.019(2) 0.011(3)
S1 0.0452(10) 0.0282(8) 0.0383(9) -0.0015(7) 0.0155(8) 0.0002(7)
S2 0.0408(10) 0.0330(9) 0.0692(13) 0.0013(8) 0.0048(10) 0.0011(8)
O8A 0.022(3) 0.032(4) 0.023(4) 0.005(3) 0.005(3) -0.010(3)
O8B 0.022(3) 0.032(4) 0.023(4) 0.005(3) 0.005(3) -0.010(3)
O8C 0.022(3) 0.032(4) 0.023(4) 0.005(3) 0.005(3) -0.010(3)
loop_
_atom_type_symbol
_atom_type_description
_atom_type_scat_dispersion_real
_atom_type_scat_dispersion_imag
_atom_type_scat_source
C C 0.0033 0.0016 'International Tables Vol C Tables 4.2.6.8 and 6.1.1.4'
H H 0.0000 0.0000 'International Tables Vol C Tables 4.2.6.8 and 6.1.1.4'
La La -0.2871 2.4523 'International Tables Vol C Tables 4.2.6.8 and 6.1.1.4'
O O 0.0106 0.0060 'International Tables Vol C Tables 4.2.6.8 and 6.1.1.4'
S S 0.1246 0.1234 'International Tables Vol C Tables 4.2.6.8 and 6.1.1.4'
loop_
_geom_angle_atom_site_label_1
_geom_angle_atom_site_label_2
_geom_angle_atom_site_label_3
_geom_angle
_geom_angle_site_symmetry_1
_geom_angle_site_symmetry_3
O1 La1 La1 121.50(11) . 7_657
O1 La1 O4 68.31(15) . .
O1 La1 O6 134.30(14) . .
O1 La1 O7 146.80(15) . 7_657
O1 La1 O9 68.62(15) . .
O1 La1 O8A 65.0(3) . .
O1 La1 O8B 90.2(3) . .
O1 La1 O8C 124.1(3) . .
O3 La1 La1 109.68(10) . 7_657
O3 La1 O1 96.66(14) . .
O3 La1 O4 72.59(14) . .
O3 La1 O6 121.66(14) . .
O3 La1 O7 82.52(14) . 7_657
O3 La1 O9 140.05(14) . .
O3 La1 O8A 69.5(2) . .
O3 La1 O8B 68.6(3) . .
O3 La1 O8C 72.9(2) . .
O4 La1 La1 71.41(10) . 7_657
O4 La1 O6 142.30(15) . .
O4 La1 O8A 114.0(2) . .
O4 La1 O8C 144.5(2) . .
O6 La1 La1 70.90(11) . 7_657
O6 La1 O8A 103.6(3) . .
O6 La1 O8C 56.7(2) . .
O7 La1 La1 33.34(8) 7_657 7_657
O7 La1 La1 34.21(9) . 7_657
O7 La1 O1 91.30(14) . .
O7 La1 O3 134.38(14) . .
O7 La1 O4 79.99(14) 7_657 .
O7 La1 O4 69.00(13) . .
O7 La1 O6 79.49(14) . .
O7 La1 O6 68.93(13) 7_657 .
O7 La1 O7 67.55(14) . 7_657
O7 La1 O9 84.39(14) . .
O7 La1 O9 130.23(14) 7_657 .
O7 La1 O8A 141.7(3) 7_657 .
O7 La1 O8A 150.2(3) . .
O7 La1 O8B 156.5(3) . .
O7 La1 O8B 119.5(3) 7_657 .
O7 La1 O8C 87.6(2) 7_657 .
O7 La1 O8C 135.4(2) . .
O9 La1 La1 109.56(11) . 7_657
O9 La1 O4 128.03(14) . .
O9 La1 O6 65.99(14) . .
O9 La1 O8A 70.6(3) . .
O9 La1 O8C 84.9(3) . .
O8A La1 La1 173.3(2) . 7_657
O8B La1 La1 147.7(2) . 7_657
O8B La1 O4 132.7(3) . .
O8B La1 O6 82.7(3) . .
O8B La1 O9 74.4(3) . .
O8C La1 La1 113.5(2) . 7_657
C2 C1 S1 117.6(5) . .
C10 C1 C2 121.0(5) . .
C10 C1 S1 121.2(5) . .
C1 C2 H2 120.0 . .
C3 C2 C1 120.1(6) . .
C3 C2 H2 120.0 . .
C2 C3 H3 119.6 . .
C2 C3 C4 120.9(6) . .
C4 C3 H3 119.6 . .
C5 C4 C3 121.1(6) 6 .
C9 C4 C3 118.5(5) . .
C9 C4 C5 120.5(5) . 6
C4 C5 H5 119.6 6_556 .
C6 C5 C4 120.8(6) . 6_556
C6 C5 H5 119.6 . .
C5 C6 C7 119.0(5) . .
O7 C6 C5 121.4(5) . .
O7 C6 C7 119.6(5) . .
C6 C7 S2 116.2(4) . .
C8 C7 C6 122.2(5) . .
C8 C7 S2 121.5(5) . .
C7 C8 H8 120.3 . .
C7 C8 C9 119.3(6) . 6_556
C9 C8 H8 120.3 6_556 .
C4 C9 C8 118.2(5) . 6
C10 C9 C4 119.9(5) . .
C10 C9 C8 121.9(6) . 6
C1 C10 C9 119.6(6) . .
C1 C10 H10 120.2 . .
C9 C10 H10 120.2 . .
S1 O1 La1 150.7(3) . .
S1 O3 La1 156.3(3) 7_656 .
S2 O4 La1 128.7(2) . .
S2 O6 La1 127.9(3) 7_657 .
La1 O7 La1 112.45(14) . 7_657
C6 O7 La1 123.6(3) . .
C6 O7 La1 116.2(3) . 7_657
La1 O9 H9A 110.6 . .
La1 O9 H9B 110.3 . .
H9A O9 H9B 108.1 . .
O1 S1 C1 105.8(3) . .
O2 S1 C1 106.7(3) . .
O2 S1 O1 112.0(3) . .
O2 S1 O3 113.3(3) . 7_656
O3 S1 C1 107.0(3) 7_656 .
O3 S1 O1 111.4(3) 7_656 .
O4 S2 C7 107.7(3) . .
O4 S2 O6 110.2(3) . 7_657
O5 S2 C7 108.7(3) . .
O5 S2 O4 113.0(3) . .
O5 S2 O6 112.2(3) . 7_657
O6 S2 C7 104.7(3) 7_657 .
La1 O8A H8AA 92.7 . .
La1 O8A H8AB 93.5 . .
H8AA O8A H8AB 107.5 . .
La1 O8B H8BA 143.1 . .
La1 O8B H8BB 105.6 . .
H8BA O8B H8BB 107.5 . .
La1 O8C H8CA 95.1 . .
La1 O8C H8CB 97.8 . .
H8CA O8C H8CB 108.1 . .
loop_
_geom_bond_atom_site_label_1
_geom_bond_atom_site_label_2
_geom_bond_distance
_geom_bond_site_symmetry_2
La1 La1 4.1070(7) 7_657
La1 O1 2.466(4) .
La1 O3 2.459(4) .
La1 O4 2.609(4) .
La1 O6 2.627(5) .
La1 O7 2.442(4) .
La1 O7 2.498(4) 7_657
La1 O9 2.559(5) .
La1 O8A 2.714(10) .
La1 O8B 2.527(10) .
La1 O8C 2.677(9) .
C1 C2 1.402(8) .
C1 C10 1.372(8) .
C1 S1 1.759(6) .
C2 H2 0.9300 .
C2 C3 1.362(8) .
C3 H3 0.9300 .
C3 C4 1.417(9) .
C4 C5 1.414(8) 6
C4 C9 1.412(9) .
C5 C4 1.414(8) 6_556
C5 H5 0.9300 .
C5 C6 1.369(8) .
C6 C7 1.408(8) .
C6 O7 1.359(7) .
C7 C8 1.377(8) .
C7 S2 1.760(6) .
C8 H8 0.9300 .
C8 C9 1.434(8) 6_556
C9 C8 1.434(8) 6
C9 C10 1.409(8) .
C10 H10 0.9300 .
O1 S1 1.464(4) .
O2 S1 1.449(5) .
O3 S1 1.457(4) 7_656
O4 S2 1.460(5) .
O5 S2 1.442(5) .
O6 S2 1.486(5) 7_657
O7 La1 2.498(4) 7_657
O9 H9A 0.8793 .
O9 H9B 0.8789 .
S1 O3 1.457(4) 7_656
S2 O6 1.486(5) 7_657
O8A H8AA 0.9315 .
O8A H8AB 0.9314 .
O8B H8BA 0.9285 .
O8B H8BB 0.9340 .
O8C H8CA 0.9292 .
O8C H8CB 0.9264 .
loop_
_geom_torsion_atom_site_label_1
_geom_torsion_atom_site_label_2
_geom_torsion_atom_site_label_3
_geom_torsion_atom_site_label_4
_geom_torsion
_geom_torsion_site_symmetry_1
_geom_torsion_site_symmetry_4
La1 O1 S1 C1 -139.4(6) . .
La1 O1 S1 O2 104.7(6) . .
La1 O1 S1 O3 -23.5(7) . 7_656
La1 O4 S2 C7 -48.3(4) . .
La1 O4 S2 O5 -168.4(3) . .
La1 O4 S2 O6 65.3(4) . 7_657
C1 C2 C3 C4 -0.3(10) . .
C2 C1 C10 C9 -0.4(9) . .
C2 C1 S1 O1 -53.1(5) . .
C2 C1 S1 O2 66.4(5) . .
C2 C1 S1 O3 -172.0(5) . 7_656
C2 C3 C4 C5 179.5(6) . 6
C2 C3 C4 C9 -1.6(9) . .
C3 C4 C9 C8 -178.1(5) . 6
C3 C4 C9 C10 2.4(9) . .
C4 C5 C6 C7 -1.2(8) 6_556 .
C4 C5 C6 O7 176.6(5) 6_556 .
C4 C9 C10 C1 -1.4(8) . .
C5 C4 C9 C8 0.9(8) 6 6
C5 C4 C9 C10 -178.6(5) 6 .
C5 C6 C7 C8 -0.9(9) . .
C5 C6 C7 S2 176.4(4) . .
C5 C6 O7 La1 -101.4(5) . 7_657
C5 C6 O7 La1 111.6(5) . .
C6 C7 C8 C9 2.1(9) . 6_556
C6 C7 S2 O4 56.9(5) . .
C6 C7 S2 O5 179.7(5) . .
C6 C7 S2 O6 -60.3(5) . 7_657
C7 C6 O7 La1 -70.6(6) . .
C7 C6 O7 La1 76.4(5) . 7_657
C8 C7 S2 O4 -125.7(5) . .
C8 C7 S2 O5 -3.0(7) . .
C8 C7 S2 O6 117.0(5) . 7_657
C8 C9 C10 C1 179.1(6) 6 .
C10 C1 C2 C3 1.3(9) . .
C10 C1 S1 O1 132.9(5) . .
C10 C1 S1 O2 -107.7(5) . .
C10 C1 S1 O3 13.9(6) . 7_656
O7 C6 C7 C8 -178.7(6) . .
O7 C6 C7 S2 -1.4(7) . .
S1 C1 C2 C3 -172.8(5) . .
S1 C1 C10 C9 173.4(4) . .
S2 C7 C8 C9 -175.1(5) . 6_556
