#------------------------------------------------------------------------------
#$Date: 2016-02-05 01:23:29 +0200 (Fri, 05 Feb 2016) $
#$Revision: 176029 $
#$URL: svn://www.crystallography.net/cod/cif/7/03/76/7037664.cif $
#------------------------------------------------------------------------------
#
# This file is available in the Crystallography Open Database (COD),
# http://www.crystallography.net/
#
# All data on this site have been placed in the public domain by the
# contributors.
#
data_7037664
loop_
_publ_author_name
'Lago, Ana Bel\'en'
'Pino-Cuevas, Arantxa'
'Carballo, Rosa'
'V\'azquez-L\'opez, Ezequiel M'
_publ_section_title
;
 A new metal-organic polymeric system capable of stimuli-responsive
 controlled release of the drug ibuprofen.
;
_journal_issue                   4
_journal_name_full
'Dalton transactions (Cambridge, England : 2003)'
_journal_page_first              1614
_journal_page_last               1621
_journal_paper_doi               10.1039/c5dt04031k
_journal_volume                  45
_journal_year                    2016
_chemical_formula_sum            'C24 H26.5 Cl N2 O2 S2 Zn'
_chemical_formula_weight         539.91
_chemical_name_systematic
; 
 ? 
;
_space_group_crystal_system      triclinic
_space_group_IT_number           2
_space_group_name_Hall           '-P 1'
_space_group_name_H-M_alt        'P -1'
_symmetry_space_group_name_Hall  '-P 1'
_symmetry_space_group_name_H-M   'P -1'
_atom_sites_solution_hydrogens   geom
_audit_creation_method           SHELXL-2013
_audit_update_record
;
2015-09-07 deposited with the CCDC.
2015-12-11 downloaded from the CCDC.
;
_cell_angle_alpha                78.2167(18)
_cell_angle_beta                 81.8265(19)
_cell_angle_gamma                77.7451(18)
_cell_formula_units_Z            2
_cell_length_a                   5.5566(4)
_cell_length_b                   12.6547(10)
_cell_length_c                   18.5385(14)
_cell_measurement_reflns_used    9960
_cell_measurement_temperature    100(2)
_cell_measurement_theta_max      68.23
_cell_measurement_theta_min      3.63
_cell_volume                     1240.35(16)
_computing_cell_refinement       'Bruker SAINT'
_computing_data_collection       'Bruker APEX2'
_computing_data_reduction        'Bruker SAINT'
_computing_molecular_graphics    'Bruker SHELXTL'
_computing_publication_material  'Bruker SHELXTL'
_computing_structure_refinement  'SHELXL-2013 (Sheldrick, 2013)'
_computing_structure_solution    'Bruker SHELXTL'
_diffrn_ambient_temperature      100(2)
_diffrn_measured_fraction_theta_full 0.974
_diffrn_measured_fraction_theta_max 0.964
_diffrn_measurement_device_type  'Bruker CCD Smart 6000'
_diffrn_measurement_method       '\f and \w scans'
_diffrn_radiation_type           CuK\a
_diffrn_radiation_wavelength     1.54178
_diffrn_reflns_av_R_equivalents  0.0328
_diffrn_reflns_av_unetI/netI     0.0263
_diffrn_reflns_laue_measured_fraction_full 0.974
_diffrn_reflns_laue_measured_fraction_max 0.964
_diffrn_reflns_limit_h_max       6
_diffrn_reflns_limit_h_min       -6
_diffrn_reflns_limit_k_max       15
_diffrn_reflns_limit_k_min       -15
_diffrn_reflns_limit_l_max       22
_diffrn_reflns_limit_l_min       -21
_diffrn_reflns_number            19922
_diffrn_reflns_point_group_measured_fraction_full 0.974
_diffrn_reflns_point_group_measured_fraction_max 0.964
_diffrn_reflns_theta_full        67.679
_diffrn_reflns_theta_max         68.453
_diffrn_reflns_theta_min         2.448
_exptl_absorpt_coefficient_mu    4.128
_exptl_absorpt_correction_T_max  0.7531
_exptl_absorpt_correction_T_min  0.4905
_exptl_absorpt_correction_type   multi-scan
_exptl_absorpt_process_details   'SADABS V2014/2 (Bruker AXS Inc.)'
_exptl_crystal_colour            colourless
_exptl_crystal_density_diffrn    1.446
_exptl_crystal_density_method    'not measured'
_exptl_crystal_description       plate
_exptl_crystal_F_000             559
_exptl_crystal_size_max          0.245
_exptl_crystal_size_mid          0.205
_exptl_crystal_size_min          0.044
_refine_diff_density_max         0.912
_refine_diff_density_min         -0.315
_refine_diff_density_rms         0.069
_refine_ls_extinction_method     none
_refine_ls_goodness_of_fit_ref   1.049
_refine_ls_hydrogen_treatment    constr
_refine_ls_matrix_type           full
_refine_ls_number_parameters     303
_refine_ls_number_reflns         4411
_refine_ls_number_restraints     0
_refine_ls_restrained_S_all      1.049
_refine_ls_R_factor_all          0.0394
_refine_ls_R_factor_gt           0.0383
_refine_ls_shift/su_max          0.001
_refine_ls_shift/su_mean         0.000
_refine_ls_structure_factor_coef Fsqd
_refine_ls_weighting_details
'w=1/[\s^2^(Fo^2^)+(0.0579P)^2^+1.1614P] where P=(Fo^2^+2Fc^2^)/3'
_refine_ls_weighting_scheme      calc
_refine_ls_wR_factor_gt          0.1026
_refine_ls_wR_factor_ref         0.1035
_reflns_Friedel_coverage         0.000
_reflns_number_gt                4201
_reflns_number_total             4411
_reflns_threshold_expression     'I > 2\s(I)'
_cod_data_source_file            c5dt04031k2.cif
_cod_data_source_block           2
_cod_depositor_comments
'Adding full bibliography for 7037664--7037668.cif.'
_cod_original_formula_sum        'C24 H26.50 Cl N2 O2 S2 Zn'
_cod_database_code               7037664
_shelx_space_group_comment
; 
The symmetry employed for this shelxl refinement is uniquely defined 
by the following loop, which should always be used as a source of 
symmetry information in preference to the above space-group names. 
They are only intended as comments. 
;
_shelx_estimated_absorpt_t_min   0.431
_shelx_estimated_absorpt_t_max   0.839
_shelxl_version_number           2013-3
_shelx_res_file
; 
TITL ev141465_4_0m in P-1 
CELL 1.54178   5.55660  12.65470  18.53850  78.2167  81.8265  77.7451 
ZERR    2.00   0.00040   0.00100   0.00140   0.0018   0.0019   0.0018 
LATT 1 
SFAC C  H  N  O  S  Cl Zn 
UNIT 48 53 4 4 4 2 2 
L.S. 10 
BOND 
FMAP 2 
PLAN -10 
SIZE 0.044 0.205 0.245 
FREE Zn1  C14 
TEMP -173.000 
EQIV $1 x+2, y-1, z 
HTAB C2 Cl_$1 
EQIV $2 -x+1, -y+1, -z+1 
HTAB C4 Cl_$2 
HTAB C5 O2 
HTAB C7 S1 
HTAB C8 Cl 
HTAB C8 Cl_$2 
EQIV $3 -x+2, -y+1, -z+1 
HTAB C15 Cl_$3 
ACTA 
WGHT    0.057900    1.161400 
FVAR       0.17396   0.77006 
MOLE 1 
ZN1   7    0.352805    0.632277    0.667695    11.00000    0.02556    0.02375 = 
         0.03574   -0.01344    0.00119   -0.00005 
CL    6    0.231291    0.632587    0.554882    11.00000    0.02550    0.03377 = 
         0.03890   -0.01712   -0.00351    0.00102 
S1    5    1.358907    0.247845    0.674372    11.00000    0.03100    0.02517 = 
         0.03804   -0.00989   -0.00583    0.00375 
S2    5    1.683386    0.114611    0.571167    11.00000    0.02672    0.02490 = 
         0.05231   -0.01068    0.00746   -0.00057 
O3    4    0.042905    0.662071    0.731364    11.00000    0.04287    0.04462 = 
         0.04893   -0.02327    0.01175   -0.01275 
N1    3    0.657450    0.509520    0.671520    11.00000    0.02733    0.02226 = 
         0.03157   -0.00995    0.00163   -0.00279 
N2    3    1.460641   -0.218176    0.651439    11.00000    0.02215    0.02518 = 
         0.03452   -0.01284   -0.00396   -0.00003 
O2    4    0.326995    0.603535    0.809177    11.00000    0.06226    0.06959 = 
         0.05069   -0.01423    0.00698    0.01719 
C2    1    1.679807   -0.205559    0.613011    11.00000    0.02391    0.02658 = 
         0.03501   -0.01346   -0.00303    0.00345 
AFIX  43 
H2    2    1.792558   -0.269160    0.601632    11.00000   -1.20000 
AFIX   0 
C3    1    1.088356    0.349045    0.669794    11.00000    0.02751    0.01978 = 
         0.03567   -0.00720    0.00011   -0.00315 
C4    1    0.955368    0.383997    0.608530    11.00000    0.03202    0.02640 = 
         0.03275   -0.01361   -0.00041    0.00108 
AFIX  43 
H4    2    1.009321    0.353228    0.565006    11.00000   -1.20000 
AFIX   0 
C5    1    0.786348    0.475883    0.730701    11.00000    0.03807    0.02400 = 
         0.03066   -0.01110    0.00149   -0.00288 
AFIX  43 
H5    2    0.727168    0.507535    0.773653    11.00000   -1.20000 
AFIX   0 
C6    1   -0.155803    1.025334    0.845092    11.00000    0.03400    0.03517 = 
         0.02730   -0.00962    0.00316   -0.00451 
C7    1    1.358848   -0.023503    0.646945    11.00000    0.02254    0.02525 = 
         0.03757   -0.01247   -0.00138    0.00164 
AFIX  43 
H7    2    1.244396    0.038454    0.660232    11.00000   -1.20000 
AFIX   0 
C8    1    0.744603    0.463650    0.611444    11.00000    0.02930    0.02917 = 
         0.03374   -0.01129   -0.00279    0.00047 
AFIX  43 
H8    2    0.656502    0.487333    0.568899    11.00000   -1.20000 
AFIX   0 
C9    1    1.000134    0.397703    0.731995    11.00000    0.04016    0.02667 = 
         0.03148   -0.00765   -0.00644   -0.00179 
AFIX  43 
H9    2    1.087066    0.376967    0.774815    11.00000   -1.20000 
AFIX   0 
C10   1    1.304721   -0.127861    0.668357    11.00000    0.02290    0.02917 = 
         0.03440   -0.01392   -0.00123   -0.00022 
AFIX  43 
H10   2    1.150477   -0.136027    0.696259    11.00000   -1.20000 
AFIX   0 
C11   1    1.748476   -0.105084    0.589415    11.00000    0.02163    0.03108 = 
         0.03608   -0.01310    0.00061    0.00079 
AFIX  43 
H11   2    1.905476   -0.099668    0.562491    11.00000   -1.20000 
AFIX   0 
C12   1    1.583497   -0.010716    0.605654    11.00000    0.02576    0.02520 = 
         0.03317   -0.01035   -0.00232    0.00021 
C13   1   -0.112076    0.796510    0.854130    11.00000    0.04296    0.03557 = 
         0.03689   -0.01623    0.01733   -0.00506 
C14   1    0.109017    0.641763    0.795640    11.00000    0.04710    0.02734 = 
         0.05329   -0.01677    0.02101   -0.00401 
C15   1    1.406238    0.215767    0.581640    11.00000    0.02993    0.02591 = 
         0.03754   -0.00983    0.00263    0.00308 
AFIX  23 
H15A  2    1.262402    0.187456    0.572546    11.00000   -1.20000 
H15B  2    1.419577    0.283414    0.544714    11.00000   -1.20000 
AFIX   0 
C16   1   -0.318457    0.982738    0.813820    11.00000    0.04002    0.03947 = 
         0.03692   -0.01376   -0.00588   -0.00020 
AFIX  43 
H16   2   -0.447541    1.031712    0.788781    11.00000   -1.20000 
AFIX   0 
C17   1   -0.185740    1.146654    0.844943    11.00000    0.04404    0.03377 = 
         0.03576   -0.00962    0.00222   -0.00487 
AFIX  23 
H17A  2   -0.295945    1.187949    0.806971    11.00000   -1.20000 
H17B  2   -0.022212    1.168502    0.830818    11.00000   -1.20000 
AFIX   0 
C18   1    0.055516    0.838342    0.884061    11.00000    0.03581    0.04161 = 
         0.04362   -0.00564    0.00330    0.00445 
AFIX  43 
H18   2    0.186965    0.789159    0.907891    11.00000   -1.20000 
AFIX   0 
C19   1   -0.297231    0.870636    0.818215    11.00000    0.04046    0.04548 = 
         0.04209   -0.02173    0.00296   -0.00810 
AFIX  43 
H19   2   -0.411714    0.844239    0.796202    11.00000   -1.20000 
AFIX   0 
C20   1    0.034340    0.950527    0.879773    11.00000    0.03337    0.04091 = 
         0.04203   -0.01027   -0.00240   -0.00325 
AFIX  43 
H20   2    0.151244    0.976902    0.900800    11.00000   -1.20000 
AFIX   0 
C21   1   -0.293996    1.179068    0.920595    11.00000    0.04738    0.03941 = 
         0.03932   -0.01381   -0.00151   -0.00493 
AFIX  13 
H21   2   -0.184087    1.134478    0.958542    11.00000   -1.20000 
AFIX   0 
C22   1   -0.295659    1.300002    0.919417    11.00000    0.06366    0.04453 = 
         0.04974   -0.01926    0.00325   -0.00887 
AFIX 137 
H22A  2   -0.402472    1.345675    0.882609    11.00000   -1.50000 
H22B  2   -0.126818    1.314232    0.906420    11.00000   -1.50000 
H22C  2   -0.358757    1.317857    0.968466    11.00000   -1.50000 
AFIX   0 
C23   1   -0.095716    0.673777    0.856306    11.00000    0.07056    0.03544 = 
         0.05571   -0.01831    0.03485   -0.00943 
C24   1   -0.549835    1.153381    0.943361    11.00000    0.05755    0.06472 = 
         0.07906   -0.04057    0.02441   -0.01933 
AFIX 137 
H24A  2   -0.611476    1.173219    0.991966    11.00000   -1.50000 
H24B  2   -0.543035    1.074641    0.946167    11.00000   -1.50000 
H24C  2   -0.661246    1.195589    0.906743    11.00000   -1.50000 
AFIX   0 
PART 1 
C25A  1   -0.052924    0.603728    0.929306    21.00000    0.06466    0.03639 = 
         0.03508   -0.01214    0.01222   -0.00890 
AFIX 137 
H250  2   -0.059621    0.527659    0.927215    21.00000   -1.20000 
H251  2   -0.181055    0.630208    0.967000    21.00000   -1.20000 
H252  2    0.110269    0.606884    0.942090    21.00000   -1.20000 
  
AFIX   0 
  
PART 2 
C25B  1   -0.250687    0.623323    0.885054   -21.00000    0.04465    0.06073 = 
         0.09309   -0.05801    0.02807   -0.01621 
AFIX 137 
H253  2   -0.192028    0.545484    0.882070   -21.00000   -1.20000 
H254  2   -0.400994    0.651243    0.859775   -21.00000   -1.20000 
H255  2   -0.287524    0.631411    0.937150    21.00000   -1.20000 
PART 0 
AFIX   0 
HKLF 4 
  
REM  ev141465_4_0m in P-1 
REM R1 =  0.0383 for    4201 Fo > 4sig(Fo)  and  0.0394 for all    4411 data 
REM    303 parameters refined using      0 restraints 
  
END 
  
WGHT      0.0579      1.1614 
  
REM Highest difference peak  0.912,  deepest hole -0.315,  1-sigma level  0.069 
Q1    1   0.3520  0.6161  0.7169  11.00000  0.05    0.91 
Q2    1   0.2248  0.6233  0.6079  11.00000  0.05    0.76 
Q3    1  -0.4653  1.1885  0.8849  11.00000  0.05    0.65 
Q4    1   0.0155  0.6682  0.8905  11.00000  0.05    0.64 
Q5    1   0.3862  0.6464  0.6067  11.00000  0.05    0.64 
Q6    1  -0.2768  0.6543  0.8276  11.00000  0.05    0.52 
Q7    1  -0.5202  1.3139  0.8702  11.00000  0.05    0.51 
Q8    1   1.3881  0.2556  0.6211  11.00000  0.05    0.50 
Q9    1   1.7082  0.1000  0.6208  11.00000  0.05    0.49 
Q10   1   1.7267  0.1232  0.5177  11.00000  0.05    0.43 
;
_shelx_res_checksum              68928
_shelx_hkl_file
; 
   1   0   0   37.50    1.55 
   1   0   0   30.66    1.55 
   1   0   0   31.99    1.56 
   1   0   0   39.49    1.56 
  -2   0   0  111.53    5.11 
   2   0   0  117.54    5.17 
   2   0   0  118.48    5.14 
   2   0   0  112.34    5.13 
   2   0   0  123.66    5.12 
  -3   0   0  245.06   11.08 
   3   0   0  252.82   11.12 
   3   0   0  262.18   11.08 
  -4   0   0   11.36    0.69 
   4   0   0   11.12    0.52 
   4   0   0    9.84    0.61 
   4   0   0   10.38    0.51 
   4   0   0   11.51    0.60 
   4   0   0   12.13    0.56 
   4   0   0   11.20    0.52 
   5   0   0    1.45    0.15 
   5   0   0    1.55    0.12 
   5   0   0    1.47    0.11 
   6  -1   0    0.01    0.04 
   6  -1   0    0.00    0.06 
   5  -1   0    5.40    0.31 
   5  -1   0    5.19    0.28 
   5  -1   0    5.01    0.27 
   5  -1   0    5.44    0.27 
   4  -1   0    3.75    0.21 
   4  -1   0    3.78    0.25 
   4  -1   0    3.34    0.25 
   4  -1   0    4.41    0.48 
   4  -1   0    3.98    0.29 
   4  -1   0    4.11    0.22 
   4  -1   0    4.18    0.21 
  -4   1   0    3.87    0.38 
   3  -1   0    0.75    0.13 
   3  -1   0    0.70    0.11 
  -3   1   0    0.87    0.15 
  -3   1   0    0.61    0.15 
   2  -1   0    5.42    0.29 
   2  -1   0    5.30    0.31 
   2  -1   0    5.21    0.29 
  -2   1   0    5.16    0.29 
   1  -1   0  268.30   11.68 
   1  -1   0  252.29   11.88 
  -1   1   0  252.69   11.38 
   0  -1   0   17.89    0.83 
   0  -1   0   18.13    0.83 
   0   1   0   18.69    0.83 
   0   1   0   19.41    0.83 
   0   1   0   19.92    0.84 
   1   1   0   17.13    0.74 
   1   1   0   14.54    0.72 
   1   1   0   16.15    0.71 
   1   1   0   15.45    0.72 
   2   1   0    1.36    0.13 
   2   1   0    1.69    0.12 
   2   1   0    1.43    0.14 
   2   1   0    1.62    0.14 
  -3  -1   0   27.29    1.39 
  -3  -1   0   30.73    1.36 
   3   1   0   30.55    1.45 
   3   1   0   28.28    1.40 
   3   1   0   28.00    1.34 
   3   1   0   30.16    1.40 
  -4  -1   0    5.57    0.42 
   4   1   0    5.43    0.27 
   4   1   0    5.02    0.31 
   4   1   0    5.30    0.34 
   6  -2   0    9.65    0.42 
   6  -2   0    9.13    0.43 
   6  -2   0    8.57    0.44 
   5  -2   0    0.03    0.04 
   5  -2   0    0.04    0.05 
   5  -2   0    0.11    0.07 
   5  -2   0    0.08    0.06 
   4  -2   0    2.46    0.21 
   4  -2   0    2.66    0.16 
   4  -2   0    2.91    0.18 
   4  -2   0    2.94    0.34 
   4  -2   0    2.97    0.21 
   4  -2   0    2.82    0.16 
  -4   2   0    2.50    0.35 
   3  -2   0    1.42    0.15 
   3  -2   0    1.39    0.17 
  -3   2   0    1.46    0.19 
  -3   2   0    1.28    0.16 
   2  -2   0  103.11    4.56 
   2  -2   0  105.46    4.53 
  -2   2   0   99.97    4.52 
   1  -2   0  198.82    8.56 
   1  -2   0  185.97    8.61 
  -1   2   0  188.71    8.32 
   0  -2   0   21.70    1.01 
   0  -2   0   20.61    1.00 
   0   2   0   22.38    1.00 
   0   2   0   23.59    1.00 
  -1  -2   0   68.98    3.21 
   1   2   0   75.07    3.21 
   1   2   0   71.69    3.18 
   1   2   0   74.19    3.16 
  -2  -2   0   20.69    1.05 
   2   2   0   22.56    1.01 
   2   2   0   20.98    1.02 
   2   2   0   21.89    1.04 
   2   2   0   20.39    0.97 
  -3  -2   0    0.18    0.16 
  -3  -2   0    0.20    0.10 
   3   2   0    0.12    0.10 
   3   2   0    0.12    0.09 
   3   2   0    0.10    0.06 
   3   2   0    0.21    0.12 
   6  -3   0    6.97    0.34 
   6  -3   0    7.48    0.34 
   5  -3   0   38.41    1.71 
   5  -3   0   38.20    1.75 
   5  -3   0   38.59    1.72 
   5  -3   0   39.23    1.71 
  -5   3   0   38.41    1.71 
   4  -3   0   45.02    1.97 
   4  -3   0   43.62    1.93 
   4  -3   0   40.38    1.96 
   4  -3   0   44.79    1.92 
   4  -3   0   42.79    1.92 
   3  -3   0    2.33    0.23 
   3  -3   0    1.90    0.18 
  -3   3   0    1.66    0.23 
   2  -3   0  126.60    5.43 
   2  -3   0  119.95    5.46 
  -2   3   0  118.56    5.41 
  -2   3   0  128.17    5.47 
   1  -3   0  133.64    6.13 
   1  -3   0  146.50    6.10 
  -1   3   0  142.35    6.13 
  -1   3   0  135.94    6.09 
   0  -3   0   61.16    2.75 
   0  -3   0   59.54    2.74 
   0   3   0   62.11    2.74 
   0   3   0   65.78    2.73 
  -1  -3   0  581.15   26.59 
  -1  -3   0  553.35   25.90 
   1   3   0  571.03   25.46 
   1   3   0  597.42   26.06 
   1   3   0  607.88   26.92 
  -2  -3   0   22.94    1.11 
  -2  -3   0   23.12    1.13 
   2   3   0   21.84    1.07 
   2   3   0   22.96    1.04 
   2   3   0   24.09    1.13 
  -3  -3   0   15.79    0.99 
  -3  -3   0   19.85    0.96 
   3   3   0   17.02    0.84 
   3   3   0   18.86    0.93 
   3   3   0   17.85    0.95 
  -4  -3   0    1.64    0.23 
   4   3   0    1.71    0.25 
   4   3   0    2.27    0.37 
   5  -4   0   11.22    0.50 
   5  -4   0   10.70    0.50 
   5  -4   0   10.05    0.53 
   5  -4   0   10.46    0.49 
  -5   4   0   10.38    0.51 
   4  -4   0    9.14    0.50 
   4  -4   0    9.23    0.50 
   4  -4   0    9.41    0.50 
   4  -4   0    9.80    0.46 
   4  -4   0    9.57    0.46 
   4  -4   0    9.86    0.45 
  -4   4   0    9.38    0.46 
   3  -4   0   46.10    2.01 
   3  -4   0   45.11    2.00 
   3  -4   0   46.79    2.04 
   3  -4   0   44.71    2.00 
   3  -4   0   43.92    2.04 
   3  -4   0   47.35    2.17 
   3  -4   0   45.20    2.02 
  -3   4   0   46.19    2.19 
  -3   4   0   42.76    1.99 
   2  -4   0   44.07    2.07 
   2  -4   0   45.22    2.02 
  -2   4   0   43.37    2.00 
  -2   4   0   45.38    2.08 
   1  -4   0   61.60    2.75 
  -1   4   0   61.85    2.70 
  -1   4   0   59.88    2.74 
   0  -4   0  287.16   13.09 
   0  -4   0  295.85   13.52 
   0   4   0  300.68   13.02 
   0   4   0  311.14   13.25 
  -1  -4   0   21.58    1.03 
  -1  -4   0   22.15    1.06 
   1   4   0   22.44    1.07 
   1   4   0   22.83    1.03 
  -2  -4   0    2.77    0.23 
  -2  -4   0    2.66    0.21 
   2   4   0    2.15    0.22 
   2   4   0    2.29    0.18 
  -3  -4   0   12.62    0.73 
   3   4   0   12.01    0.69 
   3   4   0   12.94    0.74 
  -4  -4   0    0.01    0.15 
   4   4   0    0.06    0.09 
   4   4   0    0.08    0.14 
   4   4   0    0.06    0.19 
   5  -5   0    1.96    0.12 
   5  -5   0    1.63    0.12 
   5  -5   0    1.88    0.15 
   5  -5   0    1.78    0.13 
  -5   5   0    2.25    0.16 
   4  -5   0    1.83    0.18 
   4  -5   0    2.00    0.14 
   4  -5   0    2.20    0.15 
   4  -5   0    2.25    0.18 
   4  -5   0    2.17    0.14 
   4  -5   0    2.23    0.20 
  -4   5   0    2.13    0.16 
   3  -5   0    3.54    0.23 
   3  -5   0    3.37    0.23 
   3  -5   0    3.18    0.21 
   3  -5   0    2.92    0.18 
   3  -5   0    3.62    0.33 
   3  -5   0    3.18    0.18 
   3  -5   0    2.69    0.19 
  -3   5   0    3.19    0.19 
  -3   5   0    3.14    0.36 
   2  -5   0   22.49    1.11 
  -2   5   0   21.13    0.98 
  -2   5   0   21.49    1.03 
  -2   5   0   22.46    1.11 
   1  -5   0  113.69    4.92 
  -1   5   0  111.29    4.86 
  -1   5   0  106.64    4.90 
   0  -5   0  101.83    4.53 
   0  -5   0   98.57    4.51 
   0   5   0  104.80    4.52 
   0   5   0  103.88    4.49 
  -1  -5   0  174.17    8.08 
  -1  -5   0  191.04    8.13 
   1   5   0  188.79    8.08 
  -2  -5   0  157.48    6.90 
  -2  -5   0  154.45    6.83 
   2   5   0  149.21    6.83 
   2   5   0  160.00    6.92 
  -3  -5   0    0.06    0.10 
   3   5   0    0.05    0.09 
  -4  -5   0   32.87    1.71 
   4   5   0   32.17    1.56 
   4   5   0   33.65    1.49 
   4   5   0   32.61    1.51 
   4   5   0   32.62    1.70 
   5   5   0   30.29    1.42 
   5  -6   0    0.09    0.04 
   5  -6   0    0.06    0.04 
   5  -6   0    0.09    0.05 
   5  -6   0    0.06    0.04 
  -5   6   0    0.12    0.07 
   4  -6   0    0.77    0.12 
   4  -6   0    1.30    0.14 
   4  -6   0    1.11    0.13 
   4  -6   0    0.99    0.09 
   4  -6   0    1.04    0.09 
   4  -6   0    0.98    0.11 
  -4   6   0    1.03    0.15 
  -4   6   0    1.06    0.13 
   3  -6   0    7.90    0.41 
   3  -6   0    8.22    0.43 
   3  -6   0    7.43    0.37 
   3  -6   0    7.43    0.37 
   3  -6   0    7.64    0.39 
   3  -6   0    7.95    0.43 
  -3   6   0    7.73    0.39 
  -3   6   0    7.15    0.68 
   2  -6   0    2.40    0.23 
   2  -6   0    2.99    0.20 
   2  -6   0    2.85    0.27 
   2  -6   0    2.23    0.25 
  -2   6   0    2.76    0.17 
  -2   6   0    2.69    0.29 
  -2   6   0    2.66    0.22 
   1  -6   0    1.29    0.16 
  -1   6   0    1.41    0.14 
  -1   6   0    1.40    0.19 
   0  -6   0   62.60    2.72 
   0  -6   0   56.95    2.70 
   0   6   0   56.20    2.70 
   0   6   0   64.24    2.68 
  -1  -6   0   33.77    1.62 
  -1  -6   0   34.39    1.58 
   1   6   0   34.12    1.57 
  -2  -6   0    8.95    0.56 
  -2  -6   0    8.82    0.49 
   2   6   0    9.13    0.50 
  -3  -6   0    0.51    0.17 
   3   6   0    0.60    0.11 
   3   6   0    0.61    0.17 
  -4  -6   0    1.21    0.29 
   4   6   0    1.21    0.14 
   4   6   0    1.38    0.17 
   4   6   0    1.42    0.22 
   4   6   0    1.88    0.35 
   5   6   0    0.23    0.10 
   5   6   0    0.15    0.16 
   5  -7   0    2.43    0.16 
   5  -7   0    2.63    0.14 
   5  -7   0    2.42    0.14 
   5  -7   0    2.30    0.14 
  -5   7   0    1.94    0.22 
   4  -7   0    9.07    0.43 
   4  -7   0    8.82    0.44 
   4  -7   0    8.65    0.48 
   4  -7   0    9.86    0.49 
   4  -7   0    9.11    0.43 
  -4   7   0    8.75    0.48 
  -4   7   0    9.48    0.48 
   3  -7   0    6.16    0.31 
   3  -7   0    6.34    0.35 
   3  -7   0    6.27    0.31 
   3  -7   0    5.97    0.32 
   3  -7   0    6.30    0.36 
   3  -7   0    5.96    0.35 
  -3   7   0    6.60    0.35 
  -3   7   0    6.28    0.37 
   2  -7   0    2.76    0.17 
   2  -7   0    3.17    0.31 
   2  -7   0    2.64    0.16 
   2  -7   0    2.78    0.19 
   2  -7   0    2.42    0.18 
   2  -7   0    3.50    0.22 
   2  -7   0    3.36    0.22 
  -2   7   0    2.89    0.20 
  -2   7   0    2.98    0.36 
  -2   7   0    3.06    0.22 
   1  -7   0    6.11    0.40 
  -1   7   0    5.50    0.40 
  -1   7   0    5.21    0.30 
  -1   7   0    5.44    0.34 
   0  -7   0   94.80    4.18 
   0   7   0   91.41    4.13 
  -1  -7   0    1.05    0.14 
   1   7   0    0.88    0.13 
  -2  -7   0   11.19    0.53 
  -2  -7   0   12.34    0.71 
   2   7   0   11.59    0.64 
  -3  -7   0    5.60    0.29 
  -3  -7   0    6.23    0.49 
   3   7   0    6.46    0.45 
   3   7   0    6.38    0.33 
   3   7   0    5.81    0.33 
   3   7   0    5.06    0.39 
   3   7   0    6.02    0.34 
   3   7   0    6.44    0.37 
   4   7   0    0.09    0.06 
   4   7   0    0.01    0.11 
   4   7   0    0.12    0.07 
   4   7   0    0.16    0.09 
   5   7   0    0.08    0.07 
   5   7   0    0.17    0.15 
   5   7   0    0.20    0.10 
   4  -8   0   10.17    0.47 
   4  -8   0    9.78    0.47 
   4  -8   0   10.10    0.48 
   4  -8   0   10.77    0.52 
  -4   8   0   10.14    0.52 
  -4   8   0    9.44    0.51 
   3  -8   0   25.15    1.15 
   3  -8   0   25.41    1.16 
   3  -8   0   26.53    1.19 
   3  -8   0   25.76    1.21 
   3  -8   0   24.59    1.15 
  -3   8   0   25.48    1.21 
  -3   8   0   26.72    1.20 
   2  -8   0   55.47    2.47 
   2  -8   0   56.43    2.52 
   2  -8   0   57.66    2.50 
  -2   8   0   55.08    2.53 
  -2   8   0   55.62    2.51 
   1  -8   0   20.25    0.93 
   1  -8   0   18.74    0.95 
   1  -8   0   19.83    0.93 
   1  -8   0   19.15    0.90 
   1  -8   0   21.92    1.08 
  -1   8   0   20.74    1.00 
  -1   8   0   19.45    0.93 
  -1   8   0   20.97    0.96 
   0  -8   0  237.51   10.13 
   0   8   0  221.36   10.07 
  -1  -8   0   37.38    1.75 
  -1  -8   0   41.89    1.88 
  -1  -8   0   40.15    1.92 
  -2  -8   0   13.99    0.79 
  -2  -8   0   12.55    0.57 
   2   8   0   13.05    0.62 
   2   8   0   12.94    0.60 
   2   8   0   11.58    0.60 
   2   8   0   12.15    0.60 
   2   8   0   10.50    0.64 
   2   8   0   12.19    0.69 
  -3  -8   0   60.93    2.69 
  -3  -8   0   57.95    2.95 
   3   8   0   63.18    2.77 
   3   8   0   61.49    2.74 
   3   8   0   60.28    2.78 
   3   8   0   61.46    2.74 
   3   8   0   60.58    2.89 
   3   8   0   64.66    2.74 
  -4  -8   0    7.02    0.34 
   4   8   0    7.08    0.39 
   4   8   0    7.37    0.46 
   4   8   0    6.61    0.38 
   4   8   0    7.48    0.42 
  -5  -8   0    0.11    0.04 
   5   8   0    0.15    0.14 
   5   8   0    0.19    0.08 
   5   8   0    0.20    0.10 
   4  -9   0    0.20    0.06 
   4  -9   0    0.34    0.08 
   4  -9   0    0.30    0.06 
   4  -9   0    0.29    0.09 
   4  -9   0    0.28    0.05 
  -4   9   0    0.32    0.09 
  -4   9   0    0.28    0.15 
   3  -9   0    1.27    0.14 
   3  -9   0    1.06    0.10 
   3  -9   0    1.44    0.14 
  -3   9   0    1.10    0.16 
  -3   9   0    1.06    0.21 
  -3   9   0    0.85    0.15 
   2  -9   0    2.17    0.14 
   2  -9   0    2.07    0.16 
   2  -9   0    2.02    0.19 
  -2   9   0    1.82    0.28 
  -2   9   0    2.06    0.20 
   1  -9   0   51.58    2.34 
   1  -9   0   52.94    2.51 
   1  -9   0   47.42    2.35 
   1  -9   0   55.15    2.33 
  -1   9   0   56.49    2.43 
  -1   9   0   55.23    2.34 
  -1   9   0   54.82    2.37 
  -1   9   0   43.82    2.55 
   0  -9   0    0.59    0.08 
   0  -9   0    0.64    0.18 
   0   9   0    0.82    0.12 
   0   9   0    0.78    0.16 
   0   9   0    0.61    0.12 
  -1  -9   0   17.73    0.81 
  -1  -9   0   16.21    0.79 
  -1  -9   0   16.33    0.81 
   1   9   0   18.70    0.84 
   1   9   0   17.48    0.83 
   1   9   0   18.03    0.83 
   1   9   0   17.56    0.91 
   1   9   0   17.20    0.85 
  -2  -9   0    0.21    0.17 
  -2  -9   0    0.12    0.04 
   2   9   0    0.09    0.06 
   2   9   0    0.27    0.13 
   2   9   0    0.03    0.11 
   2   9   0    0.06    0.07 
   2   9   0    0.09    0.08 
   2   9   0    0.07    0.07 
  -3  -9   0    1.28    0.10 
   3   9   0    1.25    0.15 
   3   9   0    1.22    0.13 
   3   9   0    1.37    0.18 
   3   9   0    1.17    0.18 
   3   9   0    1.26    0.16 
  -4  -9   0    0.08    0.04 
   4   9   0    0.11    0.12 
   4   9   0    0.04    0.06 
   4   9   0    0.08    0.07 
   4   9   0    0.07    0.09 
  -5  -9   0    6.67    0.32 
   5   9   0    6.67    0.38 
   5   9   0    6.59    0.36 
   5   9   0    6.56    0.44 
   3 -10   0    0.04    0.04 
   3 -10   0    0.09    0.07 
   3 -10   0    0.04    0.08 
  -3  10   0    0.14    0.09 
  -3  10   0    0.17    0.16 
   2 -10   0    1.71    0.15 
   2 -10   0    1.66    0.13 
   2 -10   0    2.02    0.19 
  -2  10   0    2.13    0.20 
  -2  10   0    1.84    0.29 
   1 -10   0   15.63    0.74 
   1 -10   0   15.19    0.73 
  -1  10   0   15.75    0.77 
  -1  10   0   15.04    0.74 
  -1  10   0   14.49    0.83 
   0 -10   0    3.18    0.20 
   0 -10   0    2.68    0.19 
   0 -10   0    3.01    0.35 
   0  10   0    3.06    0.24 
   0  10   0    2.97    0.22 
  -1 -10   0   21.44    0.98 
  -1 -10   0   21.90    0.99 
   1  10   0   20.62    1.11 
   1  10   0   19.85    1.00 
   1  10   0   21.06    1.03 
   1  10   0   21.65    1.01 
  -2 -10   0    2.34    0.15 
  -2 -10   0    2.15    0.17 
   2  10   0    1.89    0.18 
   2  10   0    2.34    0.20 
   2  10   0    2.14    0.24 
   2  10   0    2.43    0.19 
   2  10   0    1.88    0.19 
  -3 -10   0    0.14    0.06 
  -3 -10   0    0.10    0.04 
   3  10   0    0.02    0.07 
   3  10   0   -0.03    0.09 
   3  10   0    0.12    0.08 
   3  10   0    0.12    0.07 
   3  10   0    0.17    0.13 
  -4 -10   0    1.41    0.13 
  -4 -10   0    1.58    0.12 
   4  10   0    1.63    0.16 
   4  10   0    1.11    0.13 
   4  10   0    1.48    0.21 
   4  10   0    1.75    0.18 
  -5 -10   0    1.74    0.12 
   5  10   0    1.67    0.15 
   5  10   0    1.82    0.18 
   5  10   0    1.71    0.22 
   3 -11   0    0.66    0.07 
   3 -11   0    0.84    0.11 
  -3  11   0    0.81    0.13 
  -3  11   0    0.78    0.19 
   2 -11   0    0.21    0.06 
   2 -11   0    0.29    0.08 
  -2  11   0    0.26    0.19 
  -2  11   0    0.22    0.10 
   1 -11   0   27.81    1.27 
   1 -11   0   26.91    1.25 
  -1  11   0   27.02    1.29 
   0 -11   0    9.38    0.50 
   0 -11   0   10.25    0.50 
   0  11   0   10.15    0.52 
   0  11   0    9.69    0.54 
  -1 -11   0    7.52    0.40 
  -1 -11   0    8.19    0.41 
   1  11   0    7.27    0.45 
   1  11   0    7.90    0.43 
  -2 -11   0   42.34    1.84 
  -2 -11   0   42.27    1.87 
   2  11   0   38.74    1.86 
   2  11   0   40.81    1.90 
   2  11   0   40.28    1.88 
   2  11   0   42.76    1.92 
  -3 -11   0    0.64    0.09 
  -3 -11   0    0.51    0.09 
   3  11   0    0.58    0.11 
   3  11   0    0.52    0.15 
   3  11   0    0.49    0.11 
   3  11   0    0.44    0.09 
   3  11   0    0.54    0.13 
  -4 -11   0    0.20    0.05 
  -4 -11   0    0.27    0.07 
   4  11   0    0.21    0.12 
   4  11   0    0.07    0.07 
   4  11   0    0.13    0.08 
   4  11   0    0.14    0.07 
  -5 -11   0    1.50    0.14 
   5  11   0    1.37    0.19 
   5  11   0    1.19    0.15 
   5  11   0    1.16    0.13 
   2 -12   0   27.29    1.23 
  -2  12   0   26.41    1.25 
   1 -12   0    0.95    0.15 
   1 -12   0    1.07    0.11 
  -1  12   0    1.00    0.16 
   0 -12   0   21.49    1.01 
   0 -12   0   21.00    0.99 
   0  12   0   21.28    1.01 
   0  12   0   21.50    1.04 
  -1 -12   0   14.41    0.70 
  -1 -12   0   13.90    0.68 
   1  12   0   14.70    0.72 
   1  12   0   13.92    0.73 
   2  12   0    0.34    0.10 
   2  12   0    0.38    0.13 
   2  12   0    0.31    0.10 
  -3 -12   0    1.18    0.12 
  -3 -12   0    1.27    0.12 
   3  12   0    1.01    0.15 
   3  12   0    1.13    0.17 
   3  12   0    1.09    0.15 
   3  12   0    0.86    0.16 
  -4 -12   0    1.04    0.10 
  -4 -12   0    0.82    0.10 
   4  12   0    0.63    0.11 
   4  12   0    0.69    0.13 
   4  12   0    0.71    0.11 
   2 -13   0    3.46    0.20 
  -2  13   0    3.17    0.22 
   1 -13   0   13.16    0.62 
  -1  13   0   12.62    0.65 
   0 -13   0    0.07    0.06 
   0 -13   0    0.03    0.07 
   0  13   0    0.18    0.10 
   0  13   0    0.10    0.09 
  -1 -13   0   17.61    0.86 
  -1 -13   0   18.56    0.88 
   1  13   0   18.89    0.91 
   1  13   0   18.74    0.90 
  -2 -13   0   16.85    0.77 
  -2 -13   0   15.54    0.75 
   2  13   0   16.42    0.79 
   2  13   0   14.74    0.78 
  -3 -13   0    2.91    0.18 
  -3 -13   0    2.82    0.19 
   3  13   0    2.54    0.22 
   3  13   0    2.39    0.21 
  -4 -13   0    0.01    0.06 
  -4 -13   0    0.08    0.05 
   4  13   0    0.06    0.07 
   4  13   0    0.11    0.09 
   4  13   0   -0.01    0.08 
   1 -14   0    5.85    0.35 
  -1  14   0    6.32    0.34 
   0 -14   0    0.13    0.08 
   0 -14   0    0.01    0.06 
   0  14   0    0.08    0.09 
  -1 -14   0    1.38    0.13 
   1  14   0    1.20    0.15 
   1  14   0    1.15    0.15 
  -2 -14   0    0.05    0.05 
   2  14   0   -0.03    0.08 
   2  14   0    0.02    0.08 
  -3 -14   0    0.82    0.09 
  -3 -14   0    0.62    0.10 
   3  14   0    0.45    0.10 
   3  14  -1    1.43    0.15 
  -3 -14   1    1.73    0.13 
   2  14  -1    1.52    0.16 
  -2 -14   1    1.69    0.14 
   1  14  -1    6.89    0.38 
   1  14  -1    6.64    0.38 
  -1 -14   1    7.36    0.37 
  -1 -14   1    6.81    0.35 
   0  14  -1    0.87    0.13 
   0  14  -1    0.65    0.12 
   0 -14   1    1.05    0.11 
   0 -14   1    1.07    0.13 
   4  13  -1    0.29    0.08 
   4  13  -1    0.17    0.09 
  -4 -13   1    0.38    0.08 
   3  13  -1    0.98    0.14 
   3  13  -1    1.12    0.15 
   3  13  -1    1.10    0.15 
  -3 -13   1    1.45    0.13 
  -3 -13   1    1.54    0.14 
   2  13  -1    0.52    0.12 
   2  13  -1    0.60    0.12 
  -2 -13   1    0.72    0.10 
   1  13  -1    9.01    0.48 
   1  13  -1    8.75    0.47 
  -1 -13   1    8.48    0.45 
  -1 -13   1    8.54    0.44 
   0  13  -1    9.20    0.49 
   0  13  -1    8.92    0.48 
   0 -13   1    9.35    0.48 
   0 -13   1    9.20    0.46 
  -1  13  -1    0.40    0.11 
   1 -13   1    0.35    0.08 
  -2  13  -1    0.08    0.08 
   2 -13   1    0.03    0.06 
   4  12  -1    1.04    0.14 
   4  12  -1    1.13    0.16 
   4  12  -1    1.18    0.14 
  -4 -12   1    1.17    0.11 
  -4 -12   1    1.05    0.11 
   3  12  -1    7.85    0.44 
   3  12  -1    7.86    0.45 
   3  12  -1    7.87    0.47 
  -3 -12   1    8.69    0.41 
  -3 -12   1    8.44    0.43 
   2  12  -1    2.96    0.24 
   2  12  -1    3.23    0.25 
   2  12  -1    2.97    0.25 
  -2 -12   1    3.26    0.22 
   1  12  -1    6.19    0.38 
   1  12  -1    6.51    0.37 
  -1 -12   1    5.86    0.34 
  -1 -12   1    5.80    0.33 
   0  12  -1   32.51    1.49 
   0  12  -1   30.79    1.47 
   0 -12   1   32.91    1.46 
   0 -12   1   31.30    1.47 
  -1  12  -1   -0.02    0.10 
  -1  12  -1    0.00    0.09 
   1 -12   1    0.02    0.06 
   1 -12   1    0.00    0.11 
  -2  12  -1    9.13    0.50 
   2 -12   1   10.03    0.48 
   5  11  -1    2.15    0.18 
   5  11  -1    1.85    0.16 
   4  11  -1   31.78    1.49 
   4  11  -1   31.95    1.53 
   4  11  -1   30.39    1.49 
   4  11  -1   32.27    1.48 
  -4 -11   1   34.65    1.46 
  -4 -11   1   33.83    1.48 
   3  11  -1    0.10    0.10 
   3  11  -1    0.03    0.06 
   3  11  -1    0.10    0.09 
   3  11  -1    0.09    0.08 
  -3 -11   1    0.09    0.06 
  -3 -11   1    0.19    0.05 
   2  11  -1    6.91    0.39 
   2  11  -1    6.34    0.41 
   2  11  -1    6.38    0.39 
   2  11  -1    6.06    0.37 
   2  11  -1    6.75    0.40 
  -2 -11   1    7.05    0.37 
  -2 -11   1    6.67    0.36 
  -2 -11   1    6.83    0.35 
   1  11  -1   75.03    3.34 
   1  11  -1   74.30    3.32 
  -1 -11   1   72.33    3.29 
  -1 -11   1   75.75    3.31 
   0  11  -1    0.88    0.13 
   0  11  -1    0.99    0.16 
   0 -11   1    1.00    0.12 
   0 -11   1    0.85    0.11 
  -1  11  -1    2.68    0.24 
  -1  11  -1    2.63    0.21 
   1 -11   1    2.71    0.19 
   1 -11   1    2.42    0.21 
  -2  11  -1    1.77    0.32 
  -2  11  -1    1.86    0.19 
   2 -11   1    1.97    0.16 
   2 -11   1    1.71    0.12 
  -3  11  -1    3.35    0.22 
  -3  11  -1    3.14    0.29 
   3 -11   1    3.34    0.21 
   3 -11   1    3.05    0.17 
   5  10  -1    0.42    0.10 
   5  10  -1    0.60    0.15 
   5  10  -1    0.42    0.09 
  -5 -10   1    0.61    0.08 
   4  10  -1    8.20    0.51 
   4  10  -1    8.70    0.46 
   4  10  -1    8.56    0.48 
   4  10  -1    8.25    0.45 
  -4 -10   1    9.22    0.43 
  -4 -10   1    8.99    0.45 
   3  10  -1    0.23    0.08 
   3  10  -1    0.09    0.10 
   3  10  -1    0.10    0.08 
   3  10  -1    0.09    0.08 
  -3 -10   1    0.28    0.06 
   2  10  -1    2.74    0.23 
   2  10  -1    2.60    0.21 
   2  10  -1    2.69    0.21 
   2  10  -1    2.64    0.25 
   2  10  -1    2.77    0.21 
  -2 -10   1    2.34    0.19 
  -2 -10   1    2.75    0.17 
  -2 -10   1    2.82    0.19 
   1  10  -1   67.85    3.07 
   1  10  -1   68.43    3.05 
  -1 -10   1   66.75    3.03 
  -1 -10   1   69.76    3.03 
   0  10  -1    2.72    0.21 
   0  10  -1    2.39    0.23 
   0 -10   1    2.55    0.19 
   0 -10   1    2.84    0.19 
  -1  10  -1   16.37    0.84 
  -1  10  -1   16.71    0.81 
   1 -10   1   16.83    0.81 
   1 -10   1   17.30    0.80 
  -2  10  -1    5.60    0.44 
  -2  10  -1    6.01    0.37 
   2 -10   1    5.96    0.30 
   2 -10   1    6.39    0.34 
   2 -10   1    5.48    0.36 
  -3  10  -1    8.57    0.46 
  -3  10  -1    8.41    0.52 
   3 -10   1    8.22    0.40 
   3 -10   1    8.41    0.43 
   3 -10   1    8.05    0.45 
   5   9  -1    0.15    0.09 
   5   9  -1    0.28    0.13 
   5   9  -1    0.08    0.07 
  -5  -9   1    0.16    0.04 
   4   9  -1    1.12    0.19 
   4   9  -1    1.06    0.14 
   4   9  -1    1.21    0.16 
   4   9  -1    1.03    0.13 
  -4  -9   1    1.03    0.10 
   3   9  -1   14.06    0.69 
   3   9  -1   14.24    0.70 
   3   9  -1   14.14    0.70 
   3   9  -1   13.59    0.73 
  -3  -9   1   14.33    0.65 
   2   9  -1    0.51    0.17 
   2   9  -1    0.85    0.13 
   2   9  -1    0.76    0.12 
   2   9  -1    0.59    0.15 
   2   9  -1    0.73    0.11 
   2   9  -1    0.78    0.12 
  -2  -9   1    0.78    0.24 
  -2  -9   1    0.62    0.10 
  -2  -9   1    0.70    0.08 
   1   9  -1    7.91    0.40 
   1   9  -1    7.46    0.39 
   1   9  -1    6.97    0.41 
   1   9  -1    6.90    0.39 
  -1  -9   1    7.33    0.37 
  -1  -9   1    7.12    0.49 
  -1  -9   1    6.66    0.34 
  -1  -9   1    6.43    0.37 
   0   9  -1    1.09    0.20 
   0   9  -1    1.01    0.16 
   0   9  -1    1.02    0.14 
   0  -9   1    1.43    0.22 
   0  -9   1    0.98    0.11 
   0  -9   1    1.08    0.12 
  -1   9  -1    2.99    0.30 
  -1   9  -1    2.90    0.45 
  -1   9  -1    3.30    0.25 
  -1   9  -1    3.24    0.23 
   1  -9   1    3.03    0.21 
   1  -9   1    3.42    0.21 
   1  -9   1    3.28    0.34 
   1  -9   1    3.14    0.18 
  -2   9  -1    1.47    0.18 
   2  -9   1    1.36    0.13 
   2  -9   1    1.17    0.17 
   2  -9   1    1.35    0.11 
  -3   9  -1    0.64    0.14 
  -3   9  -1    0.98    0.15 
   3  -9   1    0.91    0.09 
   3  -9   1    1.00    0.13 
   3  -9   1    1.00    0.14 
  -4   9  -1    0.43    0.10 
  -4   9  -1    0.27    0.15 
   4  -9   1    0.38    0.07 
   4  -9   1    0.23    0.09 
   4  -9   1    0.38    0.05 
   4  -9   1    0.40    0.09 
   5   8  -1    6.89    0.37 
   5   8  -1    6.94    0.45 
   5   8  -1    6.61    0.40 
  -5  -8   1    6.90    0.33 
   4   8  -1    0.07    0.06 
   4   8  -1    0.02    0.12 
   4   8  -1    0.03    0.06 
   4   8  -1    0.11    0.09 
  -4  -8   1    0.04    0.04 
   3   8  -1   44.67    2.01 
   3   8  -1   41.04    2.15 
   3   8  -1   46.54    2.05 
   3   8  -1   45.19    2.01 
   3   8  -1   46.60    2.01 
  -3  -8   1   46.58    1.96 
  -3  -8   1   39.64    2.21 
   2   8  -1   38.16    1.68 
   2   8  -1   37.20    1.75 
   2   8  -1   38.43    1.67 
   2   8  -1   38.76    1.66 
   2   8  -1   35.42    1.66 
   2   8  -1   35.12    1.69 
   2   8  -1   37.35    1.77 
  -2  -8   1   36.78    1.63 
  -2  -8   1   33.72    1.83 
  -2  -8   1   36.54    1.73 
   1   8  -1    0.27    0.11 
  -1  -8   1    0.34    0.13 
  -1  -8   1    0.28    0.13 
  -1  -8   1    0.32    0.05 
   0   8  -1  138.87    6.32 
   0  -8   1  146.83    6.38 
  -1   8  -1   10.31    0.58 
  -1   8  -1   10.05    0.53 
  -1   8  -1   10.55    0.51 
   1  -8   1   10.99    0.50 
   1  -8   1   10.37    0.63 
   1  -8   1    9.86    0.48 
   1  -8   1    9.12    0.50 
  -2   8  -1    3.17    0.25 
  -2   8  -1    3.46    0.24 
   2  -8   1    3.37    0.22 
   2  -8   1    3.57    0.25 
   2  -8   1    3.23    0.19 
  -3   8  -1    0.48    0.12 
  -3   8  -1    0.57    0.11 
   3  -8   1    0.59    0.07 
   3  -8   1    0.60    0.09 
   3  -8   1    0.68    0.12 
   3  -8   1    0.74    0.11 
   3  -8   1    0.45    0.07 
  -4   8  -1    1.71    0.18 
  -4   8  -1    1.94    0.20 
   4  -8   1    1.87    0.13 
   4  -8   1    2.09    0.14 
   4  -8   1    2.02    0.18 
   4  -8   1    2.23    0.13 
   4  -8   1    2.25    0.18 
   5   7  -1   -0.05    0.09 
   5   7  -1    0.05    0.07 
   4   7  -1    4.34    0.35 
   4   7  -1    4.55    0.27 
   4   7  -1    4.73    0.31 
   4   7  -1    4.52    0.28 
   3   7  -1   24.88    1.16 
   3   7  -1   27.06    1.20 
   3   7  -1   23.65    1.15 
   3   7  -1   25.96    1.15 
   3   7  -1   25.34    1.30 
  -3  -7   1   25.08    1.35 
  -3  -7   1   23.27    1.11 
   2   7  -1    3.21    0.27 
  -2  -7   1    3.49    0.32 
  -2  -7   1    3.46    0.18 
   1   7  -1   79.09    3.51 
  -1  -7   1   80.70    3.52 
  -1  -7   1   77.38    3.56 
  -1  -7   1   74.94    3.41 
   0   7  -1   64.59    2.91 
   0  -7   1   64.68    2.95 
  -1   7  -1   73.93    3.32 
  -1   7  -1   69.98    3.25 
   1  -7   1   77.97    3.40 
  -2   7  -1   20.10    0.91 
  -2   7  -1   18.04    0.99 
  -2   7  -1   19.89    0.93 
  -2   7  -1   19.31    1.09 
   2  -7   1   19.84    0.93 
   2  -7   1   19.17    0.88 
   2  -7   1   20.19    1.07 
   2  -7   1   18.23    0.89 
   2  -7   1   19.50    0.91 
   2  -7   1   20.37    0.94 
  -3   7  -1    5.69    0.36 
  -3   7  -1    5.94    0.34 
   3  -7   1    6.06    0.36 
   3  -7   1    5.94    0.30 
   3  -7   1    5.94    0.31 
   3  -7   1    6.10    0.36 
   3  -7   1    5.95    0.30 
   3  -7   1    6.27    0.34 
  -4   7  -1    9.73    0.48 
  -4   7  -1    8.92    0.49 
   4  -7   1    8.98    0.49 
   4  -7   1    9.50    0.49 
   4  -7   1    8.71    0.44 
   4  -7   1    9.12    0.44 
   4  -7   1    9.42    0.44 
   4  -7   1    9.47    0.49 
  -5   7  -1    1.79    0.22 
   5  -7   1    2.43    0.13 
   5  -7   1    2.35    0.14 
   5  -7   1    2.28    0.13 
   5  -7   1    2.34    0.16 
   5   6  -1    8.10    0.41 
   5   6  -1    7.73    0.45 
   4   6  -1    3.35    0.25 
   4   6  -1    3.49    0.22 
   4   6  -1    3.16    0.30 
   4   6  -1    3.00    0.22 
   3   6  -1   10.50    0.58 
   3   6  -1   10.11    0.53 
   3   6  -1   10.82    0.53 
   3   6  -1   10.12    0.57 
   3   6  -1   11.28    0.65 
  -3  -6   1   12.18    0.72 
   2   6  -1   62.64    2.93 
   2   6  -1   61.63    2.84 
  -2  -6   1   63.15    2.86 
  -2  -6   1   63.40    2.92 
   1   6  -1    9.91    0.53 
  -1  -6   1   10.70    0.58 
  -1  -6   1    9.73    0.54 
   0   6  -1  182.21    7.68 
   0  -6   1  167.82    7.69 
  -1   6  -1   34.44    1.66 
  -1   6  -1   35.27    1.62 
   1  -6   1   35.94    1.68 
  -2   6  -1    0.61    0.14 
  -2   6  -1    0.63    0.08 
  -2   6  -1    0.80    0.21 
   2  -6   1    0.71    0.07 
   2  -6   1    0.74    0.13 
   2  -6   1    0.64    0.09 
   2  -6   1    0.80    0.17 
   2  -6   1    0.76    0.12 
  -3   6  -1    8.02    0.83 
  -3   6  -1   10.29    0.50 
   3  -6   1   10.81    0.54 
   3  -6   1   10.20    0.49 
   3  -6   1    9.75    0.48 
   3  -6   1    9.96    0.48 
   3  -6   1   11.05    0.52 
   3  -6   1    9.97    0.54 
  -4   6  -1    8.41    0.44 
  -4   6  -1    7.81    0.47 
   4  -6   1    9.64    0.48 
   4  -6   1    8.79    0.47 
   4  -6   1    8.40    0.42 
   4  -6   1    8.81    0.42 
   4  -6   1    8.71    0.43 
   4  -6   1    8.60    0.46 
  -5   6  -1    1.35    0.15 
  -5   6  -1    1.77    0.16 
   5  -6   1    1.71    0.11 
   5  -6   1    1.67    0.12 
   5  -6   1    1.69    0.11 
   5  -6   1    1.86    0.14 
   5   5  -1    5.76    0.37 
   4   5  -1    8.58    0.64 
   4   5  -1    8.27    0.51 
   4   5  -1    8.04    0.45 
   4   5  -1    8.10    0.43 
  -4  -5   1    8.65    0.63 
   3   5  -1    9.41    0.62 
   3   5  -1    8.84    0.56 
  -3  -5   1   10.05    0.62 
   2   5  -1    5.77    0.40 
   2   5  -1    5.21    0.33 
  -2  -5   1    5.36    0.35 
  -2  -5   1    5.29    0.38 
   1   5  -1   20.84    0.98 
   1   5  -1   19.09    0.91 
  -1  -5   1   18.29    0.92 
  -1  -5   1   18.53    0.95 
   0   5  -1  107.96    4.66 
   0   5  -1  110.76    4.66 
   0  -5   1  101.82    4.67 
   0  -5   1  102.93    4.69 
  -1   5  -1   23.06    1.07 
  -1   5  -1   22.38    1.10 
   1  -5   1   23.45    1.12 
  -2   5  -1    0.54    0.12 
  -2   5  -1    0.56    0.15 
  -2   5  -1    0.41    0.06 
   2  -5   1    0.78    0.14 
  -3   5  -1   13.52    0.64 
  -3   5  -1   12.91    0.82 
   3  -5   1   13.41    0.63 
   3  -5   1   14.10    0.66 
   3  -5   1   14.19    0.81 
   3  -5   1   13.62    0.63 
   3  -5   1   13.41    0.69 
   3  -5   1   13.75    0.68 
   3  -5   1   13.78    0.64 
  -4   5  -1   10.56    0.51 
   4  -5   1   10.48    0.51 
   4  -5   1   10.82    0.55 
   4  -5   1   10.56    0.55 
   4  -5   1    9.99    0.54 
   4  -5   1   10.75    0.50 
   4  -5   1   10.48    0.50 
  -5   5  -1   12.24    0.56 
  -5   5  -1   10.32    0.57 
   5  -5   1   12.03    0.54 
   5  -5   1   11.24    0.57 
   5  -5   1   11.95    0.54 
   5  -5   1   11.56    0.54 
   5  -5   1   11.43    0.56 
   4   4  -1    5.52    0.33 
   4   4  -1    5.59    0.31 
  -4  -4   1    5.77    0.48 
   3   4  -1   39.92    1.97 
   3   4  -1   41.55    2.02 
  -3  -4   1   43.46    2.03 
   2   4  -1   18.46    0.89 
   2   4  -1   18.76    0.96 
  -2  -4   1   17.75    0.93 
   1   4  -1  136.08    5.85 
   1   4  -1  131.31    5.79 
  -1  -4   1  128.63    5.80 
   0   4  -1   61.65    2.68 
   0   4  -1   62.89    2.68 
   0  -4   1   58.56    2.69 
   0  -4   1   59.11    2.70 
  -1   4  -1    0.55    0.08 
  -1   4  -1    0.54    0.10 
   1  -4   1    0.53    0.07 
   1  -4   1    0.54    0.09 
  -2   4  -1   48.00    2.22 
  -2   4  -1   50.34    2.28 
   2  -4   1   49.08    2.28 
   2  -4   1   49.35    2.22 
  -3   4  -1    5.59    0.44 
  -3   4  -1    5.67    0.29 
   3  -4   1    6.15    0.33 
   3  -4   1    5.92    0.29 
   3  -4   1    5.71    0.29 
   3  -4   1    5.99    0.43 
   3  -4   1    6.08    0.37 
   3  -4   1    5.40    0.34 
   3  -4   1    6.01    0.30 
   3  -4   1    5.75    0.32 
  -4   4  -1    2.92    0.19 
   4  -4   1    4.09    0.36 
   4  -4   1    3.23    0.23 
   4  -4   1    3.18    0.18 
   4  -4   1    3.09    0.19 
   4  -4   1    3.07    0.18 
   4  -4   1    2.97    0.23 
  -5   4  -1    0.14    0.06 
   5  -4   1    0.16    0.07 
   5  -4   1    0.19    0.05 
   5  -4   1    0.19    0.06 
   5  -4   1    0.23    0.05 
   5  -4   1    0.21    0.08 
   3   3  -1   82.09    3.65 
   3   3  -1   80.14    3.60 
  -3  -3   1   83.49    3.64 
  -3  -3   1   71.68    3.68 
   2   3  -1   28.85    1.31 
   2   3  -1   30.08    1.36 
   2   3  -1   30.85    1.42 
  -2  -3   1   27.74    1.43 
   1   3  -1  977.81   43.12 
   1   3  -1 1000.00   43.98 
  -1  -3   1  931.64   43.29 
   0   3  -1   38.24    1.69 
   0   3  -1   36.97    1.67 
   0   3  -1   38.98    1.67 
   0  -3   1   37.36    1.69 
   0  -3   1   36.57    1.69 
  -1   3  -1  218.63    9.39 
   1  -3   1  208.30    9.78 
   1  -3   1  218.72    9.51 
  -2   3  -1  227.32   10.02 
   2  -3   1  228.15   10.02 
   2  -3   1  232.44   10.07 
  -3   3  -1   24.62    1.25 
  -3   3  -1   25.94    1.33 
   3  -3   1   27.99    1.32 
   3  -3   1   27.01    1.26 
  -4   3  -1    4.53    0.25 
   4  -3   1    5.48    0.27 
   4  -3   1    4.53    0.31 
   4  -3   1    4.90    0.26 
   4  -3   1    5.05    0.30 
   4  -3   1    5.18    0.26 
  -5   3  -1   23.94    1.10 
   5  -3   1   24.68    1.10 
   5  -3   1   24.83    1.10 
   5  -3   1   22.98    1.13 
   5  -3   1   24.18    1.09 
   5  -3   1   25.29    1.14 
   6  -3   1   17.18    0.78 
   6  -3   1   16.63    0.77 
   6  -3   1   17.33    0.76 
   3   2  -1   10.21    0.49 
   3   2  -1    9.51    0.57 
   3   2  -1    9.59    0.58 
   3   2  -1    9.29    0.57 
  -3  -2   1    9.58    0.64 
   2   2  -1   21.90    1.12 
   2   2  -1   24.97    1.14 
   2   2  -1   23.89    1.09 
   2   2  -1   23.34    1.05 
  -2  -2   1   22.63    1.16 
   1   2  -1  401.33   18.27 
   1   2  -1  453.49   18.94 
   1   2  -1  412.24   17.85 
  -1  -2   1  370.03   17.91 
   0   2  -1  105.73    4.52 
   0   2  -1  102.69    4.51 
   0   2  -1  103.77    4.53 
   0  -2   1  102.32    4.60 
   0  -2   1  103.18    4.50 
  -1   2  -1   84.43    3.79 
   1  -2   1   84.07    3.81 
   1  -2   1   90.84    3.79 
  -2   2  -1   59.08    2.75 
   2  -2   1   64.18    2.76 
   2  -2   1   62.35    2.78 
  -3   2  -1   16.36    0.83 
   3  -2   1   16.72    0.87 
   3  -2   1   17.17    0.83 
  -4   2  -1   17.77    1.14 
   4  -2   1   22.45    0.97 
   4  -2   1   20.93    0.96 
   4  -2   1   20.14    1.06 
   4  -2   1   23.84    1.01 
   4  -2   1   20.90    1.01 
   4  -2   1   21.41    0.96 
   5  -2   1    1.42    0.12 
   5  -2   1    1.57    0.16 
   5  -2   1    0.96    0.11 
   5  -2   1    1.62    0.15 
   5  -2   1    1.31    0.10 
   6  -2   1   24.04    1.01 
   6  -2   1   21.24    1.03 
   6  -2   1   22.69    1.01 
   4   1  -1    2.79    0.22 
  -4  -1   1    2.96    0.31 
   3   1  -1    7.64    0.48 
   3   1  -1    6.44    0.43 
   3   1  -1    7.39    0.38 
   3   1  -1    7.12    0.45 
  -3  -1   1    6.60    0.39 
  -3  -1   1    7.08    0.42 
   2   1  -1   16.11    0.76 
   2   1  -1   14.09    0.73 
   2   1  -1   15.47    0.70 
   2   1  -1   14.57    0.73 
   1   1  -1   86.32    4.09 
   1   1  -1   94.50    4.08 
   1   1  -1   88.52    4.11 
   1   1  -1  105.58    4.13 
   0   1  -1  226.77   10.44 
   0   1  -1  250.66   10.56 
   0  -1   1  244.05   10.32 
   0  -1   1  218.94   10.58 
  -1   1  -1    0.43    0.06 
   1  -1   1    0.32    0.06 
  -2   1  -1    2.51    0.17 
   2  -1   1    2.43    0.18 
   2  -1   1    2.31    0.17 
  -3   1  -1    1.37    0.17 
   3  -1   1    1.21    0.15 
   3  -1   1    1.80    0.16 
  -4   1  -1    0.53    0.19 
   4  -1   1    0.62    0.14 
   4  -1   1    0.72    0.08 
   4  -1   1    0.70    0.08 
   4  -1   1    0.62    0.10 
   4  -1   1    0.63    0.12 
   4  -1   1    0.72    0.08 
   5  -1   1   10.03    0.47 
   5  -1   1    9.48    0.51 
   5  -1   1    9.95    0.51 
   5  -1   1    9.94    0.47 
   6  -1   1    0.19    0.07 
   6  -1   1    0.25    0.06 
   6  -1   1    0.16    0.04 
   5   0  -1    2.39    0.14 
   5   0  -1    2.38    0.16 
   4   0  -1    1.74    0.12 
   4   0  -1    1.68    0.13 
   4   0  -1    1.71    0.12 
   4   0  -1    1.64    0.16 
   4   0  -1    2.00    0.32 
  -4   0   1    1.88    0.30 
   3   0  -1  188.29    7.94 
   3   0  -1  176.49    7.98 
  -3   0   1  171.24    7.94 
  -3   0   1  188.05    7.99 
   2   0  -1  275.67   11.36 
   2   0  -1  264.78   11.37 
   2   0  -1  245.47   11.45 
   2   0  -1  261.98   11.32 
  -2   0   1  250.88   11.31 
   1   0  -1  112.90    4.58 
   1   0  -1   97.40    4.57 
   1   0  -1  104.45    4.56 
   1   0  -1  102.97    4.56 
   0   0  -1  169.78    7.76 
   0   0  -1  175.66    7.56 
   0   0   1  166.25    7.62 
   0   0   1  175.24    7.62 
  -1   0  -1  186.56    8.36 
  -1   0  -1  189.33    8.43 
   1   0   1  191.50    8.61 
   1   0   1  192.12    8.43 
   1   0   1  199.74    8.57 
   1   0   1  175.49    8.61 
  -2   0  -1    0.20    0.06 
  -2   0  -1    0.19    0.06 
   2   0   1    0.17    0.06 
   2   0   1    0.19    0.09 
   2   0   1    0.22    0.06 
   2   0   1    0.16    0.06 
  -3   0  -1    0.65    0.12 
   3   0   1    0.53    0.12 
   3   0   1    0.53    0.11 
  -4   0  -1    8.54    0.60 
   4   0   1    9.91    0.49 
   4   0   1    9.03    0.44 
   4   0   1    9.14    0.50 
   4   0   1    9.61    0.53 
   4   0   1    9.26    0.45 
   5   0   1   10.19    0.50 
   5   0   1   10.75    0.56 
   5   0   1   10.80    0.54 
   5   0   1   10.65    0.50 
   6   0   1    7.94    0.37 
   6  -1  -1    0.33    0.07 
   5  -1  -1    0.76    0.12 
   5  -1  -1    0.87    0.09 
   5  -1  -1    0.76    0.10 
   5  -1  -1    0.91    0.08 
   4  -1  -1   11.02    0.71 
   4  -1  -1   11.28    0.53 
   4  -1  -1   11.61    0.57 
   4  -1  -1   11.01    0.52 
   4  -1  -1   11.15    0.52 
  -4   1   1   10.84    0.71 
   3  -1  -1    6.92    0.43 
   3  -1  -1    6.74    0.38 
  -3   1   1    6.92    0.44 
   2  -1  -1   19.57    0.95 
   2  -1  -1   20.24    0.92 
   2  -1  -1   21.08    0.94 
  -2   1   1   19.94    0.95 
  -2   1   1   18.52    0.91 
   1  -1  -1  150.90    7.13 
   1  -1  -1  161.03    6.92 
   1  -1  -1  160.21    6.87 
  -1   1   1  148.32    6.84 
  -1   1   1  163.60    6.87 
   0  -1  -1    9.43    0.44 
   0  -1  -1    8.70    0.43 
   0   1   1    9.93    0.43 
   0   1   1   10.57    0.44 
  -1  -1  -1   65.56    2.88 
   1   1   1   68.98    2.86 
   1   1   1   67.55    2.88 
   1   1   1   61.90    2.86 
   1   1   1   62.63    2.87 
  -2  -1  -1   15.97    0.80 
   2   1   1   16.33    0.81 
   2   1   1   15.51    0.78 
   2   1   1   17.40    0.78 
   2   1   1   17.59    0.81 
  -3  -1  -1    6.48    0.40 
  -3  -1  -1    6.71    0.37 
   3   1   1    6.31    0.39 
   3   1   1    6.79    0.46 
   3   1   1    6.94    0.37 
  -4  -1  -1    0.60    0.17 
  -4  -1  -1    0.55    0.18 
   4   1   1    0.67    0.08 
   4   1   1    0.47    0.10 
   4   1   1    0.61    0.11 
   4   1   1    0.61    0.13 
   4   1   1    0.58    0.12 
   5   1   1   20.15    0.90 
   5   1   1   19.76    0.95 
   5  -2  -1    1.71    0.15 
   5  -2  -1    1.81    0.13 
   5  -2  -1    1.68    0.13 
   5  -2  -1    1.78    0.12 
   4  -2  -1   12.08    0.76 
   4  -2  -1   12.68    0.60 
   4  -2  -1   12.39    0.56 
   4  -2  -1   12.40    0.56 
   4  -2  -1   11.85    0.56 
   4  -2  -1   11.09    0.60 
  -4   2   1   10.95    0.75 
   3  -2  -1   49.45    2.19 
   3  -2  -1   47.24    2.23 
  -3   2   1   47.02    2.25 
   2  -2  -1  105.74    4.53 
   2  -2  -1  104.45    4.57 
  -2   2   1   99.60    4.52 
  -2   2   1  101.82    4.57 
   1  -2  -1   27.97    1.22 
   1  -2  -1   26.88    1.24 
   1  -2  -1   25.81    1.22 
  -1   2   1   27.99    1.24 
  -1   2   1   26.78    1.20 
   0  -2  -1   67.14    3.24 
   0  -2  -1   72.13    3.25 
   0   2   1   81.03    3.25 
   0   2   1   76.54    3.26 
  -1  -2  -1   61.04    2.69 
  -1  -2  -1   55.59    2.66 
   1   2   1   60.30    2.67 
   1   2   1   63.17    2.69 
   1   2   1   62.76    2.66 
  -2  -2  -1   40.00    1.84 
   2   2   1   41.25    1.83 
   2   2   1   40.08    1.83 
   2   2   1   39.20    1.80 
   2   2   1   40.70    1.85 
  -3  -2  -1    0.10    0.15 
  -3  -2  -1    0.14    0.09 
   3   2   1    0.22    0.07 
   3   2   1    0.12    0.11 
   3   2   1    0.13    0.10 
  -4  -2  -1   29.24    1.50 
   4   2   1   30.60    1.47 
   4   2   1   32.29    1.44 
   4   2   1   34.47    1.53 
   4   2   1   30.04    1.46 
   6  -3  -1    0.30    0.07 
   5  -3  -1    4.72    0.27 
   5  -3  -1    5.25    0.27 
   5  -3  -1    4.94    0.26 
   5  -3  -1    5.70    0.30 
   4  -3  -1   10.66    0.56 
   4  -3  -1   10.81    0.51 
   4  -3  -1   10.57    0.56 
   4  -3  -1   10.62    0.50 
   4  -3  -1   11.09    0.55 
   4  -3  -1   10.48    0.51 
   3  -3  -1   42.31    2.03 
  -3   3   1   43.01    2.05 
   2  -3  -1    0.06    0.05 
   2  -3  -1    0.02    0.06 
  -2   3   1    0.09    0.06 
  -2   3   1    0.05    0.08 
   1  -3  -1   30.62    1.43 
   1  -3  -1   30.57    1.43 
  -1   3   1   32.12    1.39 
  -1   3   1   31.76    1.44 
   0  -3  -1  186.99    8.44 
   0  -3  -1  176.06    8.51 
   0   3   1  208.51    8.39 
   0   3   1  196.91    8.52 
  -1  -3  -1   76.37    3.50 
  -1  -3  -1   81.20    3.55 
   1   3   1   83.29    3.56 
   1   3   1   81.64    3.51 
   1   3   1   77.58    3.51 
  -2  -3  -1   71.40    3.03 
  -2  -3  -1   64.37    3.01 
   2   3   1   65.45    2.99 
   2   3   1   66.28    2.96 
   2   3   1   67.86    3.04 
  -3  -3  -1   24.03    1.21 
   3   3   1   24.28    1.13 
   3   3   1   24.19    1.20 
  -4  -3  -1   19.90    1.03 
   4   3   1   22.78    1.05 
   4   3   1   18.77    0.98 
   4   3   1   21.73    1.17 
   4   3   1   19.22    0.96 
   5  -4  -1   19.50    0.95 
   5  -4  -1   20.19    0.93 
   5  -4  -1   20.80    0.92 
   5  -4  -1   20.19    0.93 
  -5   4   1   21.52    0.94 
   4  -4  -1   12.42    0.66 
   4  -4  -1   13.57    0.67 
   4  -4  -1   13.73    0.64 
   4  -4  -1   13.92    0.63 
   4  -4  -1   13.55    0.68 
   4  -4  -1   14.06    0.63 
  -4   4   1   13.81    0.63 
   3  -4  -1    1.13    0.19 
   3  -4  -1    0.90    0.11 
   3  -4  -1    0.75    0.08 
   3  -4  -1    0.92    0.12 
   3  -4  -1    0.81    0.08 
   3  -4  -1    0.75    0.10 
   3  -4  -1    1.07    0.12 
  -3   4   1    1.13    0.23 
  -3   4   1    0.69    0.08 
   2  -4  -1   93.06    4.20 
  -2   4   1   98.01    4.22 
  -2   4   1   90.26    4.12 
   1  -4  -1   99.92    4.37 
   1  -4  -1   94.78    4.37 
  -1   4   1  100.31    4.32 
  -1   4   1   99.73    4.37 
   0  -4  -1    0.40    0.07 
   0  -4  -1    0.36    0.06 
   0   4   1    0.33    0.08 
   0   4   1    0.33    0.06 
  -1  -4  -1   77.68    3.49 
  -1  -4  -1   81.10    3.54 
   1   4   1   79.51    3.49 
   1   4   1   79.31    3.50 
  -2  -4  -1    6.74    0.40 
  -2  -4  -1    6.76    0.35 
   2   4   1    6.18    0.41 
   2   4   1    6.60    0.37 
   2   4   1    6.11    0.33 
  -3  -4  -1    0.56    0.15 
   3   4   1    0.54    0.14 
  -4  -4  -1    5.20    0.45 
   4   4   1    5.49    0.33 
   4   4   1    5.68    0.48 
   4   4   1    4.65    0.35 
   4   4   1    5.50    0.38 
   5   4   1    0.16    0.18 
   5  -5  -1    0.58    0.07 
   5  -5  -1    0.44    0.06 
   5  -5  -1    0.64    0.07 
   5  -5  -1    0.58    0.09 
  -5   5   1    0.56    0.09 
   4  -5  -1   19.57    1.02 
   4  -5  -1   23.09    1.05 
   4  -5  -1   22.22    1.00 
   4  -5  -1   22.54    1.04 
   4  -5  -1   22.39    1.00 
   4  -5  -1   22.53    1.00 
  -4   5   1   21.91    1.01 
   3  -5  -1   32.31    1.46 
   3  -5  -1   32.32    1.46 
   3  -5  -1   33.85    1.47 
   3  -5  -1   29.82    1.49 
   3  -5  -1   34.28    1.49 
   3  -5  -1   33.41    1.65 
   3  -5  -1   34.45    1.50 
  -3   5   1   32.16    1.67 
  -3   5   1   32.66    1.46 
   2  -5  -1   22.52    1.08 
  -2   5   1   22.30    1.10 
  -2   5   1   19.41    1.03 
  -2   5   1   20.90    0.95 
   1  -5  -1  216.02    9.51 
  -1   5   1  217.39    9.45 
  -1   5   1  216.14    9.51 
   0  -5  -1  123.03    5.72 
   0  -5  -1  128.24    5.72 
   0   5   1  132.30    5.69 
   0   5   1  136.51    5.73 
  -1  -5  -1  242.59   10.85 
  -1  -5  -1  250.91   10.90 
   1   5   1  247.59   10.84 
   1   5   1  253.42   10.86 
  -2  -5  -1  305.38   12.89 
  -2  -5  -1  293.26   12.80 
   2   5   1  281.63   12.82 
  -3  -5  -1   25.16    1.29 
   3   5   1   24.59    1.24 
  -4  -5  -1    0.63    0.22 
   4   5   1    0.35    0.14 
   4   5   1    0.51    0.10 
   4   5   1    0.51    0.21 
   5   5   1   14.54    0.78 
   5   5   1   16.78    0.88 
   5  -6  -1    1.56    0.12 
   5  -6  -1    1.55    0.10 
   5  -6  -1    1.36    0.11 
   5  -6  -1    1.43    0.10 
  -5   6   1    1.52    0.15 
   4  -6  -1    0.25    0.09 
   4  -6  -1    0.12    0.07 
   4  -6  -1    0.21    0.07 
   4  -6  -1    0.21    0.06 
   4  -6  -1    0.27    0.05 
   4  -6  -1    0.26    0.05 
  -4   6   1    0.24    0.09 
  -4   6   1    0.19    0.07 
   3  -6  -1   11.20    0.52 
   3  -6  -1   11.66    0.56 
   3  -6  -1   11.26    0.53 
   3  -6  -1   11.49    0.55 
   3  -6  -1   10.36    0.55 
   3  -6  -1   10.71    0.51 
  -3   6   1    9.85    0.87 
  -3   6   1   10.64    0.56 
  -3   6   1   11.14    0.53 
   2  -6  -1    0.32    0.08 
   2  -6  -1    0.24    0.11 
   2  -6  -1    0.28    0.08 
  -2   6   1    0.23    0.06 
  -2   6   1    0.19    0.14 
   1  -6  -1   93.21    4.03 
  -1   6   1   88.40    3.95 
  -1   6   1   86.86    4.02 
   0  -6  -1   44.58    2.13 
   0  -6  -1   46.53    2.14 
   0   6   1   47.95    2.10 
   0   6   1   48.34    2.15 
  -1  -6  -1    1.32    0.17 
  -1  -6  -1    1.43    0.14 
   1   6   1    1.43    0.14 
  -2  -6  -1   35.85    1.74 
   2   6   1   35.86    1.67 
  -3  -6  -1    3.25    0.33 
   3   6   1    3.74    0.31 
  -4  -6  -1   22.20    1.26 
   4   6   1   20.89    1.08 
   4   6   1   22.04    1.09 
   4   6   1   21.83    1.02 
   4   6   1   21.19    1.22 
   4   6   1   24.12    1.05 
   5  -7  -1    0.29    0.04 
   5  -7  -1    0.11    0.04 
   5  -7  -1    0.17    0.05 
   5  -7  -1    0.30    0.05 
  -5   7   1    0.63    0.13 
   4  -7  -1    0.09    0.06 
   4  -7  -1    0.04    0.04 
   4  -7  -1    0.14    0.09 
   4  -7  -1    0.08    0.05 
   4  -7  -1    0.06    0.04 
  -4   7   1    0.18    0.08 
  -4   7   1    0.25    0.10 
   3  -7  -1    0.56    0.09 
   3  -7  -1    0.58    0.08 
   3  -7  -1    0.60    0.07 
   3  -7  -1    0.57    0.10 
   3  -7  -1    0.57    0.10 
   3  -7  -1    0.60    0.10 
  -3   7   1    0.49    0.09 
  -3   7   1    0.78    0.13 
   2  -7  -1   56.52    2.49 
   2  -7  -1   56.66    2.64 
   2  -7  -1   54.40    2.46 
   2  -7  -1   56.36    2.47 
   2  -7  -1   54.97    2.51 
   2  -7  -1   55.33    2.47 
   2  -7  -1   56.65    2.51 
   2  -7  -1   60.66    2.52 
  -2   7   1   57.83    2.49 
  -2   7   1   51.18    2.66 
  -2   7   1   55.94    2.51 
   1  -7  -1    3.84    0.29 
  -1   7   1    3.32    0.23 
  -1   7   1    3.15    0.21 
  -1   7   1    2.95    0.30 
   0  -7  -1   53.64    2.33 
   0  -7  -1   46.86    2.30 
   0   7   1   50.64    2.27 
  -1  -7  -1   34.41    1.61 
  -1  -7  -1   34.96    1.66 
   1   7   1   34.24    1.60 
  -2  -7  -1   26.29    1.27 
  -2  -7  -1   22.53    1.07 
   2   7   1   23.92    1.18 
  -3  -7  -1   23.56    1.21 
  -3  -7  -1   20.16    0.95 
   3   7   1   20.13    0.99 
   3   7   1   21.30    1.00 
   3   7   1   22.14    0.99 
   3   7   1   22.42    1.13 
   3   7   1   22.12    1.03 
   3   7   1   19.90    1.05 
   4   7   1    6.99    0.47 
   4   7   1    9.50    0.46 
   4   7   1    7.67    0.41 
   4   7   1    7.83    0.48 
   5   7   1    2.83    0.30 
   5   7   1    2.34    0.19 
   5   7   1    2.72    0.23 
   4  -8  -1    1.53    0.15 
   4  -8  -1    1.36    0.10 
   4  -8  -1    1.35    0.13 
   4  -8  -1    1.29    0.11 
   4  -8  -1    1.44    0.10 
  -4   8   1    1.26    0.15 
   3  -8  -1   25.86    1.16 
   3  -8  -1   24.62    1.16 
   3  -8  -1   27.15    1.21 
   3  -8  -1   25.87    1.19 
   3  -8  -1   25.24    1.16 
  -3   8   1   26.61    1.20 
  -3   8   1   25.18    1.21 
   2  -8  -1   73.36    3.23 
   2  -8  -1   73.35    3.21 
   2  -8  -1   73.29    3.18 
   2  -8  -1   70.15    3.17 
   2  -8  -1   78.23    3.23 
  -2   8   1   60.51    3.40 
  -2   8   1   76.15    3.22 
  -2   8   1   73.15    3.23 
   1  -8  -1   16.97    0.82 
   1  -8  -1   17.57    0.78 
   1  -8  -1   18.05    0.94 
   1  -8  -1   16.53    0.80 
   1  -8  -1   16.98    0.79 
  -1   8   1   15.94    0.85 
  -1   8   1   17.23    0.82 
   0  -8  -1   72.06    3.18 
   0   8   1   66.28    3.11 
  -1  -8  -1  116.78    5.42 
  -1  -8  -1  132.93    5.55 
  -1  -8  -1  121.49    5.59 
   1   8   1  126.24    5.52 
  -2  -8  -1    0.59    0.18 
  -2  -8  -1    0.43    0.06 
   2   8   1    0.53    0.09 
   2   8   1    0.55    0.15 
   2   8   1    0.63    0.10 
   2   8   1    0.46    0.10 
   2   8   1    0.80    0.17 
  -3  -8  -1   17.54    0.81 
  -3  -8  -1   17.43    1.05 
   3   8   1   18.63    0.89 
   3   8   1   17.94    0.85 
   3   8   1   17.35    0.91 
   3   8   1   18.42    0.87 
   3   8   1   18.74    0.85 
   3   8   1   17.81    0.99 
  -4  -8  -1    5.89    0.28 
   4   8   1    5.31    0.38 
   4   8   1    5.53    0.32 
   4   8   1    5.74    0.35 
   4   8   1    5.75    0.39 
   4   8   1    5.39    0.39 
  -5  -8  -1    6.36    0.32 
   5   8   1    6.54    0.36 
   5   8   1    6.43    0.44 
   5   8   1    6.65    0.39 
   6   8   1    3.58    0.29 
   4  -9  -1    3.44    0.23 
   4  -9  -1    3.43    0.18 
   4  -9  -1    3.48    0.19 
   4  -9  -1    3.87    0.22 
   4  -9  -1    3.38    0.19 
  -4   9   1    3.08    0.22 
  -4   9   1    3.73    0.38 
  -4   9   1    3.44    0.30 
   3  -9  -1   56.00    2.44 
   3  -9  -1   53.27    2.41 
   3  -9  -1   56.01    2.46 
   3  -9  -1   53.02    2.41 
  -3   9   1   54.24    2.46 
  -3   9   1   54.55    2.46 
  -3   9   1   55.43    2.54 
   2  -9  -1    9.65    0.54 
   2  -9  -1    9.99    0.48 
   2  -9  -1   10.48    0.54 
   2  -9  -1   10.49    0.51 
  -2   9   1    9.56    0.53 
  -2   9   1   10.18    0.54 
  -2   9   1   10.80    0.63 
   1  -9  -1   98.54    4.48 
   1  -9  -1   92.36    4.32 
   1  -9  -1   95.79    4.30 
   1  -9  -1   95.66    4.30 
  -1   9   1  105.63    4.40 
  -1   9   1   98.70    4.33 
   0  -9  -1   39.68    1.74 
   0  -9  -1   40.52    1.88 
   0  -9  -1   36.53    1.74 
   0   9   1   39.38    1.75 
   0   9   1   36.96    1.82 
   0   9   1   39.57    1.77 
  -1  -9  -1    7.79    0.43 
  -1  -9  -1    7.91    0.57 
  -1  -9  -1    8.24    0.42 
  -1  -9  -1    9.11    0.44 
   1   9   1    8.74    0.46 
   1   9   1    8.35    0.45 
   1   9   1    9.31    0.53 
   1   9   1    9.59    0.49 
   1   9   1   10.11    0.47 
  -2  -9  -1   30.52    1.65 
  -2  -9  -1   31.90    1.45 
  -2  -9  -1   33.02    1.43 
   2   9   1   30.52    1.46 
   2   9   1   32.27    1.48 
   2   9   1   32.46    1.51 
   2   9   1   34.05    1.47 
   2   9   1   31.00    1.57 
   2   9   1   33.23    1.47 
  -3  -9  -1    2.27    0.13 
   3   9   1    1.88    0.17 
   3   9   1    1.67    0.16 
   3   9   1    2.07    0.20 
   3   9   1    1.64    0.23 
   3   9   1    1.82    0.18 
  -4  -9  -1    3.22    0.18 
   4   9   1    2.99    0.28 
   4   9   1    3.26    0.29 
   4   9   1    3.29    0.21 
   4   9   1    3.41    0.25 
   4   9   1    2.99    0.22 
  -5  -9  -1    3.49    0.18 
   5   9   1    3.07    0.29 
   5   9   1    3.31    0.25 
   5   9   1    2.95    0.22 
   3 -10  -1   12.94    0.61 
   3 -10  -1   14.08    0.65 
   3 -10  -1   13.60    0.67 
  -3  10   1   13.14    0.74 
  -3  10   1   13.15    0.66 
   2 -10  -1   22.57    1.05 
   2 -10  -1   22.95    1.12 
   2 -10  -1   23.95    1.09 
  -2  10   1   23.42    1.12 
  -2  10   1   24.37    1.20 
   1 -10  -1    1.90    0.17 
   1 -10  -1    1.89    0.15 
  -1  10   1    1.44    0.26 
  -1  10   1    2.17    0.20 
   0 -10  -1    4.18    0.24 
   0 -10  -1    3.67    0.23 
   0  10   1    3.85    0.28 
   0  10   1    4.26    0.25 
   0  10   1    3.29    0.32 
  -1 -10  -1   23.69    1.09 
  -1 -10  -1   22.90    1.09 
   1  10   1   22.26    1.19 
   1  10   1   24.65    1.14 
   1  10   1   23.91    1.11 
   1  10   1   24.52    1.11 
  -2 -10  -1    0.06    0.04 
  -2 -10  -1    0.04    0.05 
   2  10   1    0.05    0.07 
   2  10   1    0.00    0.11 
   2  10   1   -0.01    0.08 
   2  10   1    0.08    0.07 
   2  10   1    0.03    0.07 
  -3 -10  -1    0.31    0.06 
  -3 -10  -1    0.35    0.07 
   3  10   1    0.21    0.07 
   3  10   1    0.29    0.10 
   3  10   1    0.32    0.09 
   3  10   1    0.20    0.12 
   3  10   1    0.23    0.10 
  -4 -10  -1   65.40    2.85 
  -4 -10  -1   64.19    2.87 
   4  10   1   62.72    2.87 
   4  10   1   61.82    2.89 
   4  10   1   66.09    2.89 
   4  10   1   66.08    2.95 
   4  10   1   67.15    3.09 
  -5 -10  -1    6.64    0.33 
   5  10   1    6.63    0.36 
   5  10   1    6.87    0.39 
   5  10   1    7.23    0.44 
   3 -11  -1    5.75    0.29 
   3 -11  -1    4.74    0.26 
  -3  11   1    5.43    0.31 
  -3  11   1    5.35    0.39 
   2 -11  -1    7.21    0.38 
  -2  11   1    7.23    0.50 
  -2  11   1    7.06    0.41 
   1 -11  -1   11.44    0.56 
   1 -11  -1   12.00    0.58 
  -1  11   1   10.56    0.67 
  -1  11   1   11.35    0.60 
   0 -11  -1   37.55    1.69 
   0 -11  -1   37.03    1.69 
   0  11   1   37.80    1.74 
   0  11   1   37.26    1.70 
  -1 -11  -1    9.14    0.44 
  -1 -11  -1    7.66    0.43 
  -1 -11  -1    8.41    0.43 
   1  11   1    8.78    0.49 
   1  11   1    9.14    0.46 
   1  11   1    7.75    0.47 
  -2 -11  -1    6.70    0.36 
  -2 -11  -1    6.59    0.34 
   2  11   1    6.62    0.39 
   2  11   1    6.43    0.42 
   2  11   1    6.48    0.38 
  -3 -11  -1    1.55    0.12 
  -3 -11  -1    1.35    0.13 
   3  11   1    1.34    0.14 
   3  11   1    1.30    0.16 
   3  11   1    1.09    0.17 
   3  11   1    1.28    0.19 
   3  11   1    1.16    0.17 
  -4 -11  -1    0.77    0.10 
  -4 -11  -1    0.79    0.09 
   4  11   1    0.64    0.12 
   4  11   1    0.66    0.11 
   4  11   1    0.77    0.15 
  -5 -11  -1    3.68    0.20 
   5  11   1    3.84    0.25 
   5  11   1    3.67    0.23 
   5  11   1    3.75    0.29 
   2 -12  -1   16.81    0.79 
  -2  12   1   17.01    0.82 
   1 -12  -1    3.59    0.25 
   1 -12  -1    3.60    0.22 
  -1  12   1    3.66    0.27 
   0 -12  -1    2.12    0.16 
   0 -12  -1    1.89    0.15 
   0  12   1    1.60    0.17 
   0  12   1    1.87    0.20 
  -1 -12  -1    9.94    0.48 
  -1 -12  -1    8.72    0.47 
   1  12   1    9.57    0.50 
   1  12   1    9.17    0.52 
  -2 -12  -1    4.21    0.26 
  -2 -12  -1    4.20    0.25 
   2  12   1    4.29    0.29 
   2  12   1    4.11    0.29 
   2  12   1    4.20    0.31 
  -3 -12  -1    0.89    0.10 
  -3 -12  -1    0.95    0.11 
   3  12   1    0.76    0.12 
   3  12   1    0.60    0.13 
   3  12   1    0.70    0.12 
   3  12   1    1.03    0.17 
  -4 -12  -1    0.27    0.06 
  -4 -12  -1    0.30    0.06 
   4  12   1    0.43    0.09 
   4  12   1    0.35    0.09 
   4  12   1    0.32    0.11 
   2 -13  -1    0.29    0.07 
  -2  13   1    0.37    0.10 
   1 -13  -1   30.51    1.36 
   1 -13  -1   29.27    1.34 
  -1  13   1   29.24    1.38 
   0 -13  -1   30.28    1.35 
   0 -13  -1   28.88    1.33 
   0  13   1   28.53    1.37 
  -1 -13  -1    1.55    0.14 
  -1 -13  -1    1.87    0.15 
   1  13   1    1.50    0.17 
   1  13   1    1.68    0.19 
  -2 -13  -1   35.20    1.51 
  -2 -13  -1   33.07    1.50 
   2  13   1   31.70    1.53 
   2  13   1   32.80    1.54 
  -3 -13  -1    4.21    0.25 
  -3 -13  -1    4.51    0.25 
   3  13   1    3.90    0.27 
   3  13   1    4.30    0.29 
  -4 -13  -1    1.05    0.11 
  -4 -13  -1    0.84    0.10 
   4  13   1    0.75    0.12 
   4  13   1    1.01    0.13 
   4  13   1    1.01    0.15 
   1 -14  -1    0.69    0.09 
  -1  14   1    0.67    0.11 
   0 -14  -1    3.34    0.20 
   0 -14  -1    3.54    0.22 
   0  14   1    3.52    0.24 
  -1 -14  -1    3.81    0.24 
   1  14   1    3.59    0.25 
   1  14   1    4.14    0.27 
  -2 -14  -1    1.26    0.12 
   2  14   1    1.06    0.14 
   2  14   1    1.25    0.15 
  -3 -14  -1    0.08    0.07 
  -3 -14  -1    0.13    0.05 
   3  14   1    0.01    0.08 
   2  14  -2    3.50    0.24 
  -2 -14   2    4.06    0.23 
   1  14  -2    3.44    0.23 
   1  14  -2    3.69    0.24 
  -1 -14   2    3.83    0.22 
  -1 -14   2    3.87    0.23 
   0  14  -2    8.96    0.48 
   0  14  -2    9.66    0.47 
   0 -14   2    9.82    0.46 
   3  13  -2    3.04    0.23 
   3  13  -2    3.09    0.23 
   3  13  -2    3.37    0.24 
  -3 -13   2    3.61    0.22 
  -3 -13   2    3.71    0.22 
   2  13  -2   18.18    0.92 
  -2 -13   2   20.04    0.91 
   1  13  -2    1.11    0.15 
   1  13  -2    1.18    0.16 
  -1 -13   2    1.36    0.14 
  -1 -13   2    1.47    0.13 
   0  13  -2    8.67    0.47 
   0  13  -2    8.90    0.47 
   0 -13   2    9.07    0.45 
   0 -13   2    8.75    0.46 
  -1  13  -2    7.17    0.39 
   1 -13   2    7.03    0.37 
   4  12  -2    0.10    0.09 
   4  12  -2    0.04    0.07 
   4  12  -2    0.09    0.07 
  -4 -12   2    0.07    0.05 
  -4 -12   2    0.00    0.05 
   3  12  -2    7.22    0.41 
   3  12  -2    7.14    0.41 
   3  12  -2    7.24    0.43 
  -3 -12   2    7.56    0.40 
  -3 -12   2    7.54    0.38 
   2  12  -2    4.23    0.38 
   2  12  -2    4.03    0.30 
   2  12  -2    5.01    0.32 
  -2 -12   2    5.06    0.29 
  -2 -12   2    4.81    0.28 
   1  12  -2    0.13    0.09 
   1  12  -2    0.17    0.11 
  -1 -12   2    0.24    0.08 
  -1 -12   2    0.16    0.07 
   0  12  -2   11.98    0.61 
   0  12  -2   11.90    0.62 
   0 -12   2   12.02    0.59 
   0 -12   2   11.55    0.60 
  -1  12  -2    0.04    0.09 
  -1  12  -2    0.03    0.09 
   1 -12   2    0.08    0.06 
  -2  12  -2    0.09    0.09 
   2 -12   2    0.05    0.06 
   5  11  -2    0.85    0.11 
   5  11  -2    0.60    0.11 
   4  11  -2   30.15    1.40 
   4  11  -2   29.33    1.41 
   4  11  -2   30.95    1.44 
   4  11  -2   29.19    1.41 
  -4 -11   2   32.86    1.38 
  -4 -11   2   30.85    1.39 
   3  11  -2    6.42    0.39 
   3  11  -2    6.27    0.39 
   3  11  -2    6.20    0.41 
   3  11  -2    6.82    0.39 
  -3 -11   2    7.16    0.35 
  -3 -11   2    7.14    0.38 
   2  11  -2    7.09    0.43 
   2  11  -2    7.04    0.42 
   2  11  -2    7.15    0.40 
   2  11  -2    6.64    0.41 
   2  11  -2    7.61    0.41 
  -2 -11   2    7.14    0.39 
  -2 -11   2    6.93    0.38 
  -2 -11   2    7.08    0.37 
   1  11  -2   13.80    0.73 
   1  11  -2   14.49    0.73 
  -1 -11   2   14.65    0.70 
  -1 -11   2   14.32    0.71 
   0  11  -2    2.24    0.22 
   0  11  -2    2.07    0.20 
   0 -11   2    2.29    0.18 
   0 -11   2    2.51    0.18 
  -1  11  -2    0.21    0.10 
  -1  11  -2    0.22    0.11 
   1 -11   2    0.41    0.09 
  -2  11  -2    0.07    0.09 
   2 -11   2    0.06    0.07 
   2 -11   2    0.02    0.05 
  -3  11  -2    0.06    0.09 
   3 -11   2    0.07    0.04 
   3 -11   2    0.08    0.07 
   5  10  -2    0.81    0.11 
   5  10  -2    0.66    0.11 
  -5 -10   2    0.89    0.09 
   4  10  -2   10.09    0.51 
   4  10  -2    9.29    0.52 
   4  10  -2    9.95    0.56 
   4  10  -2    8.69    0.50 
  -4 -10   2   10.50    0.47 
   3  10  -2   37.29    1.69 
   3  10  -2   35.97    1.72 
   3  10  -2   36.35    1.69 
   3  10  -2   35.31    1.68 
  -3 -10   2   38.49    1.65 
   2  10  -2    2.43    0.19 
   2  10  -2    2.17    0.21 
   2  10  -2    1.92    0.23 
   2  10  -2    2.10    0.20 
   2  10  -2    1.94    0.19 
  -2 -10   2    1.98    0.17 
  -2 -10   2    2.32    0.18 
  -2 -10   2    2.38    0.15 
   1  10  -2   34.80    1.66 
   1  10  -2   36.43    1.66 
  -1 -10   2   37.99    1.64 
  -1 -10   2   34.80    1.64 
   0  10  -2   35.19    1.66 
   0  10  -2   36.78    1.65 
   0 -10   2   36.47    1.63 
   0 -10   2   35.18    1.63 
  -1  10  -2   -0.02    0.10 
  -1  10  -2    0.11    0.09 
   1 -10   2    0.11    0.08 
   1 -10   2    0.00    0.06 
   1 -10   2    0.02    0.06 
  -2  10  -2   18.80    1.02 
  -2  10  -2   21.01    0.97 
  -2  10  -2   17.60    0.99 
   2 -10   2   21.16    0.90 
   2 -10   2   22.10    0.94 
   2 -10   2   17.58    0.96 
  -3  10  -2   11.01    0.57 
  -3  10  -2   10.91    0.62 
   3 -10   2   11.43    0.55 
   3 -10   2   11.16    0.51 
   3 -10   2   10.81    0.56 
   5   9  -2    0.30    0.08 
   5   9  -2    0.36    0.10 
  -5  -9   2    0.33    0.05 
   4   9  -2    0.05    0.06 
   4   9  -2    0.20    0.10 
   4   9  -2    0.22    0.13 
   4   9  -2    0.15    0.08 
  -4  -9   2    0.30    0.06 
   3   9  -2   11.41    0.59 
   3   9  -2   11.11    0.62 
   3   9  -2   11.33    0.59 
   3   9  -2   11.90    0.59 
  -3  -9   2   11.66    0.55 
   2   9  -2    1.78    0.18 
   2   9  -2    1.35    0.20 
   2   9  -2    2.06    0.17 
   2   9  -2    2.09    0.19 
   2   9  -2    2.06    0.18 
   2   9  -2    1.36    0.25 
  -2  -9   2    2.17    0.33 
  -2  -9   2    2.05    0.17 
  -2  -9   2    2.24    0.14 
   1   9  -2    4.38    0.38 
   1   9  -2    4.69    0.31 
   1   9  -2    4.86    0.33 
   1   9  -2    5.31    0.31 
  -1  -9   2    4.97    0.29 
  -1  -9   2    5.14    0.26 
  -1  -9   2    5.24    0.41 
  -1  -9   2    5.64    0.29 
   0   9  -2    1.77    0.18 
   0   9  -2    1.98    0.18 
   0   9  -2    1.98    0.23 
   0  -9   2    1.76    0.15 
   0  -9   2    1.80    0.26 
   0  -9   2    1.65    0.15 
  -1   9  -2    0.81    0.14 
  -1   9  -2    0.61    0.31 
  -1   9  -2    0.65    0.12 
   1  -9   2    0.77    0.11 
   1  -9   2    0.55    0.08 
   1  -9   2    0.82    0.11 
  -2   9  -2    3.92    0.27 
  -2   9  -2    3.07    0.25 
   2  -9   2    3.50    0.23 
   2  -9   2    3.44    0.19 
   2  -9   2    2.96    0.25 
  -3   9  -2    0.23    0.10 
   3  -9   2    0.25    0.06 
   3  -9   2    0.25    0.09 
   3  -9   2    0.24    0.08 
  -4   9  -2    0.27    0.09 
  -4   9  -2    0.12    0.15 
   4  -9   2    0.15    0.07 
   4  -9   2    0.23    0.04 
   4  -9   2    0.23    0.08 
   4  -9   2    0.16    0.09 
   5   8  -2    1.07    0.16 
   5   8  -2    1.07    0.13 
  -5  -8   2    1.09    0.10 
   4   8  -2   22.59    1.15 
   4   8  -2   22.63    1.09 
   4   8  -2   23.40    1.11 
   4   8  -2   23.35    1.09 
  -4  -8   2   23.91    1.05 
   3   8  -2    0.34    0.09 
   3   8  -2    0.18    0.20 
   3   8  -2    0.30    0.09 
   3   8  -2    0.26    0.09 
   3   8  -2    0.32    0.11 
  -3  -8   2    0.40    0.06 
   2   8  -2    6.00    0.35 
   2   8  -2    5.48    0.33 
   2   8  -2    6.16    0.33 
   2   8  -2    5.88    0.35 
   2   8  -2    6.25    0.34 
   2   8  -2    6.11    0.43 
  -2  -8   2    5.68    0.32 
  -2  -8   2    6.03    0.30 
  -2  -8   2    5.63    0.47 
   1   8  -2   28.24    1.45 
   1   8  -2   30.12    1.37 
   1   8  -2   29.65    1.37 
  -1  -8   2   30.46    1.48 
  -1  -8   2   28.31    1.49 
  -1  -8   2   29.19    1.33 
  -1  -8   2   32.43    1.37 
   0   8  -2    9.31    0.48 
   0   8  -2    8.73    0.49 
   0   8  -2    9.21    0.54 
   0   8  -2    9.11    0.50 
   0  -8   2   10.76    0.61 
   0  -8   2    9.66    0.47 
   0  -8   2    9.53    0.47 
  -1   8  -2    2.64    0.19 
  -1   8  -2    2.27    0.20 
  -1   8  -2    2.24    0.25 
   1  -8   2    2.47    0.15 
   1  -8   2    2.48    0.28 
   1  -8   2    2.74    0.17 
   1  -8   2    1.96    0.17 
  -2   8  -2   16.70    0.80 
  -2   8  -2   16.64    0.80 
  -2   8  -2   16.89    0.82 
   2  -8   2   16.42    0.76 
   2  -8   2   16.80    0.83 
   2  -8   2   16.73    0.79 
   2  -8   2   15.25    0.81 
  -3   8  -2    4.76    0.31 
  -3   8  -2    5.11    0.32 
   3  -8   2    4.55    0.25 
   3  -8   2    5.24    0.30 
   3  -8   2    4.36    0.25 
   3  -8   2    4.75    0.26 
   3  -8   2    4.82    0.31 
  -4   8  -2   11.40    0.59 
  -4   8  -2   11.98    0.59 
   4  -8   2   11.19    0.53 
   4  -8   2   11.35    0.54 
   4  -8   2   11.36    0.54 
   4  -8   2   11.88    0.59 
   5   7  -2    0.08    0.08 
   5   7  -2    0.19    0.10 
   4   7  -2    0.30    0.09 
   4   7  -2    0.13    0.07 
   4   7  -2    0.24    0.10 
   4   7  -2    0.40    0.15 
   3   7  -2    5.82    0.36 
   3   7  -2    5.61    0.33 
   3   7  -2    5.48    0.33 
   3   7  -2    5.88    0.32 
  -3  -7   2    5.66    0.28 
  -3  -7   2    5.58    0.48 
   2   7  -2   26.55    1.28 
  -2  -7   2   25.50    1.34 
  -2  -7   2   24.47    1.14 
  -2  -7   2   26.43    1.29 
   1   7  -2    8.01    0.49 
  -1  -7   2    9.05    0.52 
  -1  -7   2    8.29    0.40 
  -1  -7   2    8.90    0.54 
   0   7  -2    0.53    0.12 
   0  -7   2    0.52    0.13 
  -1   7  -2   33.40    1.63 
  -1   7  -2   35.29    1.65 
   1  -7   2   36.88    1.72 
  -2   7  -2    1.67    0.16 
  -2   7  -2    1.48    0.22 
  -2   7  -2    1.60    0.17 
  -2   7  -2    1.63    0.17 
   2  -7   2    1.97    0.15 
   2  -7   2    1.37    0.17 
   2  -7   2    1.63    0.12 
   2  -7   2    1.86    0.18 
   2  -7   2    1.65    0.24 
   2  -7   2    1.60    0.14 
  -3   7  -2    1.00    0.16 
  -3   7  -2    1.05    0.14 
   3  -7   2    0.91    0.11 
   3  -7   2    0.86    0.15 
   3  -7   2    0.95    0.09 
   3  -7   2    0.96    0.15 
   3  -7   2    1.00    0.14 
   3  -7   2    0.99    0.10 
  -4   7  -2    0.88    0.14 
  -4   7  -2    0.95    0.15 
   4  -7   2    0.80    0.10 
   4  -7   2    1.10    0.13 
   4  -7   2    0.94    0.14 
   4  -7   2    1.03    0.09 
   4  -7   2    1.06    0.09 
   4  -7   2    0.74    0.13 
  -5   7  -2    0.09    0.11 
   5  -7   2    0.17    0.05 
   5  -7   2    0.11    0.06 
   5  -7   2    0.14    0.04 
   5  -7   2    0.07    0.05 
   5   6  -2   12.84    0.68 
   5   6  -2   13.77    0.65 
   4   6  -2    0.11    0.07 
   4   6  -2    0.09    0.08 
   4   6  -2    0.08    0.07 
   4   6  -2    0.17    0.13 
   3   6  -2   69.38    3.41 
   3   6  -2   73.70    3.21 
   3   6  -2   73.00    3.20 
   3   6  -2   74.04    3.34 
   3   6  -2   71.11    3.20 
   3   6  -2   70.73    3.23 
  -3  -6   2   74.29    3.41 
   2   6  -2  151.14    6.87 
   2   6  -2  152.08    6.78 
  -2  -6   2  152.05    6.85 
  -2  -6   2  157.42    6.81 
   1   6  -2   33.62    1.59 
   1   6  -2   32.50    1.52 
  -1  -6   2   32.28    1.56 
  -1  -6   2   32.00    1.54 
   0   6  -2   61.61    2.66 
   0  -6   2   58.77    2.70 
   0  -6   2   57.08    2.67 
  -1   6  -2   13.38    0.69 
  -1   6  -2   14.44    0.73 
   1  -6   2   13.29    0.74 
  -2   6  -2    3.97    0.23 
  -2   6  -2    3.91    0.30 
  -2   6  -2    3.96    0.36 
   2  -6   2    3.93    0.23 
   2  -6   2    3.96    0.26 
   2  -6   2    3.81    0.21 
   2  -6   2    4.30    0.34 
   2  -6   2    4.15    0.27 
  -3   6  -2    2.67    0.18 
   3  -6   2    2.76    0.21 
   3  -6   2    2.85    0.23 
   3  -6   2    2.72    0.20 
   3  -6   2    2.53    0.16 
   3  -6   2    2.39    0.16 
   3  -6   2    2.41    0.17 
  -4   6  -2    7.69    0.41 
  -4   6  -2    7.15    0.43 
   4  -6   2    7.96    0.39 
   4  -6   2    7.57    0.38 
   4  -6   2    8.17    0.44 
   4  -6   2    7.74    0.43 
   4  -6   2    7.33    0.43 
   4  -6   2    7.88    0.38 
  -5   6  -2    2.17    0.18 
  -5   6  -2    2.43    0.19 
   5  -6   2    2.55    0.15 
   5  -6   2    3.02    0.19 
   5  -6   2    2.69    0.15 
   5  -6   2    2.74    0.15 
   5   5  -2    0.16    0.10 
   4   5  -2    9.71    0.52 
   4   5  -2   10.13    0.50 
   4   5  -2    9.82    0.51 
  -4  -5   2   10.19    0.72 
   3   5  -2   14.20    0.77 
   3   5  -2   12.94    0.82 
  -3  -5   2   13.80    0.82 
   2   5  -2  151.80    6.63 
   2   5  -2  151.37    6.72 
  -2  -5   2  149.35    6.67 
  -2  -5   2  148.08    6.69 
   1   5  -2   27.75    1.34 
   1   5  -2   28.04    1.28 
  -1  -5   2   27.07    1.32 
  -1  -5   2   27.11    1.31 
   0   5  -2   23.02    0.99 
   0   5  -2   19.48    0.99 
   0  -5   2   19.62    0.99 
   0  -5   2   21.82    1.02 
  -1   5  -2  116.77    5.13 
  -1   5  -2  116.32    5.11 
   1  -5   2  114.72    5.16 
  -2   5  -2    7.98    0.49 
  -2   5  -2    7.43    0.44 
  -2   5  -2    7.32    0.37 
   2  -5   2    8.14    0.49 
   2  -5   2    7.42    0.42 
  -3   5  -2    3.15    0.37 
  -3   5  -2    3.11    0.19 
   3  -5   2    3.46    0.33 
   3  -5   2    3.35    0.25 
   3  -5   2    2.73    0.19 
   3  -5   2    3.14    0.22 
   3  -5   2    3.08    0.18 
   3  -5   2    3.10    0.18 
   3  -5   2    3.19    0.21 
  -4   5  -2    4.89    0.28 
   4  -5   2    5.05    0.33 
   4  -5   2    5.12    0.27 
   4  -5   2    5.23    0.32 
   4  -5   2    5.10    0.26 
   4  -5   2    4.83    0.26 
  -5   5  -2   41.24    2.02 
  -5   5  -2   45.23    2.00 
   5  -5   2   45.83    2.02 
   5  -5   2   45.54    2.02 
   5  -5   2   44.00    1.98 
   5  -5   2   46.63    1.98 
   5  -5   2   45.74    1.98 
   4   4  -2    3.22    0.22 
   4   4  -2    3.04    0.21 
   4   4  -2    2.86    0.23 
   4   4  -2    2.92    0.37 
  -4  -4   2    3.26    0.37 
   3   4  -2    5.01    0.42 
   3   4  -2    5.91    0.41 
  -3  -4   2    5.63    0.47 
  -3  -4   2    6.34    0.44 
   2   4  -2   34.49    1.64 
   2   4  -2   34.34    1.57 
  -2  -4   2   32.85    1.64 
   1   4  -2    0.02    0.05 
   1   4  -2    0.03    0.06 
  -1  -4   2    0.13    0.07 
   0   4  -2   19.57    0.94 
   0   4  -2   21.96    0.96 
   0   4  -2   21.62    0.99 
   0  -4   2   20.80    0.98 
   0  -4   2   20.20    0.98 
  -1   4  -2   13.47    0.67 
  -1   4  -2   13.95    0.65 
   1  -4   2   13.20    0.64 
   1  -4   2   12.98    0.68 
  -2   4  -2   29.35    1.41 
  -2   4  -2   31.52    1.46 
   2  -4   2   30.38    1.46 
   2  -4   2   30.00    1.40 
  -3   4  -2    0.16    0.14 
  -3   4  -2    0.16    0.13 
  -3   4  -2    0.19    0.05 
   3  -4   2    0.22    0.05 
   3  -4   2    0.16    0.09 
   3  -4   2    0.22    0.05 
   3  -4   2    0.19    0.08 
   3  -4   2    0.29    0.06 
   3  -4   2    0.20    0.12 
   3  -4   2    0.16    0.09 
   3  -4   2    0.40    0.09 
  -4   4  -2    2.27    0.16 
   4  -4   2    2.43    0.21 
   4  -4   2    2.52    0.15 
   4  -4   2    2.51    0.17 
   4  -4   2    2.27    0.15 
   4  -4   2    2.69    0.21 
  -5   4  -2    2.58    0.18 
   5  -4   2    2.86    0.16 
   5  -4   2    2.86    0.16 
   5  -4   2    2.63    0.20 
   5  -4   2    2.39    0.19 
   5  -4   2    2.41    0.16 
   4   3  -2   86.84    4.34 
   4   3  -2   94.22    4.15 
  -4  -3   2  101.46    4.44 
   3   3  -2   57.77    2.64 
   3   3  -2   57.57    2.59 
  -3  -3   2   52.08    2.69 
   2   3  -2   16.45    0.85 
   2   3  -2   16.54    0.79 
  -2  -3   2   15.88    0.88 
   1   3  -2  228.80    9.67 
   1   3  -2  218.37    9.62 
  -1  -3   2  214.57    9.67 
   0   3  -2   55.70    2.35 
   0   3  -2   48.93    2.31 
   0   3  -2   54.63    2.33 
   0  -3   2   51.49    2.30 
   0  -3   2   52.60    2.35 
  -1   3  -2    9.99    0.49 
   1  -3   2    9.69    0.51 
   1  -3   2   10.31    0.48 
  -2   3  -2    3.77    0.26 
   2  -3   2    3.83    0.28 
   2  -3   2    4.80    0.26 
  -3   3  -2    2.01    0.21 
  -3   3  -2    2.43    0.26 
   3  -3   2    1.98    0.22 
   3  -3   2    2.19    0.19 
  -4   3  -2   14.99    0.74 
   4  -3   2   16.64    0.76 
   4  -3   2   16.78    0.75 
   4  -3   2   16.95    0.80 
   4  -3   2   16.01    0.75 
   4  -3   2   16.50    0.82 
   5  -3   2    2.57    0.16 
   6  -3   2    3.01    0.19 
   6  -3   2    3.26    0.16 
   6  -3   2    3.26    0.18 
   3   2  -2   45.01    1.98 
   3   2  -2   45.22    2.07 
   3   2  -2   41.90    2.08 
   3   2  -2   46.37    2.10 
  -3  -2   2   41.56    2.15 
  -3  -2   2   44.00    2.02 
   2   2  -2    1.76    0.15 
   2   2  -2    1.59    0.18 
   2   2  -2    2.13    0.19 
   2   2  -2    1.98    0.12 
  -2  -2   2    1.92    0.14 
  -2  -2   2    1.62    0.21 
   1   2  -2  122.22    5.35 
   1   2  -2  132.92    5.40 
  -1  -2   2  111.73    5.42 
   0   2  -2    0.91    0.09 
   0  -2   2    0.85    0.08 
   0  -2   2    0.95    0.06 
   1  -2   2    0.39    0.06 
   1  -2   2    0.44    0.06 
  -2   2  -2    1.04    0.12 
   2  -2   2    0.98    0.12 
   2  -2   2    1.07    0.11 
  -3   2  -2   33.32    1.63 
   3  -2   2   36.53    1.68 
   3  -2   2   35.44    1.64 
  -4   2  -2   47.37    2.50 
   4  -2   2   53.71    2.29 
   4  -2   2   48.85    2.40 
   4  -2   2   53.69    2.31 
   4  -2   2   52.00    2.37 
   4  -2   2   55.41    2.35 
   4  -2   2   52.73    2.30 
  -5   2  -2   14.66    0.70 
   5  -2   2   15.32    0.76 
   5  -2   2   15.63    0.75 
   5  -2   2   15.56    0.71 
   5  -2   2   15.36    0.70 
   5  -2   2   15.55    0.71 
   6  -2   2    5.13    0.24 
   6  -2   2    4.70    0.25 
   6  -2   2    4.76    0.27 
   4   1  -2   18.36    1.22 
   3   1  -2    0.16    0.06 
   3   1  -2    0.12    0.13 
   3   1  -2    0.24    0.11 
  -3  -1   2    0.08    0.09 
  -3  -1   2    0.12    0.09 
   2   1  -2   96.40    4.14 
   2   1  -2   88.17    4.12 
   2   1  -2   94.00    4.10 
   2   1  -2   90.39    4.06 
  -2  -1   2   94.70    4.09 
   1   1  -2   68.63    3.18 
   1   1  -2   80.48    3.23 
   1   1  -2   69.44    3.22 
  -1  -1   2   70.58    3.24 
  -1  -1   2   73.08    3.18 
   0   1  -2   57.14    2.52 
   0   1  -2   60.10    2.54 
   0  -1   2   58.73    2.52 
   0  -1   2   54.38    2.54 
  -1   1  -2   45.83    2.03 
   1  -1   2   43.47    2.04 
   1  -1   2   48.54    2.04 
  -2   1  -2   16.39    0.78 
   2  -1   2   16.28    0.79 
   2  -1   2   16.76    0.79 
  -3   1  -2  100.69    4.63 
   3  -1   2  111.18    4.64 
   3  -1   2  101.10    4.65 
  -4   1  -2    7.77    0.57 
   4  -1   2    8.36    0.40 
   4  -1   2    7.96    0.48 
   4  -1   2    8.73    0.45 
   4  -1   2    7.61    0.39 
   4  -1   2    7.89    0.46 
   4  -1   2    8.38    0.39 
   5  -1   2    2.21    0.14 
   5  -1   2    2.22    0.20 
   5  -1   2    2.34    0.19 
   5  -1   2    2.33    0.15 
   6  -1   2    3.18    0.17 
   6  -1   2    3.22    0.18 
   6  -1   2    3.26    0.20 
   5   0  -2   12.13    0.56 
   5   0  -2   11.71    0.57 
   5   0  -2   12.61    0.60 
   4   0  -2   17.39    0.99 
   4   0  -2   16.97    0.78 
   4   0  -2   17.61    0.78 
   4   0  -2   17.47    0.78 
  -4   0   2   16.16    0.95 
   3   0  -2    5.43    0.37 
   3   0  -2    5.75    0.32 
   3   0  -2    5.18    0.37 
  -3   0   2    5.12    0.36 
   2   0  -2   51.28    2.27 
   2   0  -2   53.75    2.33 
   2   0  -2   52.85    2.32 
   2   0  -2   49.02    2.31 
  -2   0   2   48.28    2.27 
  -2   0   2   52.26    2.30 
   1   0  -2  144.97    6.34 
   1   0  -2  153.92    6.38 
   1   0  -2  142.73    6.41 
   1   0  -2  142.98    6.38 
  -1   0   2  142.29    6.36 
   0   0  -2  101.23    4.37 
   0   0  -2   99.07    4.37 
   0   0   2   98.24    4.37 
   0   0   2   97.16    4.37 
  -1   0  -2  224.53    9.95 
  -1   0  -2  215.68    9.87 
   1   0   2  216.65    9.93 
   1   0   2  240.25   10.13 
   1   0   2  219.82   10.13 
  -2   0  -2    5.96    0.30 
  -2   0  -2    5.33    0.30 
   2   0   2    6.32    0.32 
   2   0   2    5.33    0.35 
   2   0   2    5.01    0.30 
  -3   0  -2   60.58    2.70 
   3   0   2   62.99    2.71 
   3   0   2   56.70    2.71 
  -4   0  -2   26.05    1.43 
   4   0   2   31.30    1.33 
   4   0   2   31.08    1.40 
   4   0   2   30.04    1.37 
   4   0   2   27.38    1.41 
   4   0   2   32.12    1.51 
   4   0   2   29.98    1.33 
   5   0   2   14.05    0.64 
   5   0   2   13.00    0.69 
   5   0   2   14.03    0.63 
   5   0   2   13.52    0.68 
   6   0   2   18.00    0.86 
   6   0   2   19.14    0.83 
   5  -1  -2    0.38    0.07 
   5  -1  -2    0.14    0.04 
   5  -1  -2    0.07    0.06 
   4  -1  -2    4.36    0.23 
   4  -1  -2    4.61    0.24 
   4  -1  -2    4.90    0.28 
   4  -1  -2    4.48    0.24 
   4  -1  -2    4.12    0.29 
   4  -1  -2    3.92    0.41 
  -4   1   2    4.78    0.43 
   3  -1  -2   23.60    1.15 
   3  -1  -2   22.54    1.08 
  -3   1   2   21.95    1.13 
   2  -1  -2    4.21    0.24 
   2  -1  -2    5.06    0.29 
   2  -1  -2    3.85    0.27 
  -2   1   2    4.40    0.24 
  -2   1   2    4.14    0.27 
   1  -1  -2  198.45    8.44 
   1  -1  -2  190.72    8.75 
  -1   1   2  182.28    8.42 
  -1   1   2  201.38    8.58 
   0  -1  -2   70.19    3.19 
   0   1   2   70.90    3.19 
   0   1   2   76.74    3.16 
  -1  -1  -2   58.38    2.52 
   1   1   2   61.38    2.51 
   1   1   2   51.13    2.51 
  -2  -1  -2   29.44    1.36 
   2   1   2   29.29    1.38 
   2   1   2   28.10    1.33 
   2   1   2   31.50    1.35 
  -3  -1  -2    2.06    0.17 
   3   1   2    1.86    0.18 
   3   1   2    1.95    0.17 
   3   1   2    1.84    0.23 
  -4  -1  -2    2.20    0.24 
   4   1   2    2.16    0.18 
   4   1   2    2.09    0.15 
   4   1   2    2.56    0.23 
   4   1   2    2.23    0.14 
   4   1   2    2.21    0.21 
   5   1   2    0.80    0.13 
   5   1   2    0.87    0.14 
   5   1   2    0.75    0.09 
   6  -2  -2    3.05    0.18 
   6  -2  -2    3.09    0.16 
   5  -2  -2    5.90    0.30 
   5  -2  -2    6.23    0.30 
   5  -2  -2    5.96    0.31 
   5  -2  -2    5.72    0.33 
   4  -2  -2   13.33    0.71 
   4  -2  -2   14.66    0.67 
   4  -2  -2   15.19    0.67 
   4  -2  -2   15.50    0.67 
   4  -2  -2   14.25    0.70 
   4  -2  -2   14.68    0.88 
  -4   2   2   13.78    0.88 
   3  -2  -2  104.62    4.73 
  -3   2   2  105.42    4.73 
   2  -2  -2  253.35   12.22 
   2  -2  -2  291.58   12.43 
   2  -2  -2  291.99   12.21 
  -2   2   2  294.05   12.26 
  -2   2   2  269.50   12.19 
   1  -2  -2   18.10    0.85 
   1  -2  -2   17.94    0.84 
  -1   2   2   18.48    0.85 
  -1   2   2   16.98    0.80 
   0  -2  -2   15.02    0.73 
   0  -2  -2   14.82    0.72 
   0   2   2   17.06    0.71 
   0   2   2   16.85    0.74 
  -1  -2  -2  454.86   20.11 
   1   2   2  441.80   19.82 
   1   2   2  428.23   19.86 
  -2  -2  -2    7.34    0.37 
   2   2   2    7.12    0.34 
   2   2   2    5.53    0.35 
   2   2   2    5.16    0.33 
  -3  -2  -2    0.10    0.08 
   3   2   2    0.22    0.07 
   3   2   2    0.60    0.14 
  -4  -2  -2   41.18    1.91 
   4   2   2   41.11    1.92 
   4   2   2   40.04    1.88 
   4   2   2   41.43    1.88 
   4   2   2   41.98    1.85 
   4   2   2   38.07    1.79 
   5   2   2   12.69    0.68 
   5   2   2   13.58    0.66 
   5  -3  -2    0.13    0.05 
   5  -3  -2    0.13    0.04 
   5  -3  -2    0.09    0.05 
   5  -3  -2    0.21    0.08 
  -5   3   2    0.08    0.06 
   4  -3  -2   12.47    0.59 
   4  -3  -2   12.53    0.59 
   4  -3  -2   13.04    0.63 
   4  -3  -2   12.80    0.64 
   4  -3  -2   11.99    0.58 
   3  -3  -2    4.83    0.36 
  -3   3   2    4.33    0.37 
   2  -3  -2  176.47    7.67 
  -2   3   2  169.12    7.58 
  -2   3   2  176.14    7.67 
   1  -3  -2   89.44    3.83 
   1  -3  -2   85.09    3.81 
  -1   3   2   88.61    3.82 
  -1   3   2   80.91    3.76 
   0  -3  -2   17.18    0.86 
   0  -3  -2   17.40    0.85 
   0   3   2   19.69    0.84 
   0   3   2   20.24    0.87 
  -1  -3  -2  415.94   19.33 
   1   3   2  427.05   19.07 
   1   3   2  430.90   19.17 
  -2  -3  -2    0.46    0.11 
  -2  -3  -2    0.50    0.08 
   2   3   2    0.32    0.07 
   2   3   2    0.74    0.12 
  -3  -3  -2   38.99    1.87 
   3   3   2   39.54    1.80 
   3   3   2   40.08    1.87 
  -4  -3  -2   35.70    1.62 
   4   3   2   35.49    1.76 
   4   3   2   34.20    1.62 
   4   3   2   32.12    1.55 
   4   3   2   33.12    1.55 
   4   3   2   33.32    1.59 
   5   3   2   81.37    3.64 
   5   3   2   76.64    3.53 
   5  -4  -2    0.19    0.06 
   4  -4  -2    3.12    0.18 
   4  -4  -2    2.84    0.17 
   4  -4  -2    2.88    0.18 
   4  -4  -2    2.87    0.23 
   4  -4  -2    2.89    0.21 
  -4   4   2    3.34    0.19 
   3  -4  -2   21.95    0.99 
   3  -4  -2   23.60    1.16 
   3  -4  -2   21.62    1.07 
   3  -4  -2   22.45    0.99 
   3  -4  -2   21.11    1.01 
   3  -4  -2   22.60    1.02 
   3  -4  -2   22.06    0.98 
  -3   4   2   22.00    1.17 
  -3   4   2   20.20    0.98 
   2  -4  -2   20.14    1.01 
  -2   4   2   20.19    1.02 
   1  -4  -2   11.98    0.64 
   1  -4  -2   11.67    0.61 
  -1   4   2   12.17    0.62 
  -1   4   2   11.48    0.56 
   0  -4  -2    0.19    0.06 
   0  -4  -2    0.12    0.04 
   0   4   2    0.15    0.07 
   0   4   2    0.13    0.04 
  -1  -4  -2   85.64    3.80 
  -1  -4  -2   79.60    3.74 
   1   4   2   86.71    3.76 
   1   4   2   88.92    3.78 
  -2  -4  -2    1.12    0.14 
   2   4   2    1.04    0.13 
   2   4   2    1.17    0.11 
  -3  -4  -2    1.46    0.19 
   3   4   2    1.09    0.19 
   3   4   2    1.20    0.13 
  -4  -4  -2   15.42    0.94 
   4   4   2   18.47    1.07 
   4   4   2   20.95    0.91 
   4   4   2   21.57    0.96 
   4   4   2   16.97    0.93 
   5   4   2    2.49    0.27 
   5   4   2    2.04    0.32 
   5  -5  -2    0.08    0.05 
   5  -5  -2    0.14    0.05 
   5  -5  -2    0.10    0.14 
   5  -5  -2    0.10    0.05 
   5  -5  -2    0.13    0.04 
  -5   5   2    0.21    0.07 
   4  -5  -2    2.85    0.22 
   4  -5  -2    2.84    0.18 
   4  -5  -2    3.15    0.21 
   4  -5  -2    2.81    0.17 
   4  -5  -2    2.90    0.17 
   3  -5  -2  120.99    5.08 
   3  -5  -2  107.38    5.06 
   3  -5  -2  118.37    5.04 
   3  -5  -2  116.50    5.03 
   3  -5  -2  115.33    5.06 
   3  -5  -2  117.90    5.04 
  -3   5   2  113.16    5.04 
  -3   5   2  112.31    5.26 
   2  -5  -2   19.45    0.96 
  -2   5   2   18.81    0.97 
  -2   5   2   17.02    0.82 
   1  -5  -2  200.96    9.14 
  -1   5   2  209.82    9.07 
  -1   5   2  213.49    9.15 
   0  -5  -2  135.24    6.32 
   0  -5  -2  136.07    6.32 
   0   5   2  147.37    6.29 
   0   5   2  156.98    6.35 
  -1  -5  -2    0.56    0.08 
  -1  -5  -2    0.58    0.11 
   1   5   2    0.84    0.14 
   1   5   2    0.57    0.08 
  -2  -5  -2   38.66    1.62 
   2   5   2   27.85    1.49 
   2   5   2   33.27    1.54 
  -3  -5  -2    8.03    0.53 
   3   5   2    7.56    0.49 
  -4  -5  -2   17.58    1.00 
   4   5   2   15.63    0.86 
   4   5   2   17.27    0.87 
   4   5   2   16.79    0.99 
   4   5   2   16.75    0.82 
   5   5   2    9.50    0.60 
   5  -6  -2    4.40    0.23 
   5  -6  -2    4.54    0.22 
   5  -6  -2    4.60    0.38 
   5  -6  -2    4.45    0.23 
   5  -6  -2    4.38    0.25 
  -5   6   2    4.64    0.26 
   4  -6  -2    9.35    0.44 
   4  -6  -2    8.84    0.47 
   4  -6  -2    9.52    0.49 
   4  -6  -2    8.72    0.52 
   4  -6  -2    9.45    0.45 
   4  -6  -2    9.60    0.44 
  -4   6   2    7.82    0.50 
  -4   6   2    9.66    0.47 
   3  -6  -2   16.25    0.72 
   3  -6  -2   14.67    0.69 
   3  -6  -2   16.26    0.73 
   3  -6  -2   15.98    0.70 
   3  -6  -2   15.19    0.69 
   3  -6  -2   13.35    0.72 
  -3   6   2   14.82    0.70 
  -3   6   2   13.27    0.72 
   2  -6  -2   61.55    2.85 
   2  -6  -2   60.15    2.72 
   2  -6  -2   64.45    2.73 
  -2   6   2   60.65    2.70 
  -2   6   2   60.12    2.87 
   1  -6  -2   17.38    0.89 
  -1   6   2   18.01    0.82 
  -1   6   2   16.76    0.90 
   0  -6  -2   19.63    0.95 
   0  -6  -2   18.41    0.95 
   0   6   2   20.31    0.98 
   0   6   2   19.81    0.92 
  -1  -6  -2  313.74   13.43 
  -1  -6  -2  312.45   13.36 
   1   6   2  329.44   13.37 
   1   6   2  269.34   13.38 
  -2  -6  -2    2.61    0.26 
   2   6   2    3.01    0.23 
  -3  -6  -2    7.68    0.53 
   3   6   2    7.20    0.48 
  -4  -6  -2   33.36    1.68 
   4   6   2   31.49    1.51 
   4   6   2   32.62    1.65 
   4   6   2   31.43    1.51 
   4   6   2   30.31    1.46 
   4   6   2   31.45    1.44 
   5   6   2   14.01    0.78 
   5   6   2   13.89    0.77 
   5   6   2   13.49    0.71 
   5  -7  -2    1.93    0.12 
   5  -7  -2    1.98    0.13 
   5  -7  -2    2.07    0.14 
   5  -7  -2    2.08    0.12 
  -5   7   2    1.81    0.21 
   4  -7  -2   17.07    0.77 
   4  -7  -2   16.63    0.76 
   4  -7  -2   17.10    0.81 
   4  -7  -2   17.27    0.80 
   4  -7  -2   16.81    0.76 
  -4   7   2   17.37    0.80 
  -4   7   2   14.96    0.80 
   3  -7  -2    3.81    0.26 
   3  -7  -2    4.44    0.26 
   3  -7  -2    4.19    0.27 
   3  -7  -2    4.54    0.23 
   3  -7  -2    4.28    0.24 
   3  -7  -2    4.32    0.23 
  -3   7   2    4.40    0.26 
  -3   7   2    3.82    0.27 
   2  -7  -2   23.34    1.05 
   2  -7  -2   22.68    1.09 
   2  -7  -2   22.72    1.04 
   2  -7  -2   23.48    1.07 
   2  -7  -2   24.24    1.22 
   2  -7  -2   25.37    1.09 
   2  -7  -2   23.70    1.08 
   2  -7  -2   22.90    1.05 
  -2   7   2   21.93    1.08 
  -2   7   2   25.36    1.08 
  -2   7   2   20.39    1.23 
   1  -7  -2   39.33    1.85 
  -1   7   2   37.85    1.76 
  -1   7   2   39.11    1.86 
  -1   7   2   38.29    1.72 
   0  -7  -2   34.58    1.62 
   0  -7  -2   31.63    1.61 
   0   7   2   35.42    1.66 
   0   7   2   35.92    1.58 
  -1  -7  -2    5.07    0.36 
  -1  -7  -2    4.74    0.31 
   1   7   2    4.75    0.30 
  -2  -7  -2    1.29    0.20 
  -2  -7  -2    1.17    0.08 
   2   7   2    1.30    0.16 
  -3  -7  -2   63.70    2.89 
  -3  -7  -2   70.22    3.15 
   3   7   2   61.58    2.93 
   3   7   2   62.99    2.98 
   3   7   2   69.08    2.93 
   3   7   2   68.09    2.96 
   3   7   2   66.99    2.94 
   3   7   2   66.16    3.06 
   4   7   2   24.87    1.17 
   4   7   2   22.97    1.24 
   4   7   2   27.42    1.21 
   4   7   2   26.75    1.25 
   5   7   2    2.38    0.23 
   5   7   2    2.38    0.29 
   6   7   2   11.21    0.60 
   4  -8  -2    5.24    0.26 
   4  -8  -2    5.09    0.26 
   4  -8  -2    5.56    0.30 
   4  -8  -2    5.24    0.27 
  -4   8   2    5.55    0.31 
  -4   8   2    5.44    0.37 
  -4   8   2    4.62    0.32 
   3  -8  -2   25.48    1.18 
   3  -8  -2   26.34    1.17 
   3  -8  -2   25.50    1.13 
   3  -8  -2   25.32    1.14 
   3  -8  -2   24.23    1.13 
  -3   8   2   26.15    1.18 
  -3   8   2   23.25    1.17 
   2  -8  -2   24.28    1.10 
   2  -8  -2   24.96    1.13 
   2  -8  -2   23.99    1.10 
   2  -8  -2   26.23    1.15 
   2  -8  -2   25.03    1.15 
   2  -8  -2   25.27    1.49 
  -2   8   2   20.30    1.33 
  -2   8   2   24.16    1.15 
  -2   8   2   26.14    1.14 
   1  -8  -2   63.10    2.89 
   1  -8  -2   61.90    2.89 
   1  -8  -2   65.74    2.91 
  -1   8   2   66.55    3.07 
  -1   8   2   64.67    2.90 
  -1   8   2   72.36    2.98 
  -1   8   2   64.06    2.91 
   0  -8  -2   11.60    0.66 
   0   8   2   11.82    0.62 
  -1  -8  -2    1.73    0.22 
  -1  -8  -2    1.34    0.10 
   1   8   2    1.26    0.16 
  -2  -8  -2   10.91    0.67 
  -2  -8  -2   10.65    0.48 
   2   8   2   10.68    0.59 
   2   8   2    9.84    0.52 
   2   8   2    8.89    0.55 
   2   8   2   10.41    0.51 
  -3  -8  -2   23.52    1.11 
  -3  -8  -2   23.94    1.35 
   3   8   2   25.57    1.16 
   3   8   2   26.25    1.15 
   3   8   2   25.43    1.14 
   3   8   2   24.66    1.21 
   3   8   2   24.44    1.28 
   3   8   2   24.35    1.18 
  -4  -8  -2    3.50    0.20 
   4   8   2    3.33    0.31 
   4   8   2    4.71    0.28 
   4   8   2    3.67    0.24 
  -5  -8  -2    4.66    0.24 
   5   8   2    4.35    0.27 
   5   8   2    4.86    0.37 
   5   8   2    5.00    0.32 
   6   8   2   15.55    0.77 
   4  -9  -2    4.22    0.23 
   4  -9  -2    4.34    0.23 
   4  -9  -2    4.35    0.27 
   4  -9  -2    4.91    0.26 
   4  -9  -2    4.42    0.23 
  -4   9   2    5.02    0.37 
  -4   9   2    4.84    0.33 
   3  -9  -2   33.65    1.48 
   3  -9  -2   31.02    1.44 
   3  -9  -2   31.42    1.44 
   3  -9  -2   31.31    1.45 
   3  -9  -2   34.00    1.49 
  -3   9   2   30.55    1.48 
  -3   9   2   33.11    1.49 
  -3   9   2   33.35    1.57 
   2  -9  -2    0.10    0.09 
   2  -9  -2    0.16    0.07 
   2  -9  -2    0.09    0.05 
   2  -9  -2    0.12    0.07 
  -2   9   2    0.06    0.09 
  -2   9   2    0.13    0.15 
  -2   9   2    0.03    0.10 
   1  -9  -2   31.85    1.63 
   1  -9  -2   31.48    1.47 
   1  -9  -2   31.73    1.49 
   1  -9  -2   31.51    1.47 
  -1   9   2   31.78    1.49 
  -1   9   2   36.27    1.58 
   0  -9  -2   12.35    0.56 
   0  -9  -2   12.52    0.69 
   0  -9  -2   11.50    0.56 
   0   9   2   11.75    0.59 
   0   9   2   11.45    0.67 
   0   9   2   10.72    0.63 
   0   9   2   10.77    0.57 
  -1  -9  -2    0.55    0.08 
  -1  -9  -2    0.73    0.20 
  -1  -9  -2    0.57    0.08 
  -1  -9  -2    0.59    0.10 
   1   9   2    0.55    0.10 
   1   9   2    0.60    0.11 
   1   9   2    0.66    0.16 
  -2  -9  -2   23.03    0.99 
  -2  -9  -2   21.32    1.21 
  -2  -9  -2   21.90    1.01 
   2   9   2   23.18    1.03 
   2   9   2   22.11    1.04 
   2   9   2   20.97    1.12 
   2   9   2   21.06    1.02 
   2   9   2   20.95    1.06 
   2   9   2   22.17    1.02 
  -3  -9  -2    8.47    0.44 
  -3  -9  -2    8.88    0.42 
   3   9   2    8.67    0.45 
   3   9   2    8.61    0.47 
   3   9   2    8.57    0.52 
   3   9   2    8.72    0.49 
   3   9   2    9.14    0.46 
  -4  -9  -2    5.70    0.29 
   4   9   2    5.70    0.35 
   4   9   2    5.94    0.34 
   4   9   2    5.82    0.39 
   4   9   2    5.69    0.40 
  -5  -9  -2    2.56    0.17 
   5   9   2    3.32    0.21 
   5   9   2    3.32    0.29 
   5   9   2    3.31    0.24 
  -4  10   2    8.38    0.53 
   3 -10  -2    3.42    0.22 
   3 -10  -2    3.06    0.18 
   3 -10  -2    3.58    0.23 
  -3  10   2    3.32    0.32 
  -3  10   2    3.51    0.23 
   2 -10  -2   75.39    3.37 
   2 -10  -2   72.01    3.31 
   2 -10  -2   75.42    3.37 
   2 -10  -2   76.10    3.35 
  -2  10   2   74.70    3.37 
  -2  10   2   80.00    3.47 
   1 -10  -2   18.99    0.89 
   1 -10  -2   18.46    0.90 
  -1  10   2   17.92    0.92 
  -1  10   2   20.67    1.01 
   0 -10  -2    0.93    0.10 
   0 -10  -2    0.74    0.10 
   0  10   2    0.74    0.11 
   0  10   2    0.58    0.21 
   0  10   2    1.07    0.15 
  -1 -10  -2   60.45    2.76 
  -1 -10  -2   63.84    2.77 
   1  10   2   63.76    2.79 
   1  10   2   64.33    2.78 
   1  10   2   56.95    2.86 
   1  10   2   64.07    2.81 
  -2 -10  -2   15.06    0.67 
  -2 -10  -2   14.11    0.68 
   2  10   2   14.03    0.74 
   2  10   2   14.88    0.71 
   2  10   2   14.04    0.71 
   2  10   2   13.00    0.70 
   2  10   2   14.51    0.70 
  -3 -10  -2    1.14    0.10 
  -3 -10  -2    1.22    0.12 
   3  10   2    0.99    0.14 
   3  10   2    0.76    0.16 
   3  10   2    1.16    0.16 
   3  10   2    1.25    0.16 
   3  10   2    1.03    0.13 
  -4 -10  -2    8.96    0.46 
  -4 -10  -2    8.55    0.41 
   4  10   2    8.40    0.51 
   4  10   2    8.07    0.46 
   4  10   2    7.52    0.43 
   4  10   2    8.73    0.46 
   4  10   2    9.12    0.51 
  -5 -10  -2   21.63    0.96 
   5  10   2   20.62    1.01 
   5  10   2   20.54    0.98 
   5  10   2   21.92    1.06 
   3 -11  -2    0.27    0.07 
   3 -11  -2    0.25    0.05 
  -3  11   2    0.34    0.17 
  -3  11   2    0.40    0.10 
   2 -11  -2   17.08    0.82 
   2 -11  -2   16.67    0.85 
  -2  11   2   18.00    0.86 
  -2  11   2   18.29    0.94 
   1 -11  -2    2.71    0.20 
   1 -11  -2    2.67    0.19 
  -1  11   2    2.63    0.33 
  -1  11   2    2.91    0.23 
   0 -11  -2    7.97    0.41 
   0 -11  -2    8.30    0.42 
   0  11   2    7.27    0.42 
   0  11   2    7.92    0.45 
  -1 -11  -2    9.25    0.48 
  -1 -11  -2   10.14    0.49 
  -1 -11  -2    8.97    0.47 
   1  11   2    9.25    0.52 
   1  11   2   10.09    0.51 
   1  11   2    9.90    0.54 
  -2 -11  -2    3.69    0.22 
  -2 -11  -2    4.08    0.24 
   2  11   2    3.73    0.26 
   2  11   2    3.79    0.30 
   2  11   2    3.99    0.27 
  -3 -11  -2    0.94    0.12 
  -3 -11  -2    1.22    0.11 
  -4 -11  -2    0.11    0.04 
  -4 -11  -2    0.10    0.06 
   4  11   2    0.10    0.12 
   4  11   2    0.12    0.09 
  -5 -11  -2   10.23    0.47 
  -5 -11  -2   10.21    0.46 
   5  11   2    9.69    0.50 
   5  11   2    8.85    0.48 
   5  11   2    9.34    0.54 
   2 -12  -2    0.85    0.10 
  -2  12   2    1.02    0.14 
  -2  12   2    0.64    0.19 
   1 -12  -2    6.66    0.35 
   1 -12  -2    6.78    0.37 
  -1  12   2    6.26    0.38 
  -1  12   2    6.07    0.46 
   0 -12  -2    0.52    0.09 
   0 -12  -2    0.47    0.09 
   0  12   2    0.57    0.13 
  -1 -12  -2    1.30    0.12 
   1  12   2    0.98    0.16 
   1  12   2    0.98    0.14 
  -2 -12  -2    0.18    0.06 
   2  12   2    0.09    0.09 
   2  12   2    0.11    0.09 
   2  12   2    0.10    0.12 
  -3 -12  -2    0.02    0.05 
  -3 -12  -2    0.05    0.05 
   3  12   2    0.01    0.08 
   3  12   2    0.02    0.07 
   3  12   2    0.01    0.08 
   3  12   2   -0.02    0.12 
  -4 -12  -2    5.60    0.33 
  -4 -12  -2    6.83    0.33 
   4  12   2    6.40    0.37 
   4  12   2    6.49    0.39 
   4  12   2    6.76    0.39 
   4  12   2    6.80    0.36 
  -5 -12  -2    3.68    0.23 
   5  12   2    3.29    0.29 
   5  12   2    4.45    0.26 
   2 -13  -2    9.54    0.46 
  -2  13   2    9.58    0.48 
   1 -13  -2   11.86    0.59 
   1 -13  -2   12.77    0.62 
  -1  13   2   12.76    0.64 
   0 -13  -2   19.59    0.89 
   0 -13  -2   18.41    0.87 
   0  13   2   18.27    0.92 
  -1 -13  -2    3.86    0.24 
   1  13   2    3.94    0.28 
   1  13   2    3.76    0.26 
  -2 -13  -2    2.55    0.19 
  -2 -13  -2    2.47    0.17 
   2  13   2    2.13    0.22 
   2  13   2    2.29    0.23 
   2  13   2    2.29    0.20 
  -3 -13  -2    0.39    0.07 
  -3 -13  -2    0.58    0.09 
   3  13   2    0.36    0.13 
   3  13   2    0.40    0.10 
   3  13   2    0.33    0.10 
  -4 -13  -2    2.25    0.15 
  -4 -13  -2    1.89    0.15 
   4  13   2    1.88    0.19 
   4  13   2    2.09    0.17 
   4  13   2    1.92    0.19 
   1 -14  -2    0.88    0.10 
  -1  14   2    0.96    0.13 
   0 -14  -2    8.36    0.45 
   0 -14  -2    9.96    0.47 
   0  14   2    9.55    0.49 
  -1 -14  -2    8.11    0.41 
   1  14   2    7.71    0.42 
   1  14   2    8.12    0.45 
  -2 -14  -2    1.18    0.16 
  -2 -14  -2    1.10    0.11 
   2  14   2    1.09    0.16 
   2  14   2    0.99    0.14 
  -3 -14  -2    0.01    0.05 
  -3 -14  -2    0.07    0.07 
   3  14   2    0.00    0.08 
   3  14   2   -0.06    0.10 
  -1 -15  -2    2.73    0.18 
   1  15   2    2.62    0.20 
  -2 -15  -2    0.64    0.09 
   2  14  -3    1.72    0.16 
  -2 -14   3    2.10    0.14 
   1  14  -3    4.41    0.27 
  -1 -14   3    4.41    0.25 
  -1 -14   3    4.58    0.25 
   0 -14   3    1.07    0.11 
   3  13  -3    0.20    0.09 
   3  13  -3    0.32    0.09 
   3  13  -3    0.26    0.09 
  -3 -13   3    0.33    0.07 
  -3 -13   3    0.35    0.08 
   2  13  -3   27.37    1.31 
  -2 -13   3   28.98    1.29 
  -2 -13   3   27.77    1.27 
   1  13  -3   14.57    0.74 
   1  13  -3   15.45    0.77 
  -1 -13   3   15.87    0.74 
  -1 -13   3   16.11    0.75 
   0  13  -3    0.55    0.10 
   0  13  -3    0.48    0.10 
   0 -13   3    0.45    0.09 
   0 -13   3    0.56    0.09 
  -1  13  -3    7.27    0.41 
  -1  13  -3    7.81    0.41 
   1 -13   3    8.32    0.40 
   4  12  -3   -0.01    0.06 
   4  12  -3    0.03    0.08 
   4  12  -3    0.00    0.07 
  -4 -12   3    0.04    0.05 
   3  12  -3    1.30    0.17 
   3  12  -3    0.92    0.14 
   3  12  -3    1.13    0.17 
  -3 -12   3    1.42    0.14 
  -3 -12   3    1.47    0.13 
   2  12  -3    5.58    0.40 
   2  12  -3    5.21    0.33 
  -2 -12   3    5.05    0.30 
  -2 -12   3    4.85    0.30 
   1  12  -3    0.30    0.11 
   1  12  -3    0.26    0.10 
  -1 -12   3    0.17    0.08 
  -1 -12   3    0.28    0.08 
   0  12  -3    0.41    0.11 
   0  12  -3    0.42    0.11 
   0 -12   3    0.56    0.10 
   0 -12   3    0.54    0.10 
  -1  12  -3    0.33    0.10 
  -1  12  -3    0.35    0.10 
   1 -12   3    0.36    0.08 
  -2  12  -3    1.44    0.14 
   2 -12   3    1.25    0.13 
   4  11  -3    0.09    0.06 
   4  11  -3    0.07    0.10 
   4  11  -3    0.04    0.08 
   4  11  -3    0.12    0.07 
  -4 -11   3    0.07    0.05 
  -4 -11   3    0.15    0.06 
   3  11  -3    6.44    0.41 
   3  11  -3    6.35    0.38 
   3  11  -3    6.67    0.38 
   3  11  -3    6.49    0.38 
  -3 -11   3    6.45    0.37 
  -3 -11   3    6.92    0.35 
   2  11  -3    2.10    0.22 
   2  11  -3    2.39    0.23 
   2  11  -3    2.82    0.22 
   2  11  -3    2.54    0.21 
  -2 -11   3    2.62    0.20 
  -2 -11   3    2.70    0.19 
  -2 -11   3    3.08    0.21 
   1  11  -3    3.30    0.26 
  -1 -11   3    3.49    0.24 
  -1 -11   3    3.51    0.24 
   0  11  -3    1.58    0.18 
   0  11  -3    1.68    0.18 
   0 -11   3    1.55    0.15 
   0 -11   3    1.77    0.17 
  -1  11  -3    2.65    0.22 
  -1  11  -3    2.16    0.21 
   1 -11   3    2.90    0.20 
  -2  11  -3    7.05    0.38 
   2 -11   3    6.45    0.33 
   2 -11   3    6.54    0.37 
  -3  11  -3    5.72    0.31 
   3 -11   3    5.15    0.27 
   5  10  -3    6.89    0.38 
   5  10  -3    6.91    0.35 
   5  10  -3    6.78    0.36 
   4  10  -3    4.72    0.33 
   4  10  -3    4.27    0.28 
   4  10  -3    4.46    0.30 
   4  10  -3    4.36    0.29 
  -4 -10   3    4.79    0.25 
   3  10  -3   17.73    0.91 
   3  10  -3   18.45    0.89 
   3  10  -3   17.58    0.88 
   3  10  -3   18.09    0.88 
  -3 -10   3   18.58    0.84 
   2  10  -3   15.37    0.77 
   2  10  -3   15.82    0.79 
   2  10  -3   15.25    0.76 
   2  10  -3   15.22    0.78 
  -2 -10   3   15.78    0.76 
  -2 -10   3   15.48    0.76 
  -2 -10   3   15.76    0.73 
   1  10  -3    8.08    0.46 
   1  10  -3    8.30    0.46 
  -1 -10   3    8.03    0.44 
  -1 -10   3    8.50    0.44 
   0  10  -3   21.20    1.01 
   0  10  -3   21.73    1.01 
   0 -10   3   20.96    0.99 
   0 -10   3   19.76    0.98 
  -1  10  -3    0.33    0.12 
  -1  10  -3    0.65    0.13 
   1 -10   3    0.53    0.08 
   1 -10   3    0.78    0.11 
  -2  10  -3    1.17    0.17 
  -2  10  -3    1.32    0.17 
   2 -10   3    1.36    0.11 
   2 -10   3    1.55    0.15 
  -3  10  -3    0.79    0.18 
  -3  10  -3    0.94    0.14 
   3 -10   3    0.81    0.14 
   3 -10   3    0.89    0.09 
   3 -10   3    1.04    0.13 
   5   9  -3    0.34    0.08 
   5   9  -3    0.19    0.09 
   5   9  -3    0.22    0.07 
  -5  -9   3    0.24    0.05 
   4   9  -3   30.55    1.38 
   4   9  -3   28.66    1.36 
   4   9  -3   29.41    1.41 
   4   9  -3   28.63    1.35 
  -4  -9   3   29.34    1.32 
   3   9  -3   11.89    0.63 
   3   9  -3   12.55    0.64 
   3   9  -3   11.86    0.63 
   3   9  -3   11.76    0.67 
   3   9  -3   11.96    0.64 
  -3  -9   3   13.75    0.70 
  -3  -9   3   13.41    0.60 
   2   9  -3   27.35    1.28 
   2   9  -3   28.41    1.31 
   2   9  -3   28.65    1.30 
   2   9  -3   28.25    1.29 
  -2  -9   3   29.32    1.26 
  -2  -9   3   23.21    1.51 
  -2  -9   3   28.58    1.28 
   1   9  -3    7.09    0.53 
   1   9  -3    7.43    0.42 
   1   9  -3    8.10    0.45 
   1   9  -3    8.12    0.45 
   1   9  -3    8.45    0.45 
  -1  -9   3    8.29    0.40 
  -1  -9   3    8.42    0.43 
  -1  -9   3    8.62    0.43 
   0   9  -3    0.13    0.10 
   0   9  -3    0.16    0.14 
   0   9  -3    0.15    0.09 
   0  -9   3    0.10    0.07 
   0  -9   3    0.10    0.07 
   0  -9   3    0.12    0.15 
  -1   9  -3   12.34    0.64 
  -1   9  -3   12.55    0.64 
   1  -9   3   12.80    0.61 
   1  -9   3   11.96    0.58 
  -2   9  -3    7.56    0.60 
  -2   9  -3    9.49    0.50 
  -2   9  -3    8.98    0.48 
   2  -9   3    9.48    0.47 
   2  -9   3    9.19    0.43 
   2  -9   3    8.10    0.56 
  -3   9  -3    0.24    0.10 
   3  -9   3    0.19    0.05 
   3  -9   3    0.23    0.09 
   3  -9   3    0.25    0.09 
  -4   9  -3    0.59    0.10 
  -4   9  -3    0.59    0.16 
   4  -9   3    0.72    0.07 
   4  -9   3    0.59    0.10 
   5   8  -3    0.24    0.08 
   5   8  -3    0.22    0.07 
   5   8  -3    0.29    0.10 
  -5  -8   3    0.35    0.06 
   4   8  -3    6.41    0.36 
   4   8  -3    5.98    0.42 
   4   8  -3    6.60    0.38 
   4   8  -3    6.05    0.36 
  -4  -8   3    6.19    0.32 
   3   8  -3   70.38    3.17 
   3   8  -3   71.35    3.13 
   3   8  -3   68.93    3.14 
   3   8  -3   69.89    3.13 
   3   8  -3   68.56    3.14 
  -3  -8   3   72.93    3.09 
  -3  -8   3   68.86    3.12 
   2   8  -3    2.66    0.21 
   2   8  -3    2.34    0.19 
   2   8  -3    2.32    0.21 
   2   8  -3    2.60    0.29 
   2   8  -3    2.83    0.20 
   2   8  -3    2.53    0.19 
  -2  -8   3    2.25    0.19 
  -2  -8   3    2.50    0.15 
  -2  -8   3    1.93    0.30 
   1   8  -3    9.58    0.59 
   1   8  -3    9.21    0.49 
   1   8  -3   10.01    0.51 
   1   8  -3   10.11    0.51 
  -1  -8   3   10.40    0.50 
  -1  -8   3   10.78    0.63 
  -1  -8   3   10.22    0.47 
  -1  -8   3    7.89    0.65 
   0   8  -3   49.30    2.32 
   0   8  -3   52.93    2.24 
   0   8  -3   49.03    2.24 
   0   8  -3   45.02    2.23 
   0  -8   3   53.28    2.23 
   0  -8   3   47.31    2.22 
   0  -8   3   51.75    2.38 
  -1   8  -3    1.51    0.16 
  -1   8  -3    1.28    0.22 
  -1   8  -3    1.51    0.18 
   1  -8   3    1.78    0.25 
   1  -8   3    1.59    0.12 
   1  -8   3    1.92    0.15 
  -2   8  -3   16.72    0.82 
  -2   8  -3   16.94    0.81 
  -2   8  -3   16.36    0.79 
   2  -8   3   16.86    0.75 
   2  -8   3   14.50    0.80 
   2  -8   3   16.36    0.83 
   2  -8   3   16.94    0.79 
  -3   8  -3   27.63    1.30 
  -3   8  -3   27.90    1.32 
   3  -8   3   28.95    1.30 
   3  -8   3   27.53    1.26 
   3  -8   3   28.24    1.26 
   3  -8   3   28.40    1.33 
   3  -8   3   27.28    1.32 
  -4   8  -3   43.56    2.01 
  -4   8  -3   45.41    2.03 
   4  -8   3   46.09    1.98 
   4  -8   3   44.75    2.02 
   4  -8   3   44.08    1.98 
   5   7  -3    0.03    0.07 
   5   7  -3    0.00    0.07 
   5   7  -3    0.04    0.10 
   4   7  -3    0.12    0.08 
   4   7  -3    0.11    0.14 
   4   7  -3    0.15    0.07 
   4   7  -3    0.16    0.09 
  -4  -7   3    0.13    0.06 
   3   7  -3   30.17    1.35 
   3   7  -3   26.74    1.57 
   3   7  -3   26.89    1.35 
   3   7  -3   30.92    1.36 
   3   7  -3   30.61    1.39 
   3   7  -3   30.01    1.34 
  -3  -7   3   27.84    1.56 
  -3  -7   3   29.90    1.31 
   2   7  -3    0.87    0.18 
   2   7  -3    0.85    0.12 
   2   7  -3    1.14    0.26 
   2   7  -3    1.01    0.14 
   2   7  -3    0.95    0.13 
   2   7  -3    0.81    0.11 
  -2  -7   3    0.90    0.20 
  -2  -7   3    0.71    0.08 
  -2  -7   3    0.69    0.20 
   1   7  -3   41.22    1.91 
  -1  -7   3   41.03    1.96 
  -1  -7   3   39.76    1.80 
  -1  -7   3   41.14    1.95 
   0   7  -3   41.35    1.94 
   0  -7   3   42.20    1.99 
  -1   7  -3    1.75    0.17 
  -1   7  -3    1.68    0.17 
  -1   7  -3    1.72    0.20 
   1  -7   3    1.70    0.14 
   1  -7   3    1.85    0.22 
  -2   7  -3    9.57    0.49 
  -2   7  -3    9.51    0.48 
  -2   7  -3    9.62    0.50 
  -2   7  -3    8.97    0.57 
   2  -7   3    9.05    0.51 
   2  -7   3    8.76    0.50 
   2  -7   3    9.32    0.46 
   2  -7   3    9.66    0.63 
   2  -7   3    9.74    0.48 
   2  -7   3    9.41    0.45 
  -3   7  -3    0.01    0.07 
  -3   7  -3    0.10    0.10 
  -3   7  -3    0.10    0.10 
   3  -7   3    0.03    0.04 
   3  -7   3    0.07    0.08 
   3  -7   3   -0.01    0.08 
   3  -7   3    0.02    0.06 
   3  -7   3    0.04    0.05 
   3  -7   3    0.09    0.09 
  -4   7  -3    4.66    0.29 
  -4   7  -3    4.75    0.31 
   4  -7   3    4.76    0.31 
   4  -7   3    4.98    0.31 
   4  -7   3    4.74    0.26 
   4  -7   3    5.08    0.25 
   4  -7   3    5.03    0.26 
  -5   7  -3    0.44    0.12 
   5  -7   3    0.39    0.06 
   5  -7   3    0.39    0.06 
   5  -7   3    0.63    0.10 
   5   6  -3   15.06    0.78 
   5   6  -3   16.30    0.76 
   4   6  -3    5.43    0.32 
   4   6  -3    5.02    0.32 
   4   6  -3    5.03    0.30 
   3   6  -3   61.23    2.65 
   3   6  -3   60.09    2.69 
   3   6  -3   61.08    2.67 
   3   6  -3   62.25    2.81 
   3   6  -3   58.00    2.89 
   3   6  -3   55.93    2.67 
   3   6  -3   59.63    2.66 
  -3  -6   3   58.73    2.87 
   2   6  -3   67.03    3.01 
   2   6  -3   65.28    3.11 
  -2  -6   3   61.07    2.89 
  -2  -6   3   66.52    3.09 
  -2  -6   3   70.59    3.08 
   1   6  -3    9.06    0.50 
   1   6  -3    9.23    0.57 
  -1  -6   3    9.52    0.54 
  -1  -6   3    8.37    0.53 
   0   6  -3   21.77    1.04 
   0  -6   3   21.52    1.08 
  -1   6  -3    2.64    0.22 
   1  -6   3    2.64    0.24 
  -2   6  -3    1.40    0.16 
  -2   6  -3    1.42    0.20 
  -2   6  -3    1.39    0.13 
  -2   6  -3    1.94    0.30 
   2  -6   3    1.67    0.22 
   2  -6   3    1.35    0.13 
   2  -6   3    1.52    0.18 
   2  -6   3    1.36    0.17 
   2  -6   3    1.58    0.13 
   2  -6   3    1.42    0.11 
  -3   6  -3    2.96    0.25 
  -3   6  -3    3.60    0.22 
   3  -6   3    3.53    0.21 
   3  -6   3    3.57    0.20 
   3  -6   3    3.80    0.24 
   3  -6   3    3.17    0.26 
   3  -6   3    3.23    0.19 
   3  -6   3    3.98    0.27 
  -4   6  -3    1.41    0.17 
  -4   6  -3    1.19    0.15 
   4  -6   3    1.34    0.17 
   4  -6   3    1.32    0.11 
   4  -6   3    1.24    0.12 
   4  -6   3    1.42    0.11 
   4  -6   3    1.24    0.16 
  -5   6  -3    1.39    0.15 
  -5   6  -3    1.62    0.17 
   5  -6   3    1.61    0.11 
   5  -6   3    1.67    0.11 
   5  -6   3    1.52    0.11 
   5  -6   3    1.65    0.14 
   5  -6   3    1.57    0.14 
   5   5  -3    9.38    0.48 
   4   5  -3   44.08    2.01 
   4   5  -3   45.20    2.00 
   4   5  -3   44.20    2.02 
   3   5  -3   17.41    0.81 
   3   5  -3   17.12    0.83 
   3   5  -3   16.42    0.82 
   3   5  -3   17.22    1.01 
   3   5  -3   17.49    0.94 
  -3  -5   3   17.18    1.01 
  -3  -5   3   18.97    1.02 
   2   5  -3  209.57    9.20 
   2   5  -3  204.89    9.10 
  -2  -5   3  206.67    9.18 
   1   5  -3  157.15    6.73 
   1   5  -3  146.32    6.65 
  -1  -5   3  150.48    6.71 
   0   5  -3   23.03    1.04 
   0   5  -3   22.06    1.06 
   0  -5   3   22.56    1.07 
   0  -5   3   20.39    1.04 
  -1   5  -3   21.43    1.02 
  -1   5  -3   20.76    1.00 
   1  -5   3   20.63    0.98 
   1  -5   3   21.02    1.04 
  -2   5  -3   21.86    1.09 
  -2   5  -3   20.15    0.95 
  -2   5  -3   20.31    1.03 
   2  -5   3   22.25    1.09 
   2  -5   3   21.12    1.02 
  -3   5  -3   18.07    1.01 
  -3   5  -3   19.64    1.11 
  -3   5  -3   20.57    0.91 
  -3   5  -3   18.75    0.94 
   3  -5   3   19.06    1.02 
   3  -5   3   20.02    0.90 
   3  -5   3   19.43    0.90 
   3  -5   3   19.82    1.08 
   3  -5   3   21.03    0.91 
   3  -5   3   21.69    0.97 
   3  -5   3   19.14    1.00 
   3  -5   3   20.20    0.98 
  -4   5  -3    0.43    0.08 
   4  -5   3    0.48    0.11 
   4  -5   3    0.41    0.06 
   4  -5   3    0.53    0.07 
   4  -5   3    0.50    0.08 
   4  -5   3    0.49    0.12 
  -5   5  -3   18.31    0.87 
  -5   5  -3   16.72    0.88 
   5  -5   3   18.51    0.88 
   5  -5   3   19.51    0.84 
   5  -5   3   19.01    0.84 
   5  -5   3   18.97    0.85 
   5  -5   3   18.96    0.89 
   4   4  -3    0.10    0.07 
   4   4  -3   -0.01    0.07 
   4   4  -3    0.11    0.20 
   4   4  -3    0.11    0.09 
  -4  -4   3    0.12    0.19 
   3   4  -3   17.26    1.00 
   3   4  -3   18.25    0.95 
  -3  -4   3   17.71    1.03 
   2   4  -3   44.85    2.00 
   2   4  -3   44.30    2.08 
  -2  -4   3   41.52    2.08 
   1   4  -3   47.23    2.13 
   1   4  -3   48.91    2.20 
  -1  -4   3   45.85    2.18 
   0   4  -3    1.94    0.14 
   0   4  -3    2.24    0.16 
   0   4  -3    2.33    0.18 
   0  -4   3    2.25    0.18 
  -1   4  -3    8.51    0.44 
   1  -4   3    7.99    0.41 
   1  -4   3    8.22    0.46 
  -2   4  -3    0.89    0.14 
   2  -4   3    0.80    0.14 
   2  -4   3    0.87    0.11 
  -3   4  -3    1.56    0.12 
  -3   4  -3    1.69    0.28 
  -3   4  -3    1.73    0.22 
   3  -4   3    1.68    0.12 
   3  -4   3    1.57    0.18 
   3  -4   3    1.83    0.12 
   3  -4   3    1.81    0.19 
   3  -4   3    1.66    0.13 
   3  -4   3    1.86    0.23 
   3  -4   3    1.60    0.17 
   3  -4   3    1.51    0.25 
  -4   4  -3   12.73    0.63 
   4  -4   3   13.03    0.62 
   4  -4   3   13.90    0.70 
   4  -4   3   12.88    0.62 
   4  -4   3   14.03    0.69 
   4  -4   3   13.50    0.63 
  -5   4  -3    2.94    0.20 
   5  -4   3    3.17    0.18 
   5  -4   3    2.89    0.18 
   5  -4   3    2.90    0.22 
   5  -4   3    3.22    0.17 
   5  -4   3    2.72    0.21 
   4   3  -3    0.50    0.09 
   4   3  -3    0.49    0.21 
   4   3  -3    0.51    0.10 
  -4  -3   3    0.40    0.20 
   3   3  -3   72.50    3.42 
   3   3  -3   79.22    3.37 
  -3  -3   3   69.58    3.48 
   2   3  -3   14.17    0.69 
   2   3  -3   13.73    0.75 
  -2  -3   3   13.90    0.80 
   1   3  -3   19.09    0.93 
   1   3  -3   18.92    0.87 
  -1  -3   3   18.14    0.94 
   0   3  -3    6.07    0.32 
   0   3  -3    5.77    0.30 
   0  -3   3    5.57    0.32 
   0  -3   3    5.47    0.27 
  -1   3  -3    2.09    0.15 
   1  -3   3    2.07    0.14 
   1  -3   3    2.03    0.17 
  -2   3  -3   76.84    3.42 
   2  -3   3   76.91    3.46 
   2  -3   3   76.57    3.42 
  -3   3  -3   19.92    1.02 
   3  -3   3   21.51    0.98 
   3  -3   3   19.73    1.01 
   3  -3   3   21.06    1.07 
   3  -3   3   19.18    1.07 
   3  -3   3   22.14    1.08 
  -4   3  -3    9.77    0.49 
   4  -3   3   10.13    0.50 
   4  -3   3   10.81    0.51 
   4  -3   3   11.45    0.56 
   4  -3   3   10.24    0.57 
   4  -3   3   10.56    0.49 
  -5   3  -3   36.27    1.68 
   5  -3   3   37.91    1.68 
   5  -3   3   40.34    1.68 
   5  -3   3   36.81    1.68 
   5  -3   3   37.60    1.74 
   5  -3   3   37.75    1.73 
   6  -3   3    8.71    0.43 
   6  -3   3    8.63    0.41 
   4   2  -3   10.39    0.53 
   3   2  -3   13.96    0.80 
   3   2  -3   15.20    0.82 
  -3  -2   3   13.97    0.88 
   2   2  -3   66.54    3.01 
   2   2  -3   63.50    3.06 
   2   2  -3   73.03    3.09 
  -2  -2   3   69.36    2.99 
  -2  -2   3   65.22    3.12 
   1   2  -3   17.04    0.77 
   1   2  -3   17.87    0.83 
  -1  -2   3   15.19    0.85 
   0   2  -3   86.16    3.82 
   0   2  -3   95.92    3.85 
   0  -2   3   84.14    3.85 
   0  -2   3   82.97    3.81 
  -1   2  -3  129.37    5.75 
   1  -2   3  134.47    5.75 
   1  -2   3  130.29    5.77 
  -2   2  -3    2.12    0.16 
   2  -2   3    1.71    0.16 
   2  -2   3    2.04    0.16 
  -3   2  -3    0.16    0.10 
   3  -2   3    0.18    0.10 
   3  -2   3    0.38    0.10 
  -4   2  -3   11.09    0.75 
  -4   2  -3   10.47    0.54 
   4  -2   3   11.36    0.62 
   4  -2   3   11.88    0.54 
   4  -2   3   12.49    0.56 
   4  -2   3   10.26    0.70 
   4  -2   3   11.03    0.64 
   4  -2   3   12.97    0.61 
   4  -2   3   12.00    0.55 
  -5   2  -3   14.60    0.74 
   5  -2   3   16.50    0.74 
   5  -2   3   16.32    0.74 
   5  -2   3   16.82    0.75 
   5  -2   3   16.35    0.81 
   5  -2   3   16.50    0.79 
   6  -2   3    0.16    0.04 
   6  -2   3   -0.05    0.06 
   6  -2   3    0.10    0.06 
   4   1  -3   12.25    0.81 
   4   1  -3   12.55    0.64 
   4   1  -3   12.55    0.59 
  -4  -1   3   13.26    0.93 
   3   1  -3   97.56    4.56 
   3   1  -3   98.67    4.57 
  -3  -1   3  103.37    4.51 
  -3  -1   3  104.60    4.66 
   2   1  -3   24.43    1.14 
   2   1  -3   26.03    1.20 
   2   1  -3   22.10    1.17 
  -2  -1   3   25.67    1.14 
   1   1  -3   38.81    1.78 
   1   1  -3   44.70    1.84 
   1   1  -3   38.08    1.83 
  -1  -1   3   39.57    1.78 
  -1  -1   3   40.07    1.86 
   0   1  -3  187.13    8.05 
   0   1  -3  180.96    8.03 
   0  -1   3  196.18    8.03 
   0  -1   3  173.10    8.16 
  -1   1  -3   -0.23    0.05 
   1  -1   3   -0.25    0.04 
   1  -1   3   -0.22    0.05 
  -2   1  -3   18.98    0.91 
   2  -1   3   19.44    0.92 
   2  -1   3   19.45    0.92 
  -3   1  -3   15.72    0.81 
   3  -1   3   15.74    0.82 
   3  -1   3   17.23    0.82 
  -4   1  -3   18.95    1.02 
   4  -1   3   19.70    0.90 
   4  -1   3   18.86    0.98 
   4  -1   3   22.07    0.96 
   4  -1   3   19.58    1.00 
   4  -1   3   19.55    1.06 
   4  -1   3   18.57    0.89 
   4  -1   3   21.06    0.91 
   5  -1   3    7.27    0.34 
   5  -1   3    6.77    0.35 
   5  -1   3    6.84    0.41 
   5  -1   3    6.56    0.39 
  -6   1  -3    2.22    0.16 
   6  -1   3    2.81    0.18 
   6  -1   3    2.80    0.15 
   6  -1   3    2.62    0.16 
   5   0  -3    0.74    0.10 
   5   0  -3    0.81    0.10 
   4   0  -3    0.21    0.11 
   4   0  -3    0.27    0.06 
   4   0  -3    0.16    0.06 
   4   0  -3    0.23    0.20 
   4   0  -3    0.17    0.05 
  -4   0   3    0.35    0.28 
   3   0  -3  102.74    4.57 
   3   0  -3   96.28    4.56 
  -3   0   3  105.21    4.55 
   2   0  -3    0.06    0.08 
   2   0  -3    0.01    0.07 
   2   0  -3    0.01    0.07 
  -2   0   3    0.02    0.07 
  -2   0   3    0.01    0.05 
   1   0  -3   43.90    2.10 
   1   0  -3   49.36    2.12 
   1   0  -3   45.13    2.06 
  -1   0   3   49.57    2.09 
   0   0  -3   92.60    4.16 
   0   0  -3   95.47    4.12 
   0   0   3   96.35    4.17 
   0   0   3   93.53    4.16 
  -1   0  -3  468.20   22.00 
  -1   0  -3  491.54   22.02 
   1   0   3  497.78   22.22 
   1   0   3  529.50   22.39 
  -2   0  -3   12.61    0.61 
  -2   0  -3   13.12    0.62 
   2   0   3   13.34    0.63 
   2   0   3   12.10    0.61 
  -3   0  -3   71.57    3.11 
   3   0   3   70.89    3.12 
   3   0   3   65.85    3.11 
  -4   0  -3  126.29    5.63 
   4   0   3  129.18    5.52 
   4   0   3  121.91    5.61 
   4   0   3  130.61    5.57 
   4   0   3  124.96    5.60 
   4   0   3  126.51    5.52 
   4   0   3  124.19    5.66 
   5   0   3    6.11    0.32 
   5   0   3    6.52    0.32 
   5   0   3    6.19    0.37 
   5   0   3    6.59    0.39 
   6   0   3   17.06    0.82 
   6   0   3   17.95    0.79 
   5  -1  -3    0.73    0.09 
   5  -1  -3    0.93    0.09 
   5  -1  -3    0.88    0.10 
   4  -1  -3    1.52    0.30 
   4  -1  -3    1.32    0.11 
   4  -1  -3    1.24    0.16 
   4  -1  -3    1.42    0.10 
   4  -1  -3    1.24    0.11 
  -4   1   3    1.50    0.30 
   3  -1  -3   57.21    2.65 
  -3   1   3   57.03    2.64 
   2  -1  -3    3.40    0.25 
   2  -1  -3    3.79    0.26 
  -2   1   3    3.25    0.19 
  -2   1   3    3.59    0.25 
   1  -1  -3    5.99    0.33 
   1  -1  -3    6.25    0.35 
  -1   1   3    6.43    0.33 
   0  -1  -3   52.76    2.34 
   0  -1  -3   52.51    2.36 
   0  -1  -3   53.61    2.40 
   0   1   3   54.45    2.35 
   0   1   3   55.67    2.40 
  -1  -1  -3  162.45    7.29 
   1   1   3  174.48    7.54 
   1   1   3  158.20    7.27 
  -2  -1  -3    1.17    0.11 
  -2  -1  -3    1.09    0.09 
   2   1   3    1.01    0.13 
   2   1   3    1.10    0.10 
   2   1   3    0.80    0.08 
  -3  -1  -3   21.30    1.04 
   3   1   3   21.72    1.14 
   3   1   3   22.84    1.06 
  -4  -1  -3   12.57    0.67 
   4   1   3   12.36    0.65 
   4   1   3   12.06    0.65 
   4   1   3   11.32    0.70 
   4   1   3   12.44    0.56 
   4   1   3   11.61    0.61 
   4   1   3   11.17    0.56 
   5   1   3    2.83    0.16 
   5   1   3    2.64    0.20 
   5   1   3    2.57    0.23 
   5   1   3    2.15    0.35 
   6   1   3    2.22    0.13 
   6   1   3    1.92    0.16 
   5  -2  -3    3.90    0.22 
   5  -2  -3    3.90    0.22 
   5  -2  -3    3.94    0.21 
   4  -2  -3    6.03    0.31 
   4  -2  -3    6.33    0.30 
   4  -2  -3    6.12    0.30 
   4  -2  -3    5.44    0.35 
   4  -2  -3    6.28    0.34 
  -4   2   3    5.44    0.53 
   3  -2  -3    3.16    0.29 
  -3   2   3    3.71    0.31 
   2  -2  -3  152.82    6.70 
   2  -2  -3  150.55    6.71 
  -2   2   3  152.95    6.72 
   1  -2  -3    0.36    0.07 
   1  -2  -3    0.43    0.10 
  -1   2   3    0.51    0.09 
   0  -2  -3    2.03    0.14 
   0  -2  -3    1.76    0.11 
   0   2   3    1.90    0.14 
   0   2   3    1.90    0.10 
  -1  -2  -3    0.29    0.06 
   1   2   3    0.44    0.08 
   1   2   3    0.24    0.06 
  -2  -2  -3    0.47    0.10 
   2   2   3    0.59    0.09 
  -3  -2  -3   44.89    2.02 
  -3  -2  -3   43.57    2.06 
   3   2   3   43.97    2.03 
   3   2   3   46.12    2.11 
  -4  -2  -3    8.52    0.51 
   4   2   3    8.93    0.54 
   4   2   3    8.83    0.47 
   4   2   3    8.65    0.51 
   4   2   3    8.51    0.50 
   4   2   3    8.31    0.41 
   5   2   3    5.77    0.39 
   5   2   3    6.12    0.31 
   5   2   3    6.52    0.50 
   5   2   3    6.52    0.36 
   6   2   3    6.71    0.37 
   5  -3  -3    3.31    0.21 
   5  -3  -3    3.51    0.19 
   5  -3  -3    3.49    0.20 
   5  -3  -3    3.60    0.20 
   5  -3  -3    3.19    0.25 
  -5   3   3    3.35    0.21 
   4  -3  -3   89.03    3.94 
   4  -3  -3   89.63    3.89 
   4  -3  -3   90.06    3.93 
   4  -3  -3   87.34    3.89 
   4  -3  -3   88.04    3.90 
   3  -3  -3  120.86    5.18 
   3  -3  -3  116.62    5.18 
   3  -3  -3  118.40    5.35 
   3  -3  -3  119.27    5.18 
  -3   3   3  118.24    5.35 
   2  -3  -3  109.66    4.98 
  -2   3   3  114.03    4.99 
   1  -3  -3  119.18    5.17 
   1  -3  -3  112.93    5.13 
  -1   3   3  108.97    5.07 
  -1   3   3  125.31    5.15 
   0  -3  -3    0.44    0.06 
   0  -3  -3    0.50    0.08 
   0   3   3    0.64    0.09 
   0   3   3    0.49    0.05 
  -1  -3  -3   10.30    0.54 
   1   3   3   11.31    0.55 
   1   3   3    9.71    0.51 
  -2  -3  -3  114.39    5.06 
   2   3   3  112.59    5.04 
   2   3   3  114.95    5.01 
  -3  -3  -3    3.14    0.26 
   3   3   3    2.60    0.25 
   3   3   3    2.70    0.20 
  -4  -3  -3    4.28    0.35 
   4   3   3    5.94    0.34 
   4   3   3    4.94    0.35 
   4   3   3    6.56    0.39 
   5   3   3   43.46    2.01 
   5   3   3   43.12    1.98 
   5   3   3   44.08    2.10 
   5  -4  -3    5.65    0.27 
   5  -4  -3    4.75    0.33 
   5  -4  -3    5.31    0.27 
   5  -4  -3    5.07    0.29 
   5  -4  -3    5.43    0.28 
  -5   4   3    5.56    0.30 
   4  -4  -3   12.00    0.57 
   4  -4  -3   12.25    0.62 
   4  -4  -3   12.29    0.56 
   4  -4  -3   11.95    0.60 
   4  -4  -3   12.39    0.57 
  -4   4   3   11.35    0.57 
   3  -4  -3    7.03    0.34 
   3  -4  -3    7.25    0.37 
   3  -4  -3    6.72    0.33 
   3  -4  -3    6.58    0.33 
   3  -4  -3    6.91    0.48 
   3  -4  -3    7.53    0.37 
  -3   4   3    5.97    0.33 
  -3   4   3    7.12    0.52 
   2  -4  -3   10.76    0.60 
  -2   4   3   10.35    0.61 
   1  -4  -3   12.57    0.65 
   1  -4  -3   11.18    0.60 
  -1   4   3   12.51    0.62 
  -1   4   3   10.84    0.54 
   0  -4  -3   14.07    0.71 
   0  -4  -3   14.31    0.73 
   0   4   3   15.53    0.69 
   0   4   3   16.27    0.75 
  -1  -4  -3   33.04    1.58 
   1   4   3   36.01    1.54 
   1   4   3   33.34    1.58 
  -2  -4  -3   41.94    1.91 
   2   4   3   40.04    1.88 
   2   4   3   40.89    1.85 
  -3  -4  -3    1.11    0.18 
   3   4   3    1.40    0.22 
   3   4   3    1.37    0.14 
  -4  -4  -3   49.23    2.28 
   4   4   3   47.63    2.26 
   4   4   3   49.80    2.22 
   4   4   3   50.71    2.27 
   4   4   3   48.43    2.40 
   4   4   3   48.57    2.22 
   5   4   3    9.31    0.58 
   5   4   3   11.40    0.59 
   5   4   3   10.78    0.66 
   5  -5  -3   10.61    0.48 
   5  -5  -3   10.30    0.48 
   5  -5  -3    9.66    0.50 
   5  -5  -3   10.25    0.53 
   5  -5  -3   10.35    0.49 
  -5   5   3   10.55    0.51 
   4  -5  -3    6.07    0.34 
   4  -5  -3    5.97    0.30 
   4  -5  -3    5.94    0.36 
   4  -5  -3    6.11    0.30 
   4  -5  -3    5.88    0.31 
  -4   5   3    5.91    0.32 
   3  -5  -3   27.40    1.20 
   3  -5  -3   28.05    1.24 
   3  -5  -3   27.00    1.23 
   3  -5  -3   25.39    1.38 
   3  -5  -3   26.66    1.20 
   3  -5  -3   27.37    1.20 
  -3   5   3   26.54    1.20 
  -3   5   3   24.68    1.41 
   2  -5  -3   44.51    2.04 
  -2   5   3   45.00    2.07 
  -2   5   3   40.32    1.90 
   1  -5  -3    5.78    0.36 
   1  -5  -3    5.40    0.40 
  -1   5   3    5.94    0.38 
  -1   5   3    5.95    0.30 
   0  -5  -3    6.53    0.42 
   0  -5  -3    7.42    0.41 
   0   5   3    8.52    0.39 
   0   5   3    7.90    0.45 
  -1  -5  -3   13.92    0.70 
  -1  -5  -3   15.72    0.77 
   1   5   3   15.45    0.72 
   1   5   3   14.53    0.77 
  -2  -5  -3   45.07    2.12 
   2   5   3   44.17    2.04 
   2   5   3   47.21    2.08 
  -3  -5  -3   24.84    1.36 
   3   5   3   29.49    1.35 
  -4  -5  -3    9.02    0.66 
   4   5   3   10.54    0.69 
   4   5   3    9.47    0.57 
   4   5   3   10.34    0.57 
   4   5   3   10.69    0.53 
   5   5   3   44.02    1.96 
   5   5   3   41.99    2.03 
   5   5   3   41.70    1.98 
   5  -6  -3    9.98    0.50 
   5  -6  -3   10.90    0.54 
   5  -6  -3   10.35    0.49 
   5  -6  -3   10.30    0.49 
   5  -6  -3   10.59    0.49 
  -5   6   3   11.39    0.52 
  -5   6   3   10.64    0.56 
   4  -6  -3   13.57    0.67 
   4  -6  -3   12.90    0.62 
   4  -6  -3   13.10    0.63 
   4  -6  -3   13.81    0.66 
   4  -6  -3   12.94    0.62 
  -4   6   3   13.63    0.65 
   3  -6  -3    6.02    0.30 
   3  -6  -3    6.07    0.33 
   3  -6  -3    6.27    0.34 
   3  -6  -3    5.30    0.32 
   3  -6  -3    6.22    0.30 
   3  -6  -3    5.99    0.30 
  -3   6   3    5.18    0.33 
  -3   6   3    5.87    0.32 
   2  -6  -3   99.89    4.51 
   2  -6  -3  102.80    4.66 
   2  -6  -3  105.21    4.54 
   2  -6  -3  110.86    4.55 
   2  -6  -3  103.42    4.53 
  -2   6   3  101.91    4.52 
  -2   6   3   97.86    4.69 
   1  -6  -3   14.93    0.81 
  -1   6   3   16.59    0.84 
   0  -6  -3   87.71    4.13 
   0  -6  -3   85.30    4.14 
   0   6   3  102.30    4.19 
   0   6   3   96.90    4.10 
  -1  -6  -3   10.52    0.55 
  -1  -6  -3    8.52    0.46 
   1   6   3    8.23    0.47 
   1   6   3    9.36    0.54 
  -2  -6  -3   15.96    0.84 
   2   6   3   14.78    0.78 
  -3  -6  -3    1.55    0.22 
   3   6   3    1.75    0.21 
   4   6   3    1.02    0.13 
   4   6   3    1.04    0.26 
   4   6   3    0.68    0.16 
   5   6   3    8.57    0.50 
   5   6   3    9.01    0.52 
   5   6   3    9.35    0.57 
   6   6   3    0.95    0.20 
   5  -7  -3    7.66    0.34 
   5  -7  -3    7.15    0.35 
   5  -7  -3    7.38    0.34 
   5  -7  -3    7.07    0.34 
  -5   7   3    6.49    0.40 
   4  -7  -3    7.29    0.35 
   4  -7  -3    6.70    0.40 
   4  -7  -3    6.39    0.35 
   4  -7  -3    7.38    0.39 
   4  -7  -3    7.25    0.36 
  -4   7   3    8.42    0.40 
   3  -7  -3   56.75    2.53 
   3  -7  -3   57.06    2.50 
   3  -7  -3   56.81    2.54 
   3  -7  -3   56.23    2.50 
   3  -7  -3   57.82    2.50 
  -3   7   3   53.40    2.53 
  -3   7   3   58.44    2.53 
   2  -7  -3    0.15    0.13 
   2  -7  -3    0.06    0.06 
   2  -7  -3    0.20    0.08 
   2  -7  -3    0.05    0.05 
   2  -7  -3    0.22    0.05 
   2  -7  -3    0.08    0.05 
   2  -7  -3    0.13    0.07 
  -2   7   3    0.05    0.06 
  -2   7   3    0.05    0.08 
  -2   7   3   -0.06    0.19 
   1  -7  -3   45.02    2.13 
  -1   7   3   46.37    2.16 
  -1   7   3   44.93    2.02 
   0  -7  -3   43.74    2.06 
   0  -7  -3   42.86    2.07 
   0   7   3   47.16    2.03 
  -1  -7  -3   15.79    0.84 
   1   7   3   15.69    0.78 
  -2  -7  -3    0.73    0.18 
  -2  -7  -3    0.57    0.06 
   2   7   3    0.88    0.16 
  -3  -7  -3   19.27    1.04 
  -3  -7  -3   17.26    0.80 
   3   7   3   17.11    0.96 
   3   7   3   18.29    0.87 
   3   7   3   16.77    0.90 
   3   7   3   18.14    0.86 
   3   7   3   18.76    0.84 
  -4  -7  -3   46.41    2.33 
   4   7   3   56.16    2.37 
   4   7   3   55.52    2.43 
   4   7   3   53.65    2.39 
   4   7   3   52.61    2.44 
   5   7   3    0.31    0.13 
   5   7   3    0.39    0.15 
   5   7   3    0.49    0.12 
   6   7   3   13.39    0.72 
   6   7   3   12.66    0.67 
   4  -8  -3    8.64    0.43 
   4  -8  -3    8.03    0.40 
   4  -8  -3    8.12    0.40 
   4  -8  -3    8.05    0.44 
   4  -8  -3    8.47    0.40 
  -4   8   3    8.47    0.50 
  -4   8   3    8.76    0.44 
   3  -8  -3   44.49    1.93 
   3  -8  -3   41.40    1.88 
   3  -8  -3   41.30    1.88 
   3  -8  -3   42.84    1.89 
   3  -8  -3   43.22    1.92 
  -3   8   3   40.27    1.92 
  -3   8   3   43.98    1.93 
   2  -8  -3    8.23    0.46 
   2  -8  -3    8.56    0.41 
   2  -8  -3    8.34    0.41 
   2  -8  -3    9.38    0.46 
   2  -8  -3    9.25    0.45 
  -2   8   3    8.21    0.46 
  -2   8   3    8.05    0.71 
  -2   8   3    8.75    0.45 
   1  -8  -3   14.90    0.74 
   1  -8  -3   15.41    0.86 
   1  -8  -3   15.10    0.74 
   1  -8  -3   16.46    0.76 
  -1   8   3   16.49    0.93 
  -1   8   3   15.40    0.76 
  -1   8   3   15.62    0.75 
  -1   8   3   17.49    0.83 
   0  -8  -3   43.26    2.01 
   0   8   3   42.34    1.97 
  -1  -8  -3   38.24    1.76 
  -1  -8  -3   40.70    1.91 
   1   8   3   40.46    1.85 
  -2  -8  -3    0.94    0.22 
  -2  -8  -3    0.91    0.08 
   2   8   3    1.29    0.17 
  -3  -8  -3    0.16    0.15 
  -3  -8  -3    0.14    0.04 
   3   8   3    0.19    0.14 
   3   8   3    0.25    0.09 
   3   8   3    0.12    0.07 
   3   8   3    0.18    0.07 
   3   8   3    0.14    0.11 
   3   8   3    0.26    0.09 
  -4  -8  -3   23.34    1.11 
   4   8   3   25.04    1.15 
   4   8   3   26.90    1.18 
   4   8   3   23.89    1.23 
   4   8   3   24.84    1.21 
  -5  -8  -3    1.99    0.14 
   5   8   3    2.52    0.23 
   6   8   3    2.93    0.26 
   6   8   3    2.85    0.30 
   4  -9  -3    0.03    0.06 
   4  -9  -3    0.02    0.04 
   4  -9  -3    0.03    0.07 
   4  -9  -3    0.01    0.04 
  -4   9   3    0.17    0.12 
   3  -9  -3    1.43    0.14 
   3  -9  -3    1.35    0.11 
   3  -9  -3    1.66    0.15 
   3  -9  -3    1.18    0.10 
   3  -9  -3    1.14    0.12 
  -3   9   3    1.61    0.24 
  -3   9   3    1.26    0.15 
  -3   9   3    0.98    0.14 
   2  -9  -3   36.40    1.72 
   2  -9  -3   37.93    1.75 
   2  -9  -3   39.36    1.77 
   2  -9  -3   38.91    1.77 
   2  -9  -3   38.77    1.72 
  -2   9   3   40.70    1.85 
  -2   9   3   39.41    1.77 
  -2   9   3   38.70    1.77 
   1  -9  -3   14.38    0.71 
   1  -9  -3   14.19    0.84 
   1  -9  -3   14.55    0.70 
   1  -9  -3   14.36    0.72 
  -1   9   3   14.96    0.72 
  -1   9   3   16.13    0.81 
   0  -9  -3    2.46    0.17 
   0  -9  -3    2.89    0.17 
   0   9   3    2.68    0.20 
   0   9   3    1.97    0.30 
   0   9   3    2.46    0.27 
  -1  -9  -3    0.49    0.07 
  -1  -9  -3    0.74    0.20 
  -1  -9  -3    0.56    0.08 
   1   9   3    0.80    0.12 
   1   9   3    0.92    0.13 
   1   9   3    0.65    0.22 
   1   9   3    0.88    0.13 
   1   9   3    0.70    0.15 
  -2  -9  -3    2.48    0.15 
  -2  -9  -3    2.50    0.32 
  -2  -9  -3    2.36    0.17 
   2   9   3    1.97    0.19 
   2   9   3    2.28    0.18 
   2   9   3    2.64    0.19 
   2   9   3    1.95    0.21 
   2   9   3    2.24    0.19 
   2   9   3    2.33    0.25 
  -3  -9  -3    1.85    0.15 
  -3  -9  -3    1.78    0.13 
   3   9   3    2.02    0.17 
   3   9   3    2.41    0.20 
   3   9   3    1.85    0.22 
   3   9   3    1.67    0.16 
  -4  -9  -3    3.46    0.21 
   4   9   3    4.17    0.31 
   4   9   3    4.47    0.28 
   4   9   3    3.39    0.32 
   4   9   3    4.31    0.26 
  -5  -9  -3    8.79    0.44 
   5   9   3   10.31    0.52 
   5   9   3    9.40    0.55 
   5   9   3    9.37    0.48 
   5   9   3    9.12    0.52 
   3 -10  -3    4.99    0.27 
   3 -10  -3    4.33    0.24 
   3 -10  -3    4.40    0.23 
  -3  10   3    4.49    0.35 
  -3  10   3    4.38    0.27 
   2 -10  -3   20.17    0.99 
   2 -10  -3   21.95    1.03 
   2 -10  -3   21.15    1.04 
   2 -10  -3   22.66    1.05 
  -2  10   3   22.05    1.05 
  -2  10   3   24.34    1.15 
   1 -10  -3   44.54    2.11 
   1 -10  -3   46.19    2.12 
  -1  10   3   51.52    2.23 
  -1  10   3   46.33    2.13 
   0 -10  -3    0.14    0.06 
   0 -10  -3    0.10    0.05 
   0  10   3    0.14    0.19 
   0  10   3    0.14    0.09 
  -1 -10  -3    1.05    0.12 
  -1 -10  -3    1.21    0.12 
   1  10   3    0.81    0.19 
   1  10   3    0.97    0.14 
   1  10   3    0.98    0.15 
   1  10   3    1.00    0.13 
  -2 -10  -3    3.40    0.57 
  -2 -10  -3    4.30    0.23 
  -2 -10  -3    4.14    0.25 
   2  10   3    4.46    0.28 
   2  10   3    4.21    0.28 
   2  10   3    4.24    0.31 
  -3 -10  -3    5.98    0.32 
  -3 -10  -3    6.52    0.31 
   3  10   3    5.32    0.40 
   3  10   3    6.37    0.35 
   3  10   3    6.08    0.37 
   3  10   3    5.42    0.35 
   3  10   3    5.49    0.33 
  -4 -10  -3    4.13    0.24 
   4  10   3    4.81    0.30 
   4  10   3    4.71    0.33 
   4  10   3    4.26    0.35 
   4  10   3    4.98    0.29 
  -5 -10  -3    6.43    0.33 
   5  10   3    6.98    0.43 
   5  10   3    7.06    0.39 
   5  10   3    6.59    0.36 
   3 -11  -3   12.04    0.60 
  -3  11   3   13.05    0.68 
  -3  11   3   12.32    0.60 
   2 -11  -3   -0.06    0.09 
   2 -11  -3    0.13    0.06 
  -2  11   3    0.06    0.09 
  -2  11   3    0.19    0.17 
   1 -11  -3   27.47    1.36 
   1 -11  -3   29.74    1.38 
  -1  11   3   32.02    1.49 
  -1  11   3   30.33    1.39 
   0 -11  -3    6.83    0.36 
   0 -11  -3    6.86    0.37 
   0  11   3    6.42    0.49 
   0  11   3    7.04    0.40 
  -1 -11  -3    0.53    0.09 
  -1 -11  -3    0.74    0.10 
   1  11   3    0.42    0.12 
   1  11   3    0.60    0.13 
   1  11   3    0.47    0.10 
  -2 -11  -3    7.26    0.37 
  -2 -11  -3    6.32    0.34 
   2  11   3    7.03    0.43 
   2  11   3    6.64    0.39 
   2  11   3    6.60    0.39 
  -3 -11  -3   24.49    1.13 
  -3 -11  -3   25.93    1.12 
   3  11   3   23.58    1.18 
   3  11   3   22.85    1.15 
   3  11   3   25.90    1.16 
   3  11   3   24.72    1.22 
  -4 -11  -3    7.20    0.37 
   4  11   3    6.90    0.45 
   4  11   3    7.11    0.44 
   4  11   3    7.89    0.41 
   4  11   3    7.85    0.42 
  -5 -11  -3    4.27    0.22 
  -5 -11  -3    4.17    0.23 
   5  11   3    3.79    0.24 
   5  11   3    4.33    0.28 
   5  11   3    4.15    0.30 
   2 -12  -3   11.32    0.58 
  -2  12   3   12.75    0.60 
   1 -12  -3    0.50    0.10 
   1 -12  -3    0.47    0.09 
  -1  12   3    0.45    0.20 
  -1  12   3    0.59    0.12 
   0 -12  -3    0.04    0.06 
   0 -12  -3    0.05    0.06 
   0  12   3    0.14    0.10 
   0  12   3    0.04    0.20 
  -1 -12  -3    8.03    0.45 
  -1 -12  -3    9.18    0.46 
   1  12   3    9.10    0.50 
   1  12   3    9.26    0.48 
  -2 -12  -3   10.94    0.53 
  -2 -12  -3   10.29    0.53 
   2  12   3   10.85    0.60 
   2  12   3   10.89    0.56 
   2  12   3   10.53    0.56 
  -3 -12  -3    0.66    0.10 
  -3 -12  -3    0.45    0.08 
  -3 -12  -3    0.50    0.07 
   3  12   3    0.48    0.12 
   3  12   3    0.67    0.12 
   3  12   3    0.64    0.12 
   3  12   3    0.47    0.15 
  -4 -12  -3    8.58    0.40 
  -4 -12  -3    8.65    0.42 
   4  12   3    7.46    0.44 
   4  12   3    8.74    0.48 
   4  12   3    7.86    0.43 
   4  12   3    8.08    0.47 
  -5 -12  -3   10.21    0.50 
   5  12   3    9.89    0.52 
   5  12   3   11.11    0.53 
   5  12   3   10.81    0.56 
   2 -13  -3   16.95    0.83 
  -2  13   3   19.44    0.85 
   1 -13  -3    0.38    0.09 
   1 -13  -3    0.37    0.07 
  -1  13   3    0.67    0.20 
  -1  13   3    0.39    0.10 
   0 -13  -3    0.44    0.09 
   0 -13  -3    0.75    0.11 
   0  13   3    0.50    0.12 
  -1 -13  -3    3.78    0.22 
   1  13   3    3.58    0.27 
   1  13   3    3.12    0.24 
  -2 -13  -3    7.09    0.38 
  -2 -13  -3    7.12    0.38 
   2  13   3    7.39    0.41 
   2  13   3    7.44    0.44 
  -3 -13  -3    5.26    0.31 
  -3 -13  -3    7.16    0.33 
   3  13   3    6.31    0.36 
   3  13   3    5.33    0.37 
  -4 -13  -3    1.40    0.13 
   1 -14  -3    8.79    0.46 
  -1  14   3   10.01    0.48 
   0 -14  -3    0.33    0.08 
   0  14   3    0.32    0.10 
  -1 -14  -3    8.64    0.43 
   1  14   3    8.06    0.46 
  -2 -14  -3    4.28    0.23 
  -2 -14  -3    3.97    0.25 
   2  14   3    3.94    0.27 
   2  14   3    3.61    0.25 
  -3 -14  -3    0.19    0.07 
  -3 -14  -3    0.14    0.05 
   3  14   3    0.16    0.10 
   3  14   3    0.20    0.09 
  -1 -15  -3    4.72    0.26 
   1  15   3    4.39    0.28 
  -2 -15  -3    0.83    0.10 
   2  15   3    0.96    0.15 
   1  14  -4    0.40    0.09 
  -3 -13   4    5.07    0.28 
   2  13  -4    2.60    0.19 
  -2 -13   4    2.51    0.18 
  -2 -13   4    2.39    0.18 
   1  13  -4   19.47    0.94 
  -1 -13   4   20.21    0.92 
  -1 -13   4   19.41    0.92 
   0  13  -4    4.74    0.29 
   0  13  -4    5.40    0.31 
   0 -13   4    5.45    0.30 
  -1  13  -4    0.21    0.08 
  -1  13  -4    0.15    0.09 
   1 -13   4    0.27    0.07 
   4  12  -4    0.19    0.08 
   4  12  -4    0.22    0.07 
  -4 -12   4    0.30    0.06 
   3  12  -4    8.51    0.45 
   3  12  -4    8.23    0.46 
   3  12  -4    8.72    0.47 
  -3 -12   4    8.76    0.43 
  -3 -12   4    8.98    0.45 
   2  12  -4    1.42    0.17 
   2  12  -4    1.35    0.17 
  -2 -12   4    1.55    0.15 
  -2 -12   4    1.44    0.15 
   1  12  -4    1.93    0.18 
  -1 -12   4    1.85    0.17 
  -1 -12   4    1.98    0.17 
   0  12  -4    3.76    0.25 
   0  12  -4    3.84    0.27 
   0 -12   4    3.99    0.25 
   0 -12   4    4.07    0.25 
  -1  12  -4    2.85    0.22 
  -1  12  -4    3.28    0.22 
   1 -12   4    3.55    0.22 
  -2  12  -4    0.01    0.07 
   2 -12   4    0.04    0.07 
   4  11  -4   12.94    0.66 
   4  11  -4   13.47    0.65 
   4  11  -4   12.59    0.65 
  -4 -11   4   13.72    0.65 
  -4 -11   4   14.10    0.63 
   3  11  -4    1.56    0.18 
   3  11  -4    1.58    0.16 
   3  11  -4    1.63    0.17 
   3  11  -4    1.49    0.18 
  -3 -11   4    1.39    0.13 
  -3 -11   4    1.33    0.14 
   2  11  -4   11.59    0.59 
   2  11  -4   11.45    0.59 
   2  11  -4    9.69    0.58 
   2  11  -4   11.59    0.61 
  -2 -11   4   11.53    0.55 
  -2 -11   4   11.53    0.58 
  -2 -11   4   11.91    0.59 
   1  11  -4    4.38    0.32 
  -1 -11   4    5.15    0.31 
  -1 -11   4    5.51    0.31 
   0  11  -4    8.38    0.46 
   0  11  -4    7.98    0.48 
   0 -11   4    9.16    0.46 
   0 -11   4    9.02    0.46 
  -1  11  -4    0.20    0.10 
  -1  11  -4    0.25    0.10 
   1 -11   4    0.39    0.09 
  -2  11  -4   10.07    0.48 
  -2  11  -4    8.04    0.47 
   2 -11   4    9.14    0.43 
   2 -11   4    9.26    0.47 
  -3  11  -4   13.05    0.62 
   5  10  -4    0.38    0.07 
   5  10  -4    0.47    0.10 
   4  10  -4   15.98    0.78 
   4  10  -4   15.79    0.77 
   4  10  -4   14.98    0.75 
   4  10  -4   15.02    0.76 
  -4 -10   4   15.49    0.72 
   3  10  -4    4.17    0.28 
   3  10  -4    4.22    0.29 
   3  10  -4    4.29    0.28 
   3  10  -4    4.30    0.31 
  -3 -10   4    4.16    0.24 
  -3 -10   4    3.79    0.27 
   2  10  -4   18.41    0.88 
   2  10  -4   17.72    0.89 
   2  10  -4   18.38    0.91 
   2  10  -4   17.52    0.89 
  -2 -10   4   18.53    0.85 
  -2 -10   4   18.60    0.88 
   1  10  -4   11.66    0.63 
   1  10  -4   11.36    0.62 
   1  10  -4   12.26    0.64 
  -1 -10   4   12.42    0.62 
  -1 -10   4   13.17    0.62 
   0  10  -4    0.29    0.11 
   0  10  -4    0.40    0.11 
   0 -10   4    0.39    0.09 
   0 -10   4    0.48    0.10 
  -1  10  -4    0.37    0.11 
  -1  10  -4    0.39    0.12 
   1 -10   4    0.48    0.10 
   1 -10   4    0.36    0.07 
  -2  10  -4    4.66    0.29 
  -2  10  -4    3.66    0.27 
   2 -10   4    4.15    0.23 
   2 -10   4    4.06    0.26 
  -3  10  -4   17.02    0.76 
   3 -10   4   14.13    0.74 
   3 -10   4   15.44    0.71 
   5   9  -4    0.16    0.07 
   5   9  -4    0.17    0.09 
   5   9  -4    0.11    0.07 
  -5  -9   4    0.13    0.05 
   4   9  -4   22.20    1.05 
   4   9  -4   21.14    1.03 
   4   9  -4   20.99    1.03 
   4   9  -4   22.69    1.07 
  -4  -9   4   21.80    0.99 
   3   9  -4   18.64    0.93 
   3   9  -4   17.64    0.91 
   3   9  -4   18.70    0.90 
   3   9  -4   18.78    0.90 
   3   9  -4   18.06    0.91 
  -3  -9   4   19.27    0.86 
  -3  -9   4   18.58    0.89 
   2   9  -4    4.43    0.29 
   2   9  -4    4.76    0.31 
   2   9  -4    4.18    0.28 
   2   9  -4    4.02    0.29 
  -2  -9   4    4.65    0.29 
  -2  -9   4    4.52    0.25 
   1   9  -4   19.08    1.19 
   1   9  -4   23.48    1.06 
   1   9  -4   21.68    1.03 
   1   9  -4   21.75    1.05 
  -1  -9   4   22.37    1.23 
  -1  -9   4   23.92    1.04 
  -1  -9   4   21.93    1.01 
  -1  -9   4   21.75    1.04 
   0   9  -4    0.03    0.10 
   0   9  -4    0.15    0.09 
   0  -9   4    0.13    0.19 
   0  -9   4    0.11    0.07 
   0  -9   4    0.16    0.08 
  -1   9  -4   33.55    1.49 
  -1   9  -4   31.54    1.49 
   1  -9   4   32.08    1.43 
   1  -9   4   31.00    1.47 
  -2   9  -4    1.34    0.17 
  -2   9  -4    1.10    0.17 
   2  -9   4    1.20    0.14 
   2  -9   4    1.24    0.11 
  -3   9  -4    1.75    0.25 
  -3   9  -4    1.44    0.23 
  -3   9  -4    2.31    0.19 
   3  -9   4    1.89    0.18 
   3  -9   4    2.10    0.13 
   3  -9   4    1.83    0.17 
  -4   9  -4    1.22    0.21 
  -4   9  -4    1.48    0.14 
   4  -9   4    1.43    0.10 
   4  -9   4    1.44    0.13 
   5   8  -4    9.49    0.48 
   5   8  -4    9.85    0.48 
   5   8  -4    9.59    0.51 
  -5  -8   4    9.17    0.45 
   4   8  -4    5.78    0.35 
   4   8  -4    5.42    0.33 
   4   8  -4    5.26    0.33 
   4   8  -4    4.82    0.38 
  -4  -8   4    5.63    0.29 
   3   8  -4   63.66    2.86 
   3   8  -4   61.66    2.84 
   3   8  -4   62.29    2.83 
   3   8  -4   64.80    2.83 
   3   8  -4   60.60    2.83 
  -3  -8   4   63.45    2.83 
  -3  -8   4   65.12    2.79 
   2   8  -4   29.81    1.60 
   2   8  -4   32.88    1.47 
   2   8  -4   31.61    1.47 
   2   8  -4   32.92    1.50 
   2   8  -4   32.82    1.50 
   2   8  -4   31.81    1.49 
  -2  -8   4   33.44    1.48 
  -2  -8   4   33.49    1.44 
  -2  -8   4   31.83    1.66 
  -2  -8   4   29.97    1.68 
   1   8  -4    0.11    0.11 
   1   8  -4    0.13    0.09 
   1   8  -4    0.20    0.08 
   1   8  -4    0.17    0.08 
  -1  -8   4    0.22    0.08 
  -1  -8   4    0.14    0.14 
  -1  -8   4    0.17    0.05 
   0   8  -4   12.19    0.69 
   0   8  -4   14.66    0.70 
   0   8  -4   13.83    0.78 
   0  -8   4   15.78    0.85 
   0  -8   4   13.64    0.68 
   0  -8   4   13.79    0.65 
   0  -8   4   15.30    0.69 
  -1   8  -4  175.18    7.21 
  -1   8  -4  162.53    7.21 
  -1   8  -4  146.73    7.29 
   1  -8   4  166.79    7.40 
   1  -8   4  165.75    7.16 
   1  -8   4  168.03    7.19 
  -2   8  -4   19.82    0.93 
  -2   8  -4   18.66    0.92 
   2  -8   4   18.71    0.94 
   2  -8   4   19.09    0.87 
   2  -8   4   19.03    0.91 
  -3   8  -4    5.30    0.33 
  -3   8  -4    4.88    0.33 
  -3   8  -4    5.87    0.35 
   3  -8   4    5.59    0.29 
   3  -8   4    5.82    0.28 
   3  -8   4    4.88    0.33 
   3  -8   4    5.50    0.33 
   3  -8   4    5.31    0.34 
  -4   8  -4   40.64    1.86 
  -4   8  -4   41.86    1.84 
   4  -8   4   41.64    1.81 
   4  -8   4   39.60    1.85 
   5   7  -4    0.19    0.07 
   5   7  -4    0.14    0.11 
   5   7  -4    0.20    0.08 
   4   7  -4    2.71    0.23 
   4   7  -4    2.49    0.20 
   4   7  -4    2.40    0.20 
  -4  -7   4    2.51    0.17 
   3   7  -4   16.34    0.76 
   3   7  -4   15.44    0.77 
   3   7  -4   14.66    1.00 
   3   7  -4   15.37    0.78 
   3   7  -4   16.44    0.80 
   3   7  -4   15.92    0.77 
  -3  -7   4   15.54    1.00 
  -3  -7   4   15.27    0.72 
   2   7  -4    0.79    0.24 
   2   7  -4    0.85    0.12 
   2   7  -4    0.81    0.14 
   2   7  -4    0.69    0.11 
   2   7  -4    0.90    0.12 
   2   7  -4    0.97    0.14 
   2   7  -4    0.76    0.19 
  -2  -7   4    1.00    0.24 
  -2  -7   4    0.70    0.20 
  -2  -7   4    0.79    0.09 
   1   7  -4    8.49    0.57 
   1   7  -4    8.19    0.50 
  -1  -7   4    7.45    0.52 
  -1  -7   4    8.56    0.55 
  -1  -7   4    7.46    0.38 
   0   7  -4    0.63    0.14 
   0  -7   4    0.73    0.17 
  -1   7  -4    0.14    0.08 
  -1   7  -4    0.22    0.12 
  -1   7  -4    0.27    0.10 
   1  -7   4    0.24    0.07 
   1  -7   4    0.21    0.05 
   1  -7   4    0.37    0.10 
   1  -7   4    0.15    0.11 
  -2   7  -4    7.99    0.42 
  -2   7  -4    7.57    0.41 
  -2   7  -4    6.96    0.49 
  -2   7  -4    7.43    0.39 
   2  -7   4    7.61    0.43 
   2  -7   4    7.82    0.55 
   2  -7   4    7.26    0.39 
   2  -7   4    6.09    0.41 
   2  -7   4    7.07    0.37 
   2  -7   4    7.36    0.36 
  -3   7  -4    9.34    0.48 
  -3   7  -4    8.54    0.49 
  -3   7  -4    9.60    0.51 
   3  -7   4    9.23    0.51 
   3  -7   4    9.45    0.45 
   3  -7   4    9.44    0.45 
   3  -7   4    8.49    0.44 
   3  -7   4    9.40    0.52 
  -4   7  -4    7.38    0.42 
  -4   7  -4    7.29    0.40 
   4  -7   4    7.35    0.37 
   4  -7   4    7.78    0.36 
   4  -7   4    6.72    0.41 
   4  -7   4    7.63    0.42 
   4  -7   4    7.24    0.36 
   5  -7   4    8.58    0.49 
   5   6  -4    2.41    0.24 
   5   6  -4    2.79    0.20 
   5   6  -4    2.65    0.19 
   4   6  -4    0.94    0.14 
   4   6  -4    0.89    0.13 
   4   6  -4    0.96    0.15 
   3   6  -4    4.70    0.32 
   3   6  -4    5.38    0.44 
   3   6  -4    4.99    0.31 
   3   6  -4    5.06    0.33 
   3   6  -4    5.47    0.30 
   3   6  -4    5.27    0.30 
   3   6  -4    4.84    0.47 
  -3  -6   4    4.11    0.26 
  -3  -6   4    4.70    0.46 
   2   6  -4    6.35    0.49 
   2   6  -4    6.78    0.43 
  -2  -6   4    5.67    0.46 
  -2  -6   4    5.76    0.31 
  -2  -6   4    6.92    0.49 
   1   6  -4    2.22    0.26 
   1   6  -4    2.36    0.21 
  -1  -6   4    2.21    0.14 
  -1  -6   4    2.52    0.25 
  -1  -6   4    2.60    0.26 
   0   6  -4    2.78    0.22 
   0  -6   4    2.80    0.25 
  -1   6  -4   15.39    0.81 
   1  -6   4   16.60    0.87 
  -2   6  -4   12.52    0.68 
  -2   6  -4   12.21    0.61 
  -2   6  -4   12.75    0.58 
   2  -6   4   12.32    0.57 
   2  -6   4   12.06    0.63 
   2  -6   4   12.02    0.58 
   2  -6   4   11.64    0.59 
   2  -6   4   11.18    0.62 
   2  -6   4   13.31    0.75 
  -3   6  -4   11.45    0.62 
  -3   6  -4   12.88    0.60 
   3  -6   4   12.32    0.58 
   3  -6   4   12.35    0.65 
   3  -6   4   12.42    0.58 
   3  -6   4   12.37    0.59 
   3  -6   4   12.25    0.65 
   3  -6   4   12.49    0.62 
  -4   6  -4    5.05    0.31 
   4  -6   4    5.52    0.28 
   4  -6   4    5.26    0.28 
   4  -6   4    5.35    0.34 
   4  -6   4    5.27    0.34 
   4  -6   4    5.22    0.27 
  -5   6  -4    1.23    0.14 
  -5   6  -4    1.20    0.16 
   5  -6   4    1.25    0.10 
   5  -6   4    1.12    0.10 
   5  -6   4    1.22    0.10 
   5  -6   4    1.26    0.13 
   5  -6   4    1.30    0.13 
   5   5  -4    0.18    0.08 
   5   5  -4    0.12    0.08 
   4   5  -4   48.37    2.20 
   4   5  -4   48.21    2.21 
   4   5  -4   49.65    2.19 
   3   5  -4   94.81    4.19 
   3   5  -4   95.39    4.20 
   3   5  -4   96.06    4.32 
   3   5  -4   99.05    4.19 
   3   5  -4   91.76    4.42 
   3   5  -4   95.02    4.21 
  -3  -5   4   93.10    4.42 
   2   5  -4   10.09    0.65 
   2   5  -4   10.85    0.58 
  -2  -5   4    9.46    0.64 
   1   5  -4   89.13    4.00 
   1   5  -4   88.66    3.93 
  -1  -5   4   86.67    4.00 
   0   5  -4   57.18    2.57 
   0   5  -4   58.99    2.61 
   0  -5   4   54.46    2.58 
   0  -5   4   58.04    2.63 
  -1   5  -4    3.29    0.24 
  -1   5  -4    3.63    0.26 
   1  -5   4    3.48    0.27 
   1  -5   4    3.37    0.22 
  -2   5  -4    3.14    0.18 
  -2   5  -4    3.17    0.30 
  -2   5  -4    3.12    0.26 
   2  -5   4    2.99    0.28 
   2  -5   4    3.07    0.24 
  -3   5  -4   15.07    0.87 
  -3   5  -4   17.63    0.77 
  -3   5  -4   15.93    0.97 
  -3   5  -4   16.15    0.79 
   3  -5   4   16.79    0.82 
   3  -5   4   15.34    0.88 
   3  -5   4   16.02    0.83 
   3  -5   4   16.95    0.75 
   3  -5   4   16.75    0.79 
   3  -5   4   15.94    0.86 
   3  -5   4   16.76    0.95 
   3  -5   4   16.18    0.75 
   3  -5   4   17.09    0.77 
  -4   5  -4   18.72    0.93 
  -4   5  -4   17.15    0.98 
   4  -5   4   20.91    0.99 
   4  -5   4   20.49    0.91 
   4  -5   4   20.50    0.92 
   4  -5   4   20.69    0.91 
   4  -5   4   21.24    1.00 
  -5   5  -4    0.10    0.09 
  -5   5  -4    0.05    0.07 
   5  -5   4   -0.01    0.07 
   5  -5   4    0.01    0.05 
   5  -5   4    0.01    0.07 
   5  -5   4   -0.02    0.05 
   5  -5   4    0.10    0.04 
   5   4  -4    2.13    0.20 
   4   4  -4    6.40    0.40 
   4   4  -4    7.29    0.39 
   4   4  -4    6.52    0.39 
   4   4  -4    7.14    0.38 
   3   4  -4   22.84    1.23 
  -3  -4   4   21.74    1.23 
   2   4  -4   35.42    1.76 
   2   4  -4   36.07    1.66 
  -2  -4   4   35.58    1.77 
   1   4  -4    2.34    0.22 
   1   4  -4    2.35    0.18 
  -1  -4   4    2.14    0.22 
   0   4  -4    2.75    0.19 
   0   4  -4    2.78    0.22 
   0  -4   4    2.58    0.22 
  -1   4  -4    7.22    0.40 
   1  -4   4    7.02    0.38 
   1  -4   4    7.41    0.43 
  -2   4  -4    0.45    0.11 
   2  -4   4    0.39    0.10 
   2  -4   4    0.47    0.13 
  -3   4  -4    2.74    0.16 
  -3   4  -4    2.47    0.32 
  -3   4  -4    2.88    0.27 
   3  -4   4    2.68    0.16 
   3  -4   4    3.13    0.30 
   3  -4   4    2.53    0.22 
   3  -4   4    2.59    0.17 
   3  -4   4    1.91    0.31 
   3  -4   4    2.46    0.23 
   3  -4   4    2.66    0.16 
   3  -4   4    2.37    0.23 
  -4   4  -4   18.49    0.86 
  -4   4  -4   17.22    0.90 
   4  -4   4   19.61    0.87 
   4  -4   4   19.39    0.86 
   4  -4   4   17.70    0.99 
   4  -4   4   18.86    0.86 
   4  -4   4   19.54    0.93 
   4  -4   4   19.27    0.95 
  -5   4  -4    0.23    0.07 
   5  -4   4    0.32    0.06 
   5  -4   4    0.22    0.08 
   5  -4   4    0.26    0.05 
   5  -4   4    0.22    0.09 
   5  -4   4    0.36    0.06 
   4   3  -4   37.18    1.62 
   4   3  -4   35.82    1.61 
   4   3  -4   31.50    1.82 
   4   3  -4   36.09    1.60 
  -4  -3   4   35.30    1.83 
  -3  -3   4    0.53    0.21 
   2   3  -4   18.91    1.01 
   2   3  -4   19.96    0.93 
  -2  -3   4   18.74    1.03 
   1   3  -4   13.19    0.64 
   1   3  -4   14.21    0.72 
  -1  -3   4   12.70    0.72 
   0   3  -4   48.41    2.06 
   0   3  -4   44.26    2.01 
   0  -3   4   44.37    1.98 
   0  -3   4   43.41    2.06 
  -1   3  -4    7.16    0.38 
   1  -3   4    7.20    0.38 
   1  -3   4    7.31    0.41 
  -2   3  -4   57.93    2.63 
   2  -3   4   59.59    2.64 
   2  -3   4   58.11    2.67 
  -3   3  -4  155.73    6.60 
  -3   3  -4  142.09    6.49 
   3  -3   4  140.60    6.57 
   3  -3   4  147.98    6.50 
   3  -3   4  152.10    6.65 
   3  -3   4  151.36    6.50 
   3  -3   4  150.25    6.51 
   3  -3   4  145.26    6.60 
   3  -3   4  156.82    6.56 
  -4   3  -4    1.35    0.12 
   4  -3   4    1.59    0.20 
   4  -3   4    1.59    0.12 
   4  -3   4    1.32    0.26 
   4  -3   4    1.65    0.12 
   4  -3   4    1.54    0.13 
   4  -3   4    1.52    0.18 
  -5   3  -4   46.65    2.20 
   5  -3   4   50.33    2.25 
   5  -3   4   51.87    2.20 
   5  -3   4   49.36    2.26 
   5  -3   4   49.19    2.20 
   5  -3   4   51.03    2.20 
   6  -3   4   21.33    0.98 
   4   2  -4   11.68    0.58 
   4   2  -4   11.10    0.57 
   4   2  -4   11.71    0.56 
  -4  -2   4   10.02    0.90 
   3   2  -4    3.74    0.35 
  -3  -2   4    4.19    0.42 
   2   2  -4  127.36    5.60 
   2   2  -4  134.59    5.70 
  -2  -2   4  119.67    5.72 
   1   2  -4   10.61    0.56 
   1   2  -4   10.28    0.49 
  -1  -2   4    9.68    0.57 
   0   2  -4   27.87    1.27 
   0   2  -4   29.54    1.31 
   0  -2   4   28.58    1.26 
   0  -2   4   26.65    1.31 
   1  -2   4    3.03    0.20 
   1  -2   4    3.74    0.22 
  -2   2  -4    3.53    0.23 
   2  -2   4    3.93    0.24 
   2  -2   4    3.29    0.25 
  -3   2  -4   31.28    1.38 
  -3   2  -4   25.58    1.28 
   3  -2   4   29.64    1.39 
   3  -2   4   29.90    1.41 
  -4   2  -4    2.42    0.15 
  -4   2  -4    2.40    0.48 
  -4   2  -4    2.59    0.30 
   4  -2   4    2.37    0.16 
   4  -2   4    1.92    0.32 
   4  -2   4    2.40    0.34 
   4  -2   4    2.59    0.16 
   4  -2   4    2.37    0.15 
   4  -2   4    2.49    0.21 
   4  -2   4    2.58    0.24 
  -5   2  -4    2.85    0.19 
   5  -2   4    3.21    0.24 
   5  -2   4    3.27    0.19 
   5  -2   4    3.01    0.25 
   5  -2   4    3.26    0.18 
   6  -2   4    4.30    0.26 
   6  -2   4    4.31    0.24 
   6  -2   4    4.81    0.27 
   6  -2   4    4.99    0.23 
   4   1  -4    9.95    0.51 
   4   1  -4    9.52    0.69 
   4   1  -4   10.08    0.52 
   4   1  -4    9.77    0.47 
  -4  -1   4    9.72    0.81 
   3   1  -4   45.57    2.17 
   3   1  -4   47.44    2.18 
  -3  -1   4   44.76    2.24 
  -3  -1   4   43.03    2.15 
   2   1  -4   49.14    2.15 
   2   1  -4   45.89    2.20 
   2   1  -4   49.63    2.23 
  -2  -1   4   48.25    2.16 
  -2  -1   4   45.60    2.25 
   1   1  -4  316.44   12.42 
   1   1  -4  267.11   12.54 
  -1  -1   4  274.50   12.43 
  -1  -1   4  275.87   12.34 
   0   1  -4  122.79    5.56 
   0   1  -4  132.91    5.52 
   0  -1   4  131.09    5.54 
   0  -1   4  119.20    5.57 
  -1   1  -4   46.80    2.08 
  -1   1  -4   44.67    2.09 
   1  -1   4   49.59    2.10 
   1  -1   4   47.14    2.10 
  -2   1  -4    0.14    0.06 
   2  -1   4    0.05    0.05 
   2  -1   4    0.08    0.05 
  -3   1  -4    0.34    0.10 
   3  -1   4    0.35    0.11 
   3  -1   4    0.34    0.10 
  -4   1  -4    6.07    0.44 
   4  -1   4    5.70    0.40 
   4  -1   4    6.07    0.49 
   4  -1   4    6.59    0.42 
   4  -1   4    6.27    0.32 
   4  -1   4    7.17    0.39 
   4  -1   4    6.95    0.33 
  -5   1  -4   -0.06    0.05 
   5  -1   4    0.05    0.04 
   5  -1   4    0.03    0.10 
   5  -1   4    0.03    0.05 
   5  -1   4    0.05    0.08 
  -6   1  -4    0.86    0.11 
   6  -1   4    0.87    0.13 
   6  -1   4    0.97    0.08 
   6  -1   4    0.89    0.11 
   6  -1   4    0.90    0.10 
   5   0  -4   37.88    1.69 
   5   0  -4   38.13    1.70 
   4   0  -4    3.28    0.26 
   4   0  -4    4.30    0.28 
   4   0  -4    4.30    0.23 
   4   0  -4    3.70    0.44 
   4   0  -4    4.61    0.23 
  -4   0   4    4.30    0.54 
   3   0  -4  105.58    4.96 
   3   0  -4  110.39    4.97 
  -3   0   4  114.40    4.94 
   2   0  -4  163.92    7.40 
   2   0  -4  170.71    7.42 
  -2   0   4  168.43    7.37 
   1   0  -4   57.68    2.56 
   1   0  -4   54.48    2.54 
  -1   0   4   58.02    2.52 
   0   0  -4  579.08   26.15 
   0   0  -4  584.45   25.39 
   0   0   4  579.40   25.63 
   0   0   4  567.62   25.91 
  -1   0  -4  289.49   13.18 
  -1   0  -4  277.94   13.00 
   1   0   4  291.38   13.54 
   1   0   4  336.49   13.48 
  -2   0  -4   57.80    2.75 
  -2   0  -4   63.12    2.76 
   2   0   4   60.09    2.76 
   2   0   4   67.87    2.79 
  -3   0  -4    0.52    0.11 
   3   0   4    0.36    0.10 
  -4   0  -4   76.79    3.53 
   4   0   4   77.53    3.56 
   4   0   4   78.76    3.42 
   4   0   4   77.62    3.52 
   4   0   4   77.31    3.41 
   4   0   4   81.93    3.48 
   4   0   4   74.08    3.50 
   5   0   4   17.43    0.83 
   5   0   4   16.64    0.85 
   5   0   4   16.63    0.78 
   5   0   4   16.52    0.94 
   5   0   4   16.75    0.77 
   6   0   4    0.85    0.08 
   6   0   4    0.99    0.11 
   6   0   4    0.61    0.11 
   5  -1  -4    3.05    0.25 
   5  -1  -4    3.53    0.20 
   5  -1  -4    3.54    0.18 
   5  -1  -4    3.23    0.21 
   4  -1  -4    0.03    0.20 
   4  -1  -4    0.07    0.06 
   4  -1  -4    0.10    0.04 
   4  -1  -4    0.06    0.09 
   4  -1  -4    0.07    0.05 
  -4   1   4    0.31    0.23 
   3  -1  -4    1.75    0.23 
  -3   1   4    2.26    0.24 
   2  -1  -4   38.86    1.86 
   2  -1  -4   40.78    1.88 
  -2   1   4   41.02    1.86 
   1  -1  -4  208.57    9.01 
   1  -1  -4  200.80    9.03 
  -1   1   4  208.25    9.01 
   0  -1  -4   20.94    0.95 
   0  -1  -4   20.71    0.91 
   0  -1  -4   20.42    0.98 
   0   1   4   20.99    0.98 
  -1  -1  -4  135.25    6.02 
  -1  -1  -4  140.82    6.05 
   1   1   4  146.75    6.06 
   1   1   4  129.75    6.05 
  -2  -1  -4    6.41    0.34 
  -2  -1  -4    6.97    0.36 
   2   1   4    5.94    0.32 
   2   1   4    6.67    0.40 
   2   1   4    7.09    0.36 
  -3  -1  -4   29.53    1.41 
   3   1   4   31.53    1.43 
  -4  -1  -4    0.56    0.14 
   4   1   4    0.56    0.07 
   4   1   4    0.75    0.13 
   4   1   4    0.62    0.08 
   4   1   4    0.48    0.14 
   4   1   4    0.74    0.15 
   4   1   4    0.96    0.20 
   5   1   4    1.44    0.28 
   5   1   4    1.58    0.20 
   5   1   4    1.31    0.16 
   5   1   4    1.87    0.12 
   6   1   4    9.07    0.48 
   6   1   4    9.02    0.47 
   6   1   4    9.42    0.43 
   5  -2  -4    0.20    0.11 
   5  -2  -4    0.35    0.07 
   5  -2  -4    0.35    0.07 
   5  -2  -4    0.33    0.05 
   4  -2  -4    8.71    0.43 
   4  -2  -4    8.71    0.41 
   4  -2  -4    8.35    0.47 
   4  -2  -4    9.06    0.42 
   3  -2  -4   31.59    1.54 
  -3   2   4   30.26    1.53 
   2  -2  -4   65.95    2.94 
   2  -2  -4   63.38    2.93 
  -2   2   4   64.44    2.93 
   1  -2  -4   14.66    0.75 
   1  -2  -4   14.37    0.72 
  -1   2   4   15.39    0.73 
   0  -2  -4    0.30    0.05 
   0  -2  -4    0.13    0.07 
   0   2   4    0.26    0.04 
   0   2   4    0.16    0.08 
  -1  -2  -4   49.65    2.19 
   1   2   4   47.26    2.17 
   1   2   4   49.21    2.21 
  -2  -2  -4    0.96    0.12 
   2   2   4    1.01    0.11 
   2   2   4    0.92    0.13 
  -3  -2  -4    0.22    0.08 
  -3  -2  -4    0.34    0.11 
   3   2   4    0.26    0.09 
   3   2   4    0.24    0.12 
  -4  -2  -4   19.59    0.97 
   4   2   4   19.89    0.93 
   4   2   4   18.54    0.93 
   4   2   4   18.25    0.86 
   4   2   4   18.42    0.96 
   4   2   4   19.12    0.96 
   4   2   4   19.14    0.98 
   5   2   4    0.55    0.19 
   6   2   4    0.69    0.12 
   6   2   4    0.92    0.13 
   5  -3  -4    1.71    0.19 
   5  -3  -4    2.15    0.14 
   5  -3  -4    2.27    0.13 
   5  -3  -4    2.09    0.15 
  -5   3   4    1.90    0.16 
   4  -3  -4   67.01    2.99 
   4  -3  -4   68.29    3.05 
   4  -3  -4   68.05    3.00 
   4  -3  -4   69.67    3.00 
   4  -3  -4   67.42    3.03 
   3  -3  -4  105.90    4.75 
   3  -3  -4  109.73    4.76 
   3  -3  -4  107.33    4.94 
   3  -3  -4  111.07    4.75 
   3  -3  -4  111.21    4.79 
  -3   3   4  107.96    4.94 
   2  -3  -4    6.83    0.41 
   2  -3  -4    6.13    0.40 
  -2   3   4    6.32    0.42 
   1  -3  -4  124.56    5.46 
   1  -3  -4  120.32    5.42 
  -1   3   4  123.95    5.44 
   0  -3  -4   39.60    1.81 
   0  -3  -4   39.02    1.77 
   0   3   4   39.51    1.82 
   0   3   4   40.88    1.76 
  -1  -3  -4    0.49    0.09 
   1   3   4    0.61    0.12 
   1   3   4    0.49    0.08 
  -2  -3  -4    0.26    0.09 
   2   3   4    0.35    0.08 
   2   3   4    0.15    0.07 
  -3  -3  -4   24.24    1.19 
   3   3   4   23.54    1.20 
   3   3   4   23.69    1.13 
  -4  -3  -4   53.71    2.42 
   4   3   4   52.96    2.38 
   4   3   4   50.33    2.32 
   4   3   4   50.70    2.41 
   4   3   4   54.30    2.42 
   4   3   4   53.57    2.43 
   4   3   4   53.86    2.38 
   4   3   4   51.34    2.56 
   5   3   4    1.80    0.18 
   5   3   4    2.12    0.32 
   5   3   4    2.00    0.23 
   6   3   4   10.05    0.50 
   6   3   4    9.76    0.52 
   5  -4  -4   20.45    0.92 
   5  -4  -4   19.50    0.93 
   5  -4  -4   20.30    0.97 
   5  -4  -4   20.23    0.92 
   5  -4  -4   20.91    0.91 
  -5   4   4   20.28    0.93 
   4  -4  -4   27.91    1.24 
   4  -4  -4   28.55    1.30 
   4  -4  -4   28.03    1.25 
   4  -4  -4   28.02    1.25 
   4  -4  -4   28.01    1.28 
  -4   4   4   25.97    1.25 
   3  -4  -4    0.36    0.06 
   3  -4  -4    0.37    0.06 
   3  -4  -4    0.35    0.15 
   3  -4  -4    0.50    0.09 
   3  -4  -4    0.30    0.10 
   3  -4  -4    0.48    0.09 
   3  -4  -4    0.52    0.07 
  -3   4   4    0.36    0.06 
  -3   4   4    0.27    0.16 
   2  -4  -4   89.01    3.94 
  -2   4   4   85.46    3.96 
   1  -4  -4   34.89    1.63 
   1  -4  -4   35.95    1.68 
  -1   4   4   34.82    1.65 
   0  -4  -4    0.56    0.08 
   0  -4  -4    0.78    0.11 
   0   4   4    0.50    0.07 
   0   4   4    0.98    0.16 
  -1  -4  -4    1.05    0.13 
   1   4   4    1.02    0.11 
   1   4   4    0.87    0.15 
  -2  -4  -4   30.72    1.46 
   2   4   4   29.80    1.43 
   2   4   4   30.99    1.41 
  -3  -4  -4    5.20    0.37 
   3   4   4    4.69    0.36 
   3   4   4    4.90    0.31 
  -4  -4  -4   19.41    0.97 
   4   4   4   19.04    0.96 
   4   4   4   19.16    0.93 
   4   4   4   18.93    1.09 
   4   4   4   18.36    0.97 
   4   4   4   18.80    0.92 
   5   4   4   18.12    0.97 
   5   4   4   17.00    0.91 
   5   4   4   18.25    0.90 
   5   4   4   17.17    0.86 
   6   4   4    0.27    0.18 
   6   4   4    0.09    0.09 
   5  -5  -4   11.01    0.48 
   5  -5  -4    9.80    0.49 
   5  -5  -4   10.29    0.49 
   5  -5  -4   10.31    0.53 
   5  -5  -4   10.33    0.48 
  -5   5   4    9.24    0.55 
  -5   5   4   11.06    0.51 
   4  -5  -4    5.75    0.30 
   4  -5  -4    5.77    0.29 
   4  -5  -4    5.81    0.29 
   4  -5  -4    5.55    0.34 
   4  -5  -4    5.81    0.33 
  -4   5   4    5.60    0.31 
   3  -5  -4    8.07    0.37 
   3  -5  -4    7.76    0.37 
   3  -5  -4    7.39    0.54 
   3  -5  -4    7.82    0.41 
   3  -5  -4    7.07    0.43 
   3  -5  -4    7.51    0.38 
   3  -5  -4    7.93    0.41 
  -3   5   4    7.42    0.38 
   2  -5  -4   12.14    0.67 
  -2   5   4   11.73    0.69 
  -2   5   4   11.13    0.54 
   1  -5  -4    6.47    0.38 
   1  -5  -4    6.09    0.44 
  -1   5   4    6.26    0.41 
   0  -5  -4    4.29    0.30 
   0  -5  -4    4.89    0.28 
   0   5   4    4.80    0.25 
   0   5   4    4.51    0.32 
  -1  -5  -4    3.93    0.28 
  -1  -5  -4    3.62    0.21 
   1   5   4    3.69    0.31 
   1   5   4    4.04    0.24 
  -2  -5  -4   98.60    4.59 
   2   5   4  103.80    4.54 
   2   5   4  104.73    4.56 
  -3  -5  -4  152.98    6.89 
   3   5   4  153.90    6.78 
   3   5   4  155.24    6.86 
  -4  -5  -4    8.53    0.64 
   4   5   4    9.53    0.57 
   4   5   4    9.28    0.53 
   4   5   4   10.37    0.68 
   4   5   4   11.00    0.57 
   5   5   4   29.33    1.38 
   5   5   4   26.84    1.34 
   5   5   4   28.23    1.35 
   5   5   4   28.92    1.42 
   6   5   4   23.66    1.22 
   6   5   4   25.18    1.15 
   5  -6  -4    6.55    0.35 
   5  -6  -4    6.47    0.32 
   5  -6  -4    6.16    0.30 
   5  -6  -4    6.13    0.31 
   5  -6  -4    6.48    0.31 
  -5   6   4    6.26    0.38 
  -5   6   4    6.83    0.35 
   4  -6  -4   18.85    0.85 
   4  -6  -4   17.97    0.87 
   4  -6  -4   18.93    0.90 
   4  -6  -4   18.62    0.84 
   4  -6  -4   18.35    0.84 
  -4   6   4   18.38    0.87 
   3  -6  -4    3.45    0.19 
   3  -6  -4    3.03    0.25 
   3  -6  -4    3.41    0.23 
   3  -6  -4    3.38    0.20 
   3  -6  -4    3.30    0.22 
   3  -6  -4    3.43    0.19 
  -3   6   4    3.27    0.21 
   2  -6  -4   56.73    2.44 
   2  -6  -4   52.00    2.56 
   2  -6  -4   49.78    2.43 
   2  -6  -4   56.64    2.43 
   2  -6  -4   52.47    2.40 
   2  -6  -4   61.53    2.43 
   2  -6  -4   52.79    2.40 
  -2   6   4   53.43    2.42 
  -2   6   4   56.62    2.61 
   1  -6  -4   20.62    1.06 
  -1   6   4   22.71    1.11 
   0  -6  -4    6.03    0.40 
   0  -6  -4    6.36    0.38 
   0   6   4    6.80    0.44 
   0   6   4    7.12    0.36 
  -1  -6  -4    2.15    0.21 
   1   6   4    2.32    0.18 
   1   6   4    2.22    0.26 
  -2  -6  -4    0.28    0.11 
   2   6   4    0.37    0.11 
   2   6   4    0.31    0.09 
  -3  -6  -4    2.57    0.27 
  -3  -6  -4    1.92    0.12 
   3   6   4    2.38    0.25 
  -4  -6  -4   14.02    0.94 
   4   6   4   14.26    0.80 
   4   6   4   16.71    0.77 
   4   6   4   16.42    0.96 
   4   6   4   15.87    0.84 
   4   6   4   18.62    0.84 
   5   6   4    0.46    0.14 
   6   6   4    7.25    0.45 
   6   6   4    7.27    0.48 
   5  -7  -4   15.36    0.73 
   5  -7  -4   17.43    0.73 
   5  -7  -4   15.77    0.73 
   4  -7  -4    0.36    0.08 
   4  -7  -4    0.25    0.06 
   4  -7  -4    0.18    0.05 
   4  -7  -4    0.32    0.07 
   4  -7  -4    0.27    0.08 
  -4   7   4    0.23    0.08 
  -4   7   4    0.49    0.15 
   3  -7  -4   32.52    1.45 
   3  -7  -4   31.53    1.40 
   3  -7  -4   32.46    1.41 
   3  -7  -4   31.94    1.44 
   3  -7  -4   28.78    1.46 
   3  -7  -4   31.14    1.40 
  -3   7   4   31.76    1.44 
   2  -7  -4    2.12    0.26 
   2  -7  -4    1.96    0.13 
   2  -7  -4    2.02    0.17 
   2  -7  -4    1.82    0.14 
   2  -7  -4    2.05    0.16 
   2  -7  -4    1.84    0.13 
   2  -7  -4    1.96    0.16 
  -2   7   4    1.66    0.32 
  -2   7   4    2.01    0.16 
   1  -7  -4   24.95    1.27 
  -1   7   4   27.22    1.32 
  -1   7   4   25.09    1.17 
   0  -7  -4    9.89    0.60 
   0  -7  -4   10.66    0.58 
   0   7   4   10.80    0.66 
   0   7   4   10.77    0.54 
  -1  -7  -4    3.19    0.27 
   1   7   4    2.92    0.31 
   1   7   4    3.01    0.22 
  -2  -7  -4   12.53    0.71 
  -2  -7  -4   11.57    0.53 
   2   7   4   10.99    0.63 
  -3  -7  -4    3.69    0.19 
  -3  -7  -4    3.94    0.37 
   3   7   4    3.89    0.27 
   3   7   4    3.68    0.23 
   3   7   4    3.79    0.26 
   3   7   4    3.71    0.29 
   3   7   4    3.77    0.33 
  -4  -7  -4   14.26    0.69 
   4   7   4   15.77    0.76 
   4   7   4   15.96    0.80 
   4   7   4   15.41    0.73 
   4   7   4   14.43    0.81 
   5   7   4    1.36    0.21 
   5   7   4    1.00    0.19 
   5   7   4    1.36    0.19 
   6   7   4    1.20    0.21 
   6   7   4    1.14    0.18 
   4  -8  -4    3.68    0.20 
   4  -8  -4    3.56    0.20 
   4  -8  -4    3.63    0.24 
   4  -8  -4    3.74    0.22 
   4  -8  -4    3.65    0.21 
  -4   8   4    3.78    0.25 
  -4   8   4    3.76    0.30 
   3  -8  -4    0.07    0.05 
   3  -8  -4    0.13    0.06 
   3  -8  -4    0.13    0.05 
   3  -8  -4    0.05    0.11 
   3  -8  -4    0.12    0.07 
   3  -8  -4    0.18    0.07 
  -3   8   4    0.06    0.07 
  -3   8   4    0.15    0.10 
  -3   8   4    0.19    0.14 
   2  -8  -4  136.12    5.96 
   2  -8  -4  138.66    6.00 
   2  -8  -4  139.67    6.01 
   2  -8  -4  130.43    6.01 
   2  -8  -4  133.04    5.96 
  -2   8   4  132.09    6.00 
  -2   8   4  136.56    6.00 
  -2   8   4  147.12    6.08 
   1  -8  -4   31.72    1.47 
   1  -8  -4   33.62    1.48 
   1  -8  -4   30.90    1.46 
   1  -8  -4   31.65    1.58 
   1  -8  -4   28.16    1.45 
  -1   8   4   35.93    1.54 
  -1   8   4   31.96    1.47 
  -1   8   4   33.91    1.65 
  -1   8   4   33.53    1.47 
   0  -8  -4    0.35    0.20 
   0  -8  -4    0.42    0.12 
   0   8   4    0.39    0.13 
   0   8   4    0.34    0.23 
  -1  -8  -4    4.07    0.22 
  -1  -8  -4    4.66    0.37 
   1   8   4    4.58    0.30 
  -2  -8  -4  127.20    5.72 
  -2  -8  -4  122.24    5.50 
   2   8   4  133.73    5.58 
   2   8   4  122.95    5.62 
   2   8   4  131.02    5.54 
   2   8   4  119.30    5.56 
  -3  -8  -4    3.57    0.21 
  -3  -8  -4    3.56    0.39 
   3   8   4    3.89    0.35 
   3   8   4    4.74    0.28 
   3   8   4    3.77    0.30 
   3   8   4    4.09    0.25 
   3   8   4    4.67    0.29 
  -4  -8  -4   26.92    1.20 
   4   8   4   25.52    1.29 
   4   8   4   27.04    1.27 
   4   8   4   27.05    1.33 
   4   8   4   27.98    1.25 
  -5  -8  -4   32.86    1.45 
   5   8   4   31.57    1.52 
   5   8   4   33.58    1.55 
   5   8   4   32.49    1.58 
   6   8   4    0.25    0.15 
   6   8   4    0.43    0.13 
   4  -9  -4    0.15    0.07 
   4  -9  -4    0.20    0.05 
   4  -9  -4    0.20    0.04 
   4  -9  -4    0.20    0.06 
  -4   9   4    0.24    0.12 
   3  -9  -4    0.35    0.08 
   3  -9  -4    0.34    0.06 
   3  -9  -4    0.25    0.06 
   3  -9  -4    0.23    0.07 
   3  -9  -4    0.31    0.08 
  -3   9   4    0.34    0.11 
  -3   9   4    0.24    0.10 
  -3   9   4    0.26    0.15 
   2  -9  -4    0.86    0.09 
   2  -9  -4    0.86    0.12 
   2  -9  -4    0.85    0.10 
   2  -9  -4    0.93    0.12 
   2  -9  -4    0.85    0.13 
  -2   9   4    0.89    0.14 
  -2   9   4    0.73    0.18 
  -2   9   4    0.65    0.12 
   1  -9  -4    0.23    0.07 
   1  -9  -4    0.24    0.07 
   1  -9  -4    0.32    0.16 
   1  -9  -4    0.32    0.07 
  -1   9   4    0.35    0.09 
  -1   9   4    0.36    0.16 
   0  -9  -4    4.58    0.26 
   0  -9  -4    4.67    0.26 
   0  -9  -4    3.98    0.26 
   0   9   4    5.12    0.29 
   0   9   4    5.12    0.38 
  -1  -9  -4   37.30    1.64 
  -1  -9  -4   34.62    1.62 
  -1  -9  -4   37.72    1.82 
  -1  -9  -4   33.77    1.61 
   1   9   4   39.54    1.66 
   1   9   4   36.47    1.65 
   1   9   4   36.99    1.66 
   1   9   4   32.77    1.73 
   1   9   4   38.38    1.73 
  -2  -9  -4    2.57    0.32 
  -2  -9  -4    2.53    0.17 
  -2  -9  -4    2.55    0.15 
   2   9   4    1.97    0.21 
   2   9   4    2.49    0.20 
   2   9   4    2.77    0.27 
   2   9   4    2.55    0.22 
   2   9   4    2.59    0.19 
  -3  -9  -4   22.63    1.09 
  -3  -9  -4   22.66    1.10 
   3   9   4   22.46    1.11 
   3   9   4   25.15    1.16 
   3   9   4   26.52    1.14 
   3   9   4   24.71    1.13 
   3   9   4   25.13    1.19 
  -4  -9  -4   10.83    0.53 
   4   9   4   11.45    0.65 
   4   9   4   11.41    0.57 
   4   9   4   10.97    0.58 
   4   9   4   10.91    0.61 
  -5  -9  -4   12.01    0.54 
   5   9   4   12.64    0.63 
   5   9   4   11.15    0.64 
   5   9   4   11.14    0.60 
   5   9   4   10.53    0.56 
   6   9   4    9.20    0.47 
   6   9   4    7.86    0.52 
   3 -10  -4   14.31    0.64 
   3 -10  -4   13.62    0.63 
   3 -10  -4   14.26    0.67 
  -3  10   4   13.33    0.67 
  -3  10   4   13.93    0.75 
   2 -10  -4    0.01    0.08 
   2 -10  -4    0.10    0.06 
  -2  10   4    0.17    0.09 
  -2  10   4    0.06    0.15 
   1 -10  -4    0.24    0.07 
   1 -10  -4    0.25    0.08 
  -1  10   4    0.39    0.18 
  -1  10   4    0.20    0.10 
   0 -10  -4    0.26    0.07 
   0 -10  -4    0.26    0.07 
   0  10   4    0.35    0.10 
   0  10   4    0.32    0.18 
  -1 -10  -4    3.31    0.21 
  -1 -10  -4    2.99    0.20 
   1  10   4    3.53    0.24 
   1  10   4    2.69    0.36 
   1  10   4    3.44    0.25 
   1  10   4    3.29    0.31 
   1  10   4    3.49    0.23 
  -2 -10  -4   11.94    0.59 
  -2 -10  -4   11.70    0.61 
   2  10   4   12.82    0.64 
   2  10   4   13.64    0.64 
   2  10   4   12.97    0.67 
  -3 -10  -4    8.57    0.42 
  -3 -10  -4    7.51    0.43 
   3  10   4    9.19    0.48 
   3  10   4    9.30    0.47 
   3  10   4    9.26    0.49 
   3  10   4    8.21    0.52 
  -4 -10  -4    8.30    0.43 
   4  10   4    9.58    0.50 
   4  10   4    9.27    0.52 
   4  10   4    8.32    0.54 
   4  10   4    9.35    0.48 
  -5 -10  -4    7.65    0.40 
  -5 -10  -4    7.12    0.39 
   5  10   4    7.76    0.46 
   5  10   4    9.42    0.43 
   5  10   4    8.86    0.49 
   3 -11  -4   30.27    1.44 
  -3  11   4   33.52    1.51 
   2 -11  -4    7.43    0.42 
   2 -11  -4    7.64    0.44 
  -2  11   4    9.76    0.55 
  -2  11   4    8.51    0.45 
   1 -11  -4   16.13    0.80 
   1 -11  -4   15.19    0.78 
  -1  11   4   18.00    0.91 
  -1  11   4   16.98    0.81 
   0 -11  -4   31.06    1.41 
   0 -11  -4   30.43    1.42 
   0  11   4   30.93    1.45 
   0  11   4   31.72    1.54 
  -1 -11  -4   11.18    0.51 
  -1 -11  -4    9.34    0.50 
   1  11   4   10.54    0.55 
   1  11   4    8.92    0.63 
   1  11   4   10.32    0.53 
  -2 -11  -4    4.55    0.27 
  -2 -11  -4    4.43    0.26 
  -2 -11  -4    4.67    0.28 
   2  11   4    5.06    0.31 
   2  11   4    5.18    0.31 
   2  11   4    5.24    0.35 
  -3 -11  -4    9.77    0.44 
  -3 -11  -4    8.82    0.45 
   3  11   4    8.50    0.50 
   3  11   4    9.08    0.48 
   3  11   4    9.14    0.53 
   3  11   4    7.93    0.47 
  -4 -11  -4   15.56    0.70 
   4  11   4   15.38    0.80 
   4  11   4   14.35    0.77 
   4  11   4   15.02    0.73 
   4  11   4   14.74    0.75 
  -5 -11  -4    1.92    0.13 
  -5 -11  -4    1.52    0.11 
   5  11   4    1.47    0.18 
   2 -12  -4   10.49    0.53 
   2 -12  -4   10.82    0.56 
  -2  12   4   11.64    0.55 
   1 -12  -4    8.49    0.46 
   1 -12  -4    8.98    0.48 
  -1  12   4    9.04    0.49 
  -1  12   4   10.16    0.59 
   0 -12  -4    2.88    0.21 
   0 -12  -4    3.32    0.22 
   0  12   4    2.83    0.34 
   0  12   4    3.56    0.25 
  -1 -12  -4    0.01    0.05 
  -1 -12  -4    0.10    0.08 
   1  12   4    0.08    0.09 
   1  12   4    0.16    0.10 
  -2 -12  -4   16.93    0.81 
  -2 -12  -4   16.69    0.81 
   2  12   4   17.31    0.84 
   2  12   4   17.47    0.84 
   2  12   4   17.18    0.87 
  -3 -12  -4    0.63    0.09 
  -3 -12  -4    0.81    0.09 
   3  12   4    0.56    0.15 
   3  12   4    1.13    0.16 
  -4 -12  -4    1.69    0.12 
  -4 -12  -4    1.71    0.14 
   4  12   4    1.70    0.18 
   4  12   4    1.44    0.18 
   4  12   4    1.68    0.21 
   4  12   4    1.64    0.16 
   5  12   4    9.07    0.50 
   5  12   4    9.41    0.48 
   2 -13  -4    0.77    0.09 
  -2  13   4    0.56    0.16 
   1 -13  -4    8.07    0.44 
   1 -13  -4    9.18    0.47 
  -1  13   4    9.09    0.48 
  -1  13   4   10.20    0.57 
   0 -13  -4    5.86    0.34 
   0 -13  -4    6.78    0.36 
   0  13   4    6.46    0.56 
   0  13   4    6.92    0.38 
  -1 -13  -4   12.82    0.63 
   1  13   4   13.19    0.68 
  -2 -13  -4    4.85    0.27 
  -2 -13  -4    4.39    0.26 
   2  13   4    4.37    0.29 
   2  13   4    4.45    0.31 
  -3 -13  -4   26.19    1.16 
  -3 -13  -4   23.91    1.15 
   3  13   4   24.79    1.20 
   3  13   4   25.56    1.22 
   3  13   4   26.83    1.19 
  -4 -13  -4   16.46    0.78 
   4  13   4   16.13    0.82 
   4  13   4   15.86    0.82 
   4  13   4   18.89    0.81 
   4  13   4   16.84    0.80 
   1 -14  -4   14.01    0.71 
  -1  14   4   13.74    0.67 
   0 -14  -4    0.07    0.06 
   0  14   4    0.01    0.08 
  -1 -14  -4    5.68    0.31 
   1  14   4    5.35    0.34 
  -2 -14  -4    1.58    0.13 
   2  14   4    1.67    0.18 
   2  14   4    1.92    0.17 
  -3 -14  -4    0.10    0.05 
  -3 -14  -4    0.21    0.07 
   3  14   4    0.01    0.09 
   3  14   4    0.08    0.08 
  -1 -15  -4    0.65    0.09 
   1  15   4    0.66    0.12 
  -2 -15  -4    3.22    0.19 
   2  15   4    3.58    0.24 
  -3 -13   5    5.23    0.28 
   2  13  -5    0.36    0.08 
  -2 -13   5    0.40    0.08 
  -2 -13   5    0.38    0.07 
   1  13  -5    0.38    0.09 
  -1 -13   5    0.31    0.07 
  -1 -13   5    0.35    0.08 
   0  13  -5    1.03    0.13 
   0 -13   5    1.12    0.12 
   1 -13   5    3.65    0.22 
   3  12  -5   10.98    0.53 
   3  12  -5   10.69    0.55 
  -3 -12   5   10.72    0.54 
   2  12  -5   13.43    0.69 
  -2 -12   5   14.38    0.68 
  -2 -12   5   13.84    0.68 
   1  12  -5    0.08    0.08 
  -1 -12   5    0.06    0.07 
  -1 -12   5    0.02    0.07 
   0  12  -5    3.55    0.24 
   0  12  -5    2.84    0.21 
   0 -12   5    3.32    0.22 
  -1  12  -5    3.57    0.23 
  -1  12  -5    3.94    0.25 
   1 -12   5    4.12    0.24 
  -2  12  -5    2.25    0.16 
   2 -12   5    2.17    0.16 
   4  11  -5   16.87    0.78 
   4  11  -5   16.14    0.78 
   4  11  -5   15.95    0.79 
  -4 -11   5   17.56    0.76 
  -4 -11   5   16.08    0.78 
   3  11  -5    6.08    0.36 
   3  11  -5    5.93    0.34 
   3  11  -5    5.86    0.36 
   3  11  -5    5.54    0.35 
  -3 -11   5    6.41    0.32 
  -3 -11   5    5.67    0.34 
  -3 -11   5    6.34    0.34 
   2  11  -5    1.06    0.15 
   2  11  -5    1.04    0.16 
   2  11  -5    1.23    0.15 
  -2 -11   5    1.32    0.14 
  -2 -11   5    1.09    0.15 
   1  11  -5    8.48    0.48 
  -1 -11   5    9.29    0.48 
  -1 -11   5    8.54    0.47 
   0  11  -5   17.14    0.87 
   0  11  -5   16.70    0.85 
   0 -11   5   18.13    0.86 
   0 -11   5   19.18    0.85 
  -1  11  -5   11.42    0.60 
  -1  11  -5   11.72    0.59 
   1 -11   5   11.89    0.60 
   1 -11   5   11.90    0.55 
  -2  11  -5    1.48    0.15 
  -2  11  -5    1.24    0.15 
   2 -11   5    1.55    0.11 
   2 -11   5    1.50    0.15 
   4  10  -5    8.45    0.46 
   4  10  -5    8.82    0.46 
   4  10  -5    9.21    0.48 
  -4 -10   5    9.02    0.44 
   3  10  -5    1.23    0.17 
   3  10  -5    1.36    0.18 
   3  10  -5    1.31    0.15 
   3  10  -5    1.31    0.17 
  -3 -10   5    1.43    0.13 
  -3 -10   5    1.23    0.16 
   2  10  -5    0.63    0.13 
   2  10  -5    0.76    0.13 
   2  10  -5    0.86    0.13 
   2  10  -5    0.75    0.14 
  -2 -10   5    0.75    0.12 
  -2 -10   5    0.60    0.09 
   1  10  -5    1.99    0.19 
   1  10  -5    1.80    0.20 
   1  10  -5    2.35    0.20 
  -1 -10   5    2.59    0.20 
  -1 -10   5    1.88    0.18 
   0  10  -5    8.14    0.46 
   0  10  -5    8.17    0.45 
   0 -10   5    8.18    0.44 
   0 -10   5    8.82    0.46 
  -1  10  -5    2.71    0.23 
  -1  10  -5    3.23    0.23 
   1 -10   5    2.94    0.22 
   1 -10   5    3.06    0.18 
  -2  10  -5    0.02    0.08 
  -2  10  -5    0.12    0.10 
   2 -10   5    0.12    0.08 
   2 -10   5    0.03    0.05 
  -3  10  -5   27.04    1.19 
   3 -10   5   24.50    1.15 
   5   9  -5    0.16    0.06 
   5   9  -5    0.12    0.09 
   5   9  -5    0.09    0.06 
   4   9  -5    0.62    0.13 
   4   9  -5    0.79    0.12 
   4   9  -5    0.56    0.10 
  -4  -9   5    0.76    0.10 
   3   9  -5    5.91    0.37 
   3   9  -5    6.56    0.38 
   3   9  -5    6.26    0.37 
   3   9  -5    6.31    0.39 
   3   9  -5    5.89    0.38 
  -3  -9   5    5.82    0.36 
  -3  -9   5    6.01    0.33 
   2   9  -5    3.83    0.27 
   2   9  -5    3.83    0.28 
   2   9  -5    4.07    0.27 
   2   9  -5    3.64    0.27 
  -2  -9   5    4.07    0.23 
  -2  -9   5    3.79    0.27 
   1   9  -5    6.05    0.35 
   1   9  -5    5.59    0.36 
   1   9  -5    6.65    0.37 
  -1  -9   5    6.52    0.36 
  -1  -9   5    5.41    0.31 
   0   9  -5   15.15    0.76 
   0   9  -5   14.74    0.75 
   0  -9   5   15.30    0.71 
   0  -9   5   15.16    0.74 
   0  -9   5   15.87    0.76 
  -1   9  -5    0.31    0.11 
  -1   9  -5    0.32    0.11 
   1  -9   5    0.56    0.10 
   1  -9   5    0.50    0.08 
  -2   9  -5    1.89    0.18 
  -2   9  -5    1.61    0.18 
   2  -9   5    1.70    0.13 
   2  -9   5    1.52    0.16 
  -3   9  -5    0.82    0.13 
  -3   9  -5    0.51    0.12 
   3  -9   5    0.40    0.10 
   3  -9   5    0.69    0.08 
  -4   9  -5    1.01    0.11 
   4  -9   5    0.84    0.08 
   5   8  -5   17.63    0.79 
   5   8  -5   17.90    0.79 
  -5  -8   5   14.80    0.76 
   4   8  -5    7.23    0.40 
   4   8  -5    7.37    0.42 
   4   8  -5    6.71    0.40 
  -4  -8   5    7.13    0.36 
   3   8  -5    1.26    0.20 
   3   8  -5    1.47    0.18 
   3   8  -5    1.59    0.17 
   3   8  -5    1.50    0.17 
   3   8  -5    1.29    0.19 
  -3  -8   5    1.54    0.13 
  -3  -8   5    1.34    0.18 
   2   8  -5   33.97    1.60 
   2   8  -5   34.14    1.61 
   2   8  -5   36.54    1.61 
   2   8  -5   36.10    1.59 
   2   8  -5   35.69    1.59 
   2   8  -5   32.47    1.72 
  -2  -8   5   35.83    1.56 
  -2  -8   5   35.18    1.60 
  -2  -8   5   33.99    1.80 
  -2  -8   5   31.70    1.82 
   1   8  -5   10.76    0.69 
   1   8  -5   11.78    0.59 
   1   8  -5   12.13    0.61 
   1   8  -5   11.45    0.61 
  -1  -8   5   12.45    0.61 
  -1  -8   5   12.38    0.78 
  -1  -8   5   12.51    0.57 
   0   8  -5    0.72    0.13 
   0   8  -5    0.71    0.12 
   0   8  -5    0.86    0.14 
   0   8  -5    0.92    0.19 
   0  -8   5    1.02    0.13 
   0  -8   5    0.70    0.10 
   0  -8   5    0.95    0.23 
   0  -8   5    0.88    0.10 
  -1   8  -5    5.28    0.31 
  -1   8  -5    4.41    0.38 
  -1   8  -5    4.38    0.30 
   1  -8   5    4.24    0.44 
   1  -8   5    5.24    0.29 
   1  -8   5    4.80    0.25 
  -2   8  -5   26.04    1.23 
  -2   8  -5   25.86    1.23 
   2  -8   5   25.66    1.18 
   2  -8   5   26.70    1.22 
  -3   8  -5   19.25    0.86 
  -3   8  -5   16.55    0.85 
   3  -8   5   17.68    0.80 
   3  -8   5   17.38    0.81 
   3  -8   5   16.40    0.84 
  -4   8  -5    1.69    0.16 
   4  -8   5    1.58    0.12 
   4  -8   5    1.57    0.15 
   4  -8   5    1.66    0.13 
   5   7  -5    0.78    0.11 
   5   7  -5    0.75    0.14 
   5   7  -5    0.67    0.10 
  -5  -7   5    0.49    0.07 
   4   7  -5    7.40    0.42 
   4   7  -5    7.72    0.41 
   4   7  -5    8.24    0.44 
   4   7  -5    7.13    0.42 
  -4  -7   5    6.65    0.37 
   3   7  -5    0.03    0.09 
   3   7  -5    0.08    0.08 
   3   7  -5    0.10    0.08 
   3   7  -5    0.07    0.08 
   3   7  -5    0.12    0.11 
  -3  -7   5    0.15    0.06 
   2   7  -5    7.37    0.43 
   2   7  -5    7.20    0.59 
   2   7  -5    6.90    0.41 
   2   7  -5    7.63    0.42 
   2   7  -5    7.63    0.51 
   2   7  -5    7.29    0.39 
   2   7  -5    8.07    0.40 
  -2  -7   5    6.71    0.56 
  -2  -7   5    7.38    0.37 
  -2  -7   5    6.35    0.56 
   1   7  -5   21.48    1.01 
   1   7  -5   20.92    1.19 
   1   7  -5   20.45    1.10 
   1   7  -5   22.30    1.03 
   1   7  -5   20.52    1.02 
   1   7  -5   23.20    1.04 
  -1  -7   5   21.51    0.98 
  -1  -7   5   22.35    1.02 
  -1  -7   5   22.60    1.19 
  -1  -7   5   21.58    1.16 
   0   7  -5    4.83    0.30 
   0   7  -5    4.51    0.35 
   0  -7   5    5.32    0.41 
   0  -7   5    5.31    0.29 
  -1   7  -5    0.10    0.09 
  -1   7  -5    0.05    0.08 
  -1   7  -5    0.11    0.12 
   1  -7   5    0.06    0.05 
   1  -7   5    0.11    0.13 
   1  -7   5    0.27    0.09 
   1  -7   5    0.09    0.07 
  -2   7  -5   13.81    0.93 
  -2   7  -5   15.75    0.74 
  -2   7  -5   14.83    0.71 
  -2   7  -5   15.10    0.74 
   2  -7   5   14.50    0.69 
   2  -7   5   15.63    0.69 
   2  -7   5   14.83    0.72 
   2  -7   5   13.61    0.74 
  -3   7  -5   34.27    1.63 
  -3   7  -5   36.63    1.61 
  -3   7  -5   38.13    1.65 
   3  -7   5   32.93    1.64 
   3  -7   5   34.98    1.66 
   3  -7   5   36.02    1.60 
   3  -7   5   36.01    1.59 
  -4   7  -5    0.10    0.08 
  -4   7  -5    0.17    0.09 
   4  -7   5    0.08    0.05 
   4  -7   5    0.11    0.05 
   4  -7   5    0.15    0.08 
   4  -7   5    0.14    0.06 
   4  -7   5    0.12    0.07 
   5   6  -5    2.79    0.20 
   5   6  -5    2.72    0.20 
   4   6  -5    0.78    0.12 
   4   6  -5    0.70    0.12 
   4   6  -5    0.77    0.14 
   4   6  -5    0.58    0.13 
   3   6  -5   15.34    0.79 
   3   6  -5   17.06    0.78 
   3   6  -5   16.51    0.79 
   3   6  -5   17.05    0.78 
   3   6  -5   14.58    1.01 
  -3  -6   5   16.70    1.03 
  -3  -6   5   15.43    0.99 
  -3  -6   5   15.03    0.74 
   2   6  -5    6.28    0.35 
   2   6  -5    5.41    0.49 
   2   6  -5    6.10    0.42 
   2   6  -5    5.76    0.34 
   2   6  -5    5.40    0.35 
   2   6  -5    5.29    0.32 
  -2  -6   5    6.47    0.50 
  -2  -6   5    5.89    0.30 
   1   6  -5    9.93    0.64 
   1   6  -5   10.00    0.56 
  -1  -6   5    9.89    0.63 
  -1  -6   5    9.49    0.46 
   0   6  -5    3.50    0.27 
   0  -6   5    3.85    0.32 
  -1   6  -5   39.59    1.89 
   1  -6   5   41.46    1.97 
  -2   6  -5   54.49    2.34 
  -2   6  -5   51.12    2.44 
  -2   6  -5   55.10    2.37 
   2  -6   5   52.49    2.33 
   2  -6   5   52.72    2.33 
   2  -6   5   52.93    2.53 
   2  -6   5   53.61    2.35 
   2  -6   5   49.25    2.39 
  -3   6  -5    1.73    0.19 
  -3   6  -5    1.92    0.16 
   3  -6   5    1.98    0.14 
   3  -6   5    1.90    0.20 
   3  -6   5    2.15    0.21 
   3  -6   5    1.90    0.14 
   3  -6   5    1.90    0.19 
   3  -6   5    1.91    0.15 
  -4   6  -5    8.45    0.50 
  -4   6  -5   10.23    0.49 
   4  -6   5   10.08    0.53 
   4  -6   5   10.16    0.47 
   4  -6   5   10.02    0.46 
   4  -6   5    9.26    0.46 
   4  -6   5    9.36    0.52 
  -5   6  -5    2.55    0.19 
   5  -6   5    2.70    0.18 
   5  -6   5    2.45    0.15 
   5  -6   5    2.41    0.15 
   5  -6   5    2.52    0.18 
   5  -6   5    2.60    0.15 
   5   5  -5    9.90    0.51 
   5   5  -5   10.11    0.51 
   4   5  -5    6.74    0.37 
   4   5  -5    6.61    0.40 
   4   5  -5    6.54    0.38 
   4   5  -5    6.59    0.39 
   3   5  -5   50.37    2.28 
   3   5  -5   54.38    2.29 
   3   5  -5   52.34    2.27 
   3   5  -5   45.78    2.50 
   3   5  -5   51.40    2.27 
  -3  -5   5   48.67    2.50 
   2   5  -5   42.41    2.14 
   2   5  -5   47.97    2.04 
  -2  -5   5   45.10    2.15 
  -2  -5   5   39.18    1.92 
   1   5  -5   24.22    1.14 
   1   5  -5   24.39    1.23 
  -1  -5   5   22.55    1.22 
   0   5  -5   11.50    0.61 
   0   5  -5   11.86    0.66 
   0  -5   5   12.37    0.68 
  -1   5  -5   37.81    1.76 
   1  -5   5   38.46    1.83 
  -2   5  -5   42.28    1.92 
  -2   5  -5   41.97    1.86 
  -2   5  -5   41.96    1.83 
  -2   5  -5   42.48    1.99 
   2  -5   5   40.30    1.91 
   2  -5   5   39.93    1.94 
   2  -5   5   44.36    2.01 
   2  -5   5   38.18    1.88 
   2  -5   5   39.58    1.82 
  -3   5  -5    1.61    0.13 
  -3   5  -5    1.38    0.25 
  -3   5  -5    1.03    0.30 
  -3   5  -5    1.58    0.16 
   3  -5   5    1.50    0.22 
   3  -5   5    1.66    0.13 
   3  -5   5    1.47    0.12 
   3  -5   5    1.51    0.24 
   3  -5   5    1.41    0.18 
   3  -5   5    1.43    0.28 
   3  -5   5    1.41    0.11 
   3  -5   5    1.41    0.18 
  -4   5  -5   34.69    1.69 
  -4   5  -5   39.56    1.67 
   4  -5   5   35.22    1.72 
   4  -5   5   37.03    1.73 
   4  -5   5   39.02    1.65 
   4  -5   5   37.74    1.66 
   4  -5   5   36.20    1.65 
  -5   5  -5    5.20    0.32 
  -5   5  -5    5.33    0.30 
   5  -5   5    5.14    0.27 
   5  -5   5    5.85    0.32 
   5  -5   5    5.11    0.27 
   5  -5   5    5.39    0.27 
   5  -5   5    5.26    0.32 
   5   4  -5   17.88    0.87 
   5   4  -5   18.85    0.87 
   4   4  -5   20.68    0.96 
   4   4  -5   19.90    0.97 
   4   4  -5   20.30    0.97 
   3   4  -5   11.00    0.59 
   3   4  -5   11.13    0.58 
   3   4  -5   12.37    0.58 
   3   4  -5   11.98    0.78 
   3   4  -5   12.57    0.60 
  -3  -4   5   10.94    0.76 
   2   4  -5   83.37    3.64 
   2   4  -5   80.89    3.76 
  -2  -4   5   78.93    3.75 
   1   4  -5    9.85    0.50 
   1   4  -5    9.31    0.57 
  -1  -4   5    8.78    0.57 
   0   4  -5    1.78    0.19 
   0   4  -5    1.89    0.16 
   0  -4   5    2.32    0.21 
  -1   4  -5    9.51    0.50 
   1  -4   5    9.48    0.54 
   1  -4   5    9.33    0.48 
  -2   4  -5    2.33    0.14 
  -2   4  -5    2.73    0.22 
   2  -4   5    2.43    0.24 
   2  -4   5    2.43    0.20 
  -3   4  -5    0.05    0.05 
  -3   4  -5    0.03    0.17 
  -3   4  -5    0.05    0.12 
   3  -4   5    0.07    0.10 
   3  -4   5    0.04    0.04 
   3  -4   5    0.08    0.15 
   3  -4   5    0.10    0.09 
   3  -4   5    0.08    0.09 
   3  -4   5   -0.04    0.14 
   3  -4   5    0.05    0.05 
   3  -4   5    0.05    0.05 
  -4   4  -5   20.29    1.00 
  -4   4  -5   22.08    0.96 
   4  -4   5   20.88    0.96 
   4  -4   5   21.27    1.04 
   4  -4   5   20.00    1.09 
   4  -4   5   19.90    1.02 
   4  -4   5   21.96    0.95 
   4  -4   5   20.98    0.96 
  -5   4  -5    4.94    0.29 
   5  -4   5    5.24    0.27 
   5  -4   5    4.96    0.27 
   5  -4   5    5.18    0.27 
   5  -4   5    5.21    0.32 
   5  -4   5    5.89    0.34 
   5   3  -5    0.77    0.13 
   4   3  -5   24.08    1.10 
   4   3  -5   22.82    1.11 
   4   3  -5   24.17    1.12 
   3   3  -5   57.38    2.97 
   3   3  -5   63.70    2.87 
  -3  -3   5   66.08    3.02 
   2   3  -5    1.66    0.22 
   2   3  -5    1.70    0.17 
  -2  -3   5    1.73    0.24 
   1   3  -5   47.83    2.11 
   1   3  -5   48.17    2.20 
  -1  -3   5   44.52    2.20 
   0   3  -5   45.22    2.05 
   0   3  -5   47.74    2.11 
   0  -3   5   45.74    2.02 
   0  -3   5   44.49    2.11 
  -1   3  -5   29.32    1.35 
   1  -3   5   30.16    1.35 
   1  -3   5   28.76    1.39 
  -2   3  -5   30.54    1.43 
   2  -3   5   31.21    1.49 
   2  -3   5   31.06    1.45 
  -3   3  -5  144.22    6.39 
  -3   3  -5  149.88    6.49 
   3  -3   5  157.12    6.57 
   3  -3   5  144.14    6.51 
   3  -3   5  147.40    6.53 
   3  -3   5  147.12    6.40 
   3  -3   5  147.74    6.47 
   3  -3   5  134.42    6.47 
   3  -3   5  150.80    6.41 
   3  -3   5  144.30    6.40 
  -4   3  -5    5.97    0.31 
   4  -3   5    6.04    0.40 
   4  -3   5    6.53    0.39 
   4  -3   5    5.90    0.31 
   4  -3   5    5.84    0.47 
   4  -3   5    5.87    0.31 
   4  -3   5    6.27    0.32 
  -5   3  -5    7.27    0.38 
   5  -3   5    7.45    0.37 
   5  -3   5    7.11    0.43 
   5  -3   5    7.95    0.38 
   5  -3   5    7.40    0.43 
   5  -3   5    8.11    0.38 
   6  -3   5    8.57    0.43 
   4   2  -5   26.65    1.20 
   4   2  -5   26.09    1.18 
   4   2  -5   26.08    1.19 
   4   2  -5   24.66    1.15 
  -4  -2   5   23.69    1.49 
   3   2  -5   11.21    0.72 
  -3  -2   5   11.42    0.78 
   2   2  -5    1.27    0.14 
   2   2  -5    1.22    0.19 
  -2  -2   5    1.21    0.21 
   1   2  -5   78.22    3.43 
   1   2  -5   81.03    3.53 
  -1  -2   5   74.04    3.53 
   0   2  -5    0.46    0.07 
   0  -2   5    0.23    0.06 
   0  -2   5    0.46    0.10 
  -1   2  -5    1.74    0.13 
   1  -2   5    1.53    0.14 
   1  -2   5    1.76    0.13 
  -2   2  -5    0.14    0.07 
   2  -2   5    0.26    0.08 
   2  -2   5    0.24    0.08 
  -3   2  -5   14.34    0.69 
  -3   2  -5   16.16    0.79 
   3  -2   5   15.23    0.80 
   3  -2   5   16.05    0.83 
  -4   2  -5   21.57    1.25 
   4  -2   5   21.37    1.05 
   4  -2   5   22.32    0.99 
   4  -2   5   21.53    0.98 
   4  -2   5   21.55    0.98 
   4  -2   5   21.64    1.14 
   4  -2   5   21.23    1.07 
  -5   2  -5    7.32    0.37 
   5  -2   5    7.28    0.37 
   5  -2   5    7.43    0.51 
   5  -2   5    7.75    0.45 
   5  -2   5    7.94    0.44 
   5  -2   5    7.32    0.38 
   6  -2   5    1.79    0.15 
   6  -2   5    1.61    0.14 
   6  -2   5    1.97    0.11 
   6  -2   5    1.78    0.12 
   5   1  -5   14.53    0.73 
   5   1  -5   15.33    0.70 
   4   1  -5    2.26    0.20 
   4   1  -5    2.09    0.15 
   4   1  -5    1.63    0.18 
  -4  -1   5    1.61    0.43 
   3   1  -5    9.16    0.61 
   3   1  -5    8.46    0.59 
  -3  -1   5    9.46    0.67 
   2   1  -5    0.05    0.09 
   2   1  -5    0.24    0.12 
  -2  -1   5    0.25    0.14 
  -2  -1   5    0.03    0.08 
   1   1  -5    0.49    0.06 
   1   1  -5    0.75    0.15 
  -1  -1   5    0.49    0.13 
  -1  -1   5    0.76    0.11 
   0   1  -5    0.90    0.12 
   0  -1   5    1.05    0.11 
  -1   1  -5    8.27    0.40 
  -1   1  -5    7.07    0.41 
   1  -1   5    7.78    0.42 
   1  -1   5    8.75    0.42 
  -2   1  -5   28.16    1.32 
   2  -1   5   30.60    1.35 
   2  -1   5   27.76    1.34 
  -3   1  -5    0.75    0.14 
   3  -1   5    0.89    0.15 
  -4   1  -5    0.22    0.15 
  -4   1  -5    0.18    0.06 
   4  -1   5    0.28    0.10 
   4  -1   5    0.44    0.13 
   4  -1   5    0.23    0.05 
   4  -1   5    0.32    0.18 
   4  -1   5    0.26    0.12 
   4  -1   5    0.25    0.06 
  -5   1  -5    0.01    0.05 
   5  -1   5    0.05    0.05 
   5  -1   5    0.04    0.08 
   5  -1   5    0.01    0.16 
   5  -1   5    0.02    0.04 
   5  -1   5    0.00    0.09 
  -6   1  -5    0.45    0.07 
   6  -1   5    0.61    0.10 
   6  -1   5    0.62    0.10 
   6  -1   5    0.75    0.07 
   6  -1   5    0.57    0.07 
   5   0  -5   30.44    1.37 
   5   0  -5   31.04    1.41 
   5   0  -5   30.18    1.37 
   4   0  -5   60.74    2.60 
   4   0  -5   62.10    2.60 
   4   0  -5   56.52    2.64 
   4   0  -5   57.32    2.64 
  -4   0   5   57.94    3.12 
   3   0  -5    0.03    0.11 
   3   0  -5    0.20    0.14 
  -3   0   5    0.15    0.13 
  -3   0   5    0.18    0.18 
   2   0  -5  286.21   12.79 
   2   0  -5  302.83   12.82 
  -2   0   5  285.10   12.75 
   1   0  -5    2.19    0.20 
   1   0  -5    3.21    0.24 
  -1   0   5    2.55    0.23 
  -1   0   5    3.05    0.20 
   0   0  -5    0.44    0.10 
   0   0  -5    0.61    0.06 
   0   0   5    0.61    0.12 
   0   0   5    0.63    0.11 
  -1   0  -5   62.76    2.81 
  -1   0  -5   60.23    2.84 
   1   0   5   62.07    2.82 
   1   0   5   70.38    2.85 
  -2   0  -5   64.20    2.98 
  -2   0  -5   68.57    2.98 
   2   0   5   70.99    3.01 
   2   0   5   64.60    2.97 
  -3   0  -5   34.01    1.62 
   3   0   5   36.12    1.65 
  -4   0  -5    7.51    0.48 
   4   0   5    7.39    0.51 
   4   0   5    7.64    0.48 
   4   0   5    7.39    0.46 
   4   0   5    7.57    0.37 
   4   0   5    7.33    0.38 
   4   0   5    8.04    0.45 
  -5   0  -5   11.60    0.59 
   5   0   5   12.33    0.67 
   5   0   5   12.29    0.59 
   5   0   5   13.19    0.65 
   5   0   5   12.57    0.75 
   5   0   5   12.26    0.58 
   6   0   5    4.02    0.25 
   6   0   5    3.82    0.26 
   6   0   5    4.02    0.20 
   5  -1  -5   -0.02    0.09 
   5  -1  -5    0.06    0.06 
   5  -1  -5    0.05    0.06 
   4  -1  -5    6.72    0.41 
   4  -1  -5    7.71    0.37 
   4  -1  -5    8.00    0.37 
   4  -1  -5    7.94    0.42 
   4  -1  -5    6.91    0.36 
   3  -1  -5   17.68    0.99 
  -3   1   5   18.55    0.98 
   2  -1  -5    6.06    0.40 
   2  -1  -5    6.35    0.43 
  -2   1   5    6.52    0.40 
   1  -1  -5   95.47    4.30 
   1  -1  -5   95.66    4.27 
  -1   1   5   97.81    4.27 
   0  -1  -5  243.69   10.52 
   0  -1  -5  239.03   10.56 
   0  -1  -5  237.44   10.49 
   0   1   5  248.38   10.54 
   0   1   5  236.13   10.55 
  -1  -1  -5  257.31   11.36 
  -1  -1  -5  260.12   11.38 
   1   1   5  257.21   11.47 
   1   1   5  270.82   11.40 
   1   1   5  258.29   11.60 
  -2  -1  -5    0.53    0.09 
  -2  -1  -5    0.45    0.08 
   2   1   5    0.43    0.12 
   2   1   5    0.61    0.11 
  -3  -1  -5  128.62    5.64 
   3   1   5  127.00    5.66 
  -4  -1  -5   30.22    1.50 
   4   1   5   34.46    1.49 
   4   1   5   31.08    1.50 
   4   1   5   30.90    1.41 
   4   1   5   31.68    1.54 
   4   1   5   31.40    1.52 
   4   1   5   30.41    1.41 
   5   1   5   29.19    1.25 
   5   1   5   27.37    1.42 
   5   1   5   26.85    1.31 
   5   1   5   27.96    1.35 
   6   1   5   11.86    0.54 
   6   1   5   11.76    0.59 
   6   1   5   11.38    0.58 
   5  -2  -5    4.86    0.27 
   5  -2  -5    5.02    0.27 
   5  -2  -5    4.60    0.31 
   5  -2  -5    5.19    0.25 
   4  -2  -5   10.68    0.52 
   4  -2  -5   10.44    0.57 
   4  -2  -5   11.17    0.52 
   4  -2  -5   11.18    0.51 
   4  -2  -5   10.49    0.56 
   3  -2  -5    0.47    0.07 
   3  -2  -5    0.50    0.16 
   3  -2  -5    0.50    0.10 
   3  -2  -5    0.40    0.06 
  -3   2   5    0.47    0.17 
   2  -2  -5   34.06    1.61 
   2  -2  -5   33.79    1.63 
  -2   2   5   33.44    1.61 
   1  -2  -5    2.68    0.22 
   1  -2  -5    2.47    0.19 
  -1   2   5    2.48    0.20 
   0  -2  -5  176.42    7.66 
   0  -2  -5  175.74    7.61 
   0  -2  -5  166.98    7.57 
   0   2   5  169.40    7.58 
   0   2   5  182.28    7.66 
  -1  -2  -5   11.07    0.55 
   1   2   5   11.09    0.54 
   1   2   5   10.31    0.57 
  -2  -2  -5  132.59    5.95 
  -2  -2  -5  138.38    5.91 
   2   2   5  132.14    5.97 
   2   2   5  136.39    5.95 
  -3  -2  -5    2.27    0.19 
   3   2   5    2.29    0.25 
   3   2   5    2.81    0.21 
  -4  -2  -5   14.57    0.77 
   4   2   5   14.45    0.67 
   4   2   5   13.82    0.75 
   4   2   5   14.06    0.78 
   4   2   5   15.17    0.75 
   4   2   5   14.75    0.77 
   4   2   5   15.25    0.80 
   5   2   5   45.10    2.12 
   5   2   5   47.52    2.09 
   5   2   5   44.67    2.19 
   5   2   5   45.15    2.02 
   6   2   5    2.93    0.22 
   6   2   5    3.38    0.24 
   5  -3  -5   23.06    1.05 
   5  -3  -5   22.64    1.09 
   5  -3  -5   23.09    1.04 
   5  -3  -5   23.90    1.06 
  -5   3   5   23.69    1.07 
   4  -3  -5    5.39    0.34 
   4  -3  -5    5.59    0.29 
   4  -3  -5    5.62    0.28 
   4  -3  -5    5.40    0.34 
   4  -3  -5    5.27    0.32 
   4  -3  -5    5.83    0.29 
  -4   3   5    5.01    0.32 
   3  -3  -5   95.51    4.03 
   3  -3  -5   88.45    4.06 
   3  -3  -5   94.51    4.06 
   3  -3  -5   95.70    4.02 
   3  -3  -5   90.69    4.02 
   3  -3  -5   88.33    4.05 
   3  -3  -5   94.69    4.22 
  -3   3   5   87.39    4.21 
   2  -3  -5   66.12    3.05 
   2  -3  -5   67.65    3.04 
  -2   3   5   65.89    3.05 
   1  -3  -5   27.15    1.29 
   1  -3  -5   25.44    1.23 
  -1   3   5   26.44    1.26 
   0  -3  -5    3.60    0.24 
   0  -3  -5    2.88    0.18 
   0   3   5    2.66    0.16 
   0   3   5    3.44    0.25 
  -1  -3  -5   22.62    1.06 
   1   3   5   21.89    1.03 
   1   3   5   22.10    1.09 
  -2  -3  -5   87.06    3.90 
   2   3   5   86.23    3.89 
   2   3   5   88.12    3.88 
  -3  -3  -5    0.52    0.14 
  -3  -3  -5    0.37    0.09 
   3   3   5    0.50    0.11 
   3   3   5    0.39    0.14 
  -4  -3  -5   23.55    1.16 
   4   3   5   24.47    1.18 
   4   3   5   25.75    1.15 
   4   3   5   23.26    1.06 
   4   3   5   24.10    1.17 
   4   3   5   21.02    1.12 
   4   3   5   22.86    1.16 
   5   3   5   28.17    1.43 
   5   3   5   29.17    1.38 
   5   3   5   28.16    1.39 
   5   3   5   28.36    1.27 
   5   3   5   27.46    1.33 
   6   3   5   -0.04    0.16 
   6   3   5    0.12    0.10 
   6   3   5    0.04    0.07 
   5  -4  -5   25.14    1.13 
   5  -4  -5   25.22    1.17 
   5  -4  -5   24.73    1.13 
   5  -4  -5   24.64    1.12 
  -5   4   5   25.82    1.15 
   4  -4  -5   41.25    1.82 
   4  -4  -5   41.88    1.83 
   4  -4  -5   41.32    1.88 
   4  -4  -5   42.24    1.83 
   4  -4  -5   40.51    1.86 
  -4   4   5   39.90    1.84 
   3  -4  -5    0.49    0.10 
   3  -4  -5    0.51    0.09 
   3  -4  -5    0.66    0.08 
   3  -4  -5    0.55    0.07 
   3  -4  -5    0.61    0.19 
   3  -4  -5    0.83    0.11 
   3  -4  -5    0.61    0.07 
  -3   4   5    0.73    0.22 
  -3   4   5    0.63    0.08 
   2  -4  -5   43.80    2.04 
  -2   4   5   42.97    2.07 
   1  -4  -5   12.39    0.67 
   1  -4  -5   14.00    0.74 
  -1   4   5   13.13    0.70 
   0  -4  -5   22.75    1.10 
   0  -4  -5   22.56    1.04 
   0   4   5   22.77    1.11 
   0   4   5   22.14    1.02 
  -1  -4  -5    0.65    0.13 
   1   4   5    0.60    0.15 
  -2  -4  -5   12.64    0.66 
   2   4   5   11.39    0.62 
   2   4   5   11.66    0.62 
  -3  -4  -5   31.52    1.51 
   3   4   5   30.25    1.44 
   3   4   5   30.08    1.51 
  -4  -4  -5    5.30    0.36 
   4   4   5    5.40    0.38 
   4   4   5    5.13    0.37 
   4   4   5    5.08    0.36 
   4   4   5    5.14    0.47 
   4   4   5    5.32    0.35 
   4   4   5    5.35    0.34 
   5   4   5   16.81    0.86 
   5   4   5   15.00    0.83 
   5   4   5   16.24    0.81 
   5   4   5   16.51    0.90 
   6   4   5    1.54    0.15 
   6   4   5    1.94    0.19 
   6   4   5    1.73    0.28 
   5  -5  -5    6.73    0.37 
   5  -5  -5    6.54    0.33 
   5  -5  -5    6.91    0.32 
   5  -5  -5    6.91    0.33 
  -5   5   5    6.82    0.36 
   4  -5  -5    8.09    0.45 
   4  -5  -5    8.79    0.48 
   4  -5  -5    8.84    0.42 
   4  -5  -5    8.70    0.42 
   4  -5  -5    9.04    0.43 
  -4   5   5    8.87    0.45 
   3  -5  -5   13.10    0.60 
   3  -5  -5   12.90    0.60 
   3  -5  -5   11.93    0.79 
   3  -5  -5   13.69    0.64 
   3  -5  -5   13.27    0.60 
   3  -5  -5   13.50    0.63 
   3  -5  -5   12.10    0.65 
  -3   5   5   11.96    0.82 
  -3   5   5   12.60    0.61 
   2  -5  -5   18.75    0.96 
  -2   5   5   17.39    0.82 
  -2   5   5   18.15    0.99 
   1  -5  -5    0.14    0.14 
   1  -5  -5    0.23    0.10 
  -1   5   5    0.20    0.12 
   0  -5  -5    3.61    0.29 
   0  -5  -5    4.23    0.26 
   0   5   5    3.67    0.31 
   0   5   5    4.17    0.23 
  -1  -5  -5  147.08    6.54 
   1   5   5  143.19    6.57 
   1   5   5  152.70    6.49 
  -2  -5  -5    1.41    0.18 
   2   5   5    1.38    0.16 
   2   5   5    1.30    0.16 
  -3  -5  -5  112.76    5.09 
   3   5   5  112.19    5.07 
   3   5   5  112.71    5.00 
  -4  -5  -5   32.71    1.56 
   4   5   5   30.43    1.54 
   4   5   5   32.61    1.54 
   4   5   5   30.73    1.67 
   4   5   5   34.94    1.53 
   4   5   5   32.12    1.50 
   5   5   5    1.73    0.26 
   5   5   5    1.89    0.20 
   5   5   5    2.48    0.26 
   5   5   5    2.14    0.25 
   6   5   5    9.54    0.58 
   6   5   5    9.27    0.50 
   5  -6  -5    0.05    0.08 
   5  -6  -5   -0.02    0.04 
   5  -6  -5    0.01    0.05 
   5  -6  -5   -0.01    0.04 
  -5   6   5    0.04    0.07 
  -5   6   5    0.05    0.13 
   4  -6  -5   12.61    0.59 
   4  -6  -5   12.85    0.64 
   4  -6  -5   12.63    0.60 
   4  -6  -5   12.21    0.62 
   4  -6  -5   12.25    0.59 
  -4   6   5   13.27    0.62 
   3  -6  -5    5.26    0.28 
   3  -6  -5    5.73    0.32 
   3  -6  -5    5.00    0.34 
   3  -6  -5    5.61    0.28 
   3  -6  -5    5.72    0.29 
   3  -6  -5    5.80    0.33 
  -3   6   5    5.76    0.31 
   2  -6  -5    0.33    0.08 
   2  -6  -5    0.30    0.06 
   2  -6  -5    0.25    0.12 
   2  -6  -5    0.33    0.09 
   2  -6  -5    0.28    0.06 
   2  -6  -5    0.35    0.07 
   2  -6  -5    0.27    0.05 
  -2   6   5    0.21    0.17 
  -2   6   5    0.20    0.06 
   1  -6  -5   47.23    2.07 
  -1   6   5   44.86    2.10 
  -1   6   5   40.90    1.96 
   0  -6  -5    1.24    0.18 
   0  -6  -5    1.27    0.14 
   0   6   5    1.22    0.12 
   0   6   5    1.12    0.22 
  -1  -6  -5   13.73    0.74 
   1   6   5   14.24    0.69 
   1   6   5   13.19    0.78 
  -2  -6  -5  121.31    5.50 
   2   6   5  124.51    5.45 
   2   6   5  121.46    5.44 
  -3  -6  -5    3.08    0.17 
  -3  -6  -5    3.38    0.33 
   3   6   5    3.81    0.32 
   3   6   5    3.44    0.31 
   3   6   5    3.24    0.31 
   3   6   5    3.30    0.29 
  -4  -6  -5   31.24    1.72 
   4   6   5   32.59    1.57 
   4   6   5   34.10    1.61 
   4   6   5   36.74    1.57 
   4   6   5   32.98    1.74 
   4   6   5   33.52    1.59 
   5   6   5   18.51    0.97 
   5   6   5   17.26    0.92 
   5   6   5   21.62    0.95 
   5   6   5   18.08    0.98 
   6   6   5    2.01    0.19 
   6   6   5    1.68    0.26 
   6   6   5    1.80    0.24 
   4  -7  -5    0.96    0.09 
   4  -7  -5    1.02    0.11 
   4  -7  -5    0.89    0.09 
   4  -7  -5    1.06    0.14 
   4  -7  -5    0.87    0.10 
  -4   7   5    0.94    0.17 
  -4   7   5    0.98    0.14 
   3  -7  -5    0.47    0.07 
   3  -7  -5    0.55    0.12 
   3  -7  -5    0.57    0.08 
   3  -7  -5    0.52    0.10 
   3  -7  -5    0.53    0.10 
   3  -7  -5    0.50    0.07 
  -3   7   5    0.38    0.09 
   2  -7  -5    0.33    0.08 
   2  -7  -5    0.46    0.06 
   2  -7  -5    0.33    0.08 
   2  -7  -5    0.39    0.09 
   2  -7  -5    0.41    0.07 
   2  -7  -5    0.30    0.06 
   2  -7  -5    0.28    0.15 
  -2   7   5    0.35    0.08 
  -2   7   5    0.28    0.13 
  -2   7   5    0.17    0.21 
   1  -7  -5    0.94    0.17 
  -1   7   5    0.81    0.12 
  -1   7   5    1.01    0.22 
   0  -7  -5   18.41    0.90 
   0  -7  -5   17.57    0.96 
   0   7   5   17.96    1.00 
  -1  -7  -5   25.14    1.28 
   1   7   5   27.37    1.22 
   1   7   5   24.07    1.31 
  -2  -7  -5    7.14    0.35 
  -2  -7  -5    8.02    0.52 
   2   7   5    7.31    0.45 
  -3  -7  -5    8.40    0.42 
  -3  -7  -5    8.92    0.61 
   3   7   5    9.34    0.46 
   3   7   5    8.69    0.47 
   3   7   5    9.19    0.57 
   3   7   5    8.83    0.53 
   3   7   5    8.42    0.50 
   3   7   5    9.40    0.49 
  -4  -7  -5   14.05    0.68 
   4   7   5   15.56    0.79 
   4   7   5   14.99    0.72 
   4   7   5   15.31    0.81 
   4   7   5   15.82    0.76 
   4   7   5   13.87    0.76 
  -5  -7  -5    0.27    0.06 
   5   7   5    0.43    0.14 
   5   7   5    0.26    0.12 
   5   7   5    0.40    0.14 
   6   7   5    0.65    0.15 
   6   7   5    0.66    0.17 
   6   7   5    0.58    0.12 
   4  -8  -5   65.55    2.97 
   4  -8  -5   69.50    2.97 
   4  -8  -5   67.99    2.97 
   4  -8  -5   67.60    2.99 
   4  -8  -5   67.80    3.01 
  -4   8   5   64.02    3.05 
  -4   8   5   71.01    3.01 
   3  -8  -5    3.29    0.25 
   3  -8  -5    3.28    0.22 
   3  -8  -5    3.45    0.19 
   3  -8  -5    3.40    0.19 
   3  -8  -5    3.43    0.23 
   3  -8  -5    3.17    0.20 
  -3   8   5    3.49    0.24 
  -3   8   5    3.14    0.30 
   2  -8  -5   15.34    0.70 
   2  -8  -5   13.67    0.68 
   2  -8  -5   13.93    0.66 
   2  -8  -5   13.66    0.70 
   2  -8  -5   14.83    0.69 
   2  -8  -5   14.04    0.66 
  -2   8   5   15.71    0.78 
  -2   8   5   15.03    0.70 
  -2   8   5   12.36    0.69 
   1  -8  -5   77.01    3.59 
   1  -8  -5   78.38    3.47 
   1  -8  -5   75.27    3.46 
   1  -8  -5   69.87    3.43 
   1  -8  -5   75.92    3.45 
  -1   8   5   80.61    3.47 
  -1   8   5   76.79    3.47 
  -1   8   5   87.65    3.54 
  -1   8   5   84.98    3.68 
   0  -8  -5    1.36    0.26 
   0  -8  -5    1.05    0.13 
   0   8   5    1.16    0.30 
  -1  -8  -5    0.39    0.15 
  -1  -8  -5    0.20    0.05 
   1   8   5    0.28    0.11 
  -2  -8  -5   47.72    2.03 
  -2  -8  -5   48.55    2.24 
   2   8   5   40.99    2.08 
   2   8   5   45.69    2.15 
   2   8   5   45.88    2.08 
   2   8   5   46.98    2.06 
  -3  -8  -5   20.53    0.95 
  -3  -8  -5   21.79    1.20 
   3   8   5   21.71    1.02 
   3   8   5   20.92    0.99 
   3   8   5   20.73    1.13 
   3   8   5   20.75    1.04 
   3   8   5   20.91    1.06 
   3   8   5   21.48    1.00 
   4   8   5    0.36    0.14 
  -5  -8  -5   14.20    0.63 
   5   8   5   13.58    0.71 
   5   8   5   13.33    0.74 
   5   8   5   13.20    0.73 
   6   8   5    3.96    0.32 
   6   8   5    3.86    0.29 
   4  -9  -5    4.34    0.24 
   4  -9  -5    3.92    0.22 
   4  -9  -5    3.96    0.21 
   4  -9  -5    4.09    0.21 
  -4   9   5    4.14    0.30 
   3  -9  -5   15.63    0.71 
   3  -9  -5   15.90    0.75 
   3  -9  -5   15.42    0.71 
   3  -9  -5   15.56    0.77 
   3  -9  -5   14.95    0.72 
   3  -9  -5   15.70    0.75 
  -3   9   5   15.61    0.76 
  -3   9   5   15.54    0.82 
   2  -9  -5    6.45    0.32 
   2  -9  -5    6.50    0.37 
   2  -9  -5    6.44    0.33 
   2  -9  -5    6.52    0.36 
   2  -9  -5    6.90    0.37 
  -2   9   5    6.99    0.45 
  -2   9   5    6.15    0.37 
  -2   9   5    6.04    0.37 
   1  -9  -5   24.32    1.35 
   1  -9  -5   24.95    1.20 
   1  -9  -5   25.49    1.21 
  -1   9   5   29.72    1.31 
  -1   9   5   27.17    1.50 
  -1   9   5   26.60    1.22 
   0  -9  -5   14.87    0.69 
   0  -9  -5   13.30    0.68 
   0  -9  -5   13.62    0.68 
   0   9   5   15.23    0.78 
   0   9   5   15.09    0.71 
  -1  -9  -5   35.63    1.73 
  -1  -9  -5   33.72    1.53 
  -1  -9  -5   34.12    1.54 
   1   9   5   36.87    1.56 
   1   9   5   34.63    1.63 
   1   9   5   33.00    1.56 
   1   9   5   32.93    1.61 
   1   9   5   32.05    1.64 
  -2  -9  -5    0.71    0.22 
  -2  -9  -5    0.34    0.07 
  -2  -9  -5    0.47    0.07 
   2   9   5    0.29    0.18 
   2   9   5    0.60    0.11 
   2   9   5    0.42    0.10 
   2   9   5    0.48    0.12 
   2   9   5    0.53    0.17 
  -3  -9  -5   59.35    2.50 
   3   9   5   56.91    2.59 
   3   9   5   54.01    2.54 
   3   9   5   54.53    2.56 
   3   9   5   57.44    2.53 
  -4  -9  -5    3.64    0.21 
   4   9   5    3.78    0.32 
  -5  -9  -5    1.31    0.19 
  -5  -9  -5    1.06    0.10 
   5   9   5    1.53    0.19 
   5   9   5    0.92    0.17 
   5   9   5    0.93    0.14 
   5   9   5    1.16    0.18 
   6   9   5    6.75    0.40 
   6   9   5    7.04    0.43 
   3 -10  -5    0.60    0.09 
   3 -10  -5    0.85    0.09 
   3 -10  -5    0.51    0.07 
  -3  10   5    0.75    0.17 
   2 -10  -5    3.56    0.21 
   2 -10  -5    3.91    0.24 
   2 -10  -5    3.75    0.26 
  -2  10   5    4.27    0.34 
  -2  10   5    3.65    0.25 
   1 -10  -5    6.96    0.39 
   1 -10  -5    6.88    0.39 
  -1  10   5    8.14    0.50 
  -1  10   5    7.21    0.41 
   0 -10  -5   22.42    1.11 
   0 -10  -5   23.30    1.11 
   0 -10  -5   24.99    1.12 
   0  10   5   25.46    1.23 
   0  10   5   24.68    1.14 
  -1 -10  -5    0.09    0.22 
  -1 -10  -5    0.25    0.06 
  -1 -10  -5    0.23    0.07 
   1  10   5    0.00    0.18 
   1  10   5    0.21    0.09 
   1  10   5    0.19    0.09 
  -2 -10  -5   26.79    1.23 
  -2 -10  -5   26.46    1.24 
  -2 -10  -5   27.20    1.24 
   2  10   5   25.51    1.34 
   2  10   5   29.40    1.28 
   2  10   5   28.24    1.28 
   2  10   5   26.87    1.29 
  -3 -10  -5   21.01    1.03 
  -3 -10  -5   19.82    1.03 
   3  10   5   22.78    1.12 
   3  10   5   24.30    1.08 
   3  10   5   24.03    1.10 
   3  10   5   23.99    1.08 
  -4 -10  -5   10.89    0.52 
   4  10   5   10.67    0.55 
   4  10   5   10.68    0.59 
   4  10   5   10.52    0.57 
   4  10   5   11.07    0.63 
  -5 -10  -5   25.28    1.13 
  -5 -10  -5   25.20    1.14 
   5  10   5   26.84    1.22 
   5  10   5   23.26    1.15 
   5  10   5   24.61    1.22 
   5  10   5   25.74    1.19 
   3 -11  -5   22.47    1.06 
  -3  11   5   23.90    1.13 
   2 -11  -5   21.64    1.07 
   2 -11  -5   21.35    1.05 
  -2  11   5   22.87    1.06 
  -2  11   5   25.11    1.16 
   1 -11  -5    1.89    0.17 
   1 -11  -5    2.29    0.18 
  -1  11   5    2.19    0.29 
  -1  11   5    2.26    0.20 
   0 -11  -5   33.16    1.55 
   0 -11  -5   35.69    1.57 
   0  11   5   34.24    1.59 
   0  11   5   34.65    1.68 
  -1 -11  -5    7.78    0.41 
  -1 -11  -5    8.46    0.42 
   1  11   5    7.31    0.54 
   1  11   5    8.09    0.45 
  -2 -11  -5   12.96    0.63 
  -2 -11  -5   12.83    0.63 
  -2 -11  -5   12.62    0.61 
   2  11   5   13.08    0.66 
   2  11   5   13.27    0.66 
   2  11   5   12.97    0.68 
  -4 -11  -5    2.92    0.19 
  -4 -11  -5    2.96    0.17 
   4  11   5    2.52    0.20 
   4  11   5    2.47    0.26 
   4  11   5    2.68    0.24 
   4  11   5    3.32    0.24 
  -5 -11  -5    9.95    0.47 
  -5 -11  -5    9.88    0.48 
   5  11   5   11.16    0.54 
   5  11   5   10.39    0.53 
   5  11   5    9.85    0.55 
   5  11   5    9.04    0.49 
   2 -12  -5    0.35    0.09 
   2 -12  -5    0.31    0.07 
  -2  12   5    0.34    0.16 
  -2  12   5    0.35    0.10 
   1 -12  -5    4.50    0.27 
   1 -12  -5    3.82    0.25 
  -1  12   5    4.34    0.28 
  -1  12   5    4.39    0.38 
   0 -12  -5    4.42    0.26 
   0 -12  -5    3.55    0.24 
   0  12   5    4.21    0.28 
   0  12   5    3.97    0.38 
  -1 -12  -5    4.15    0.25 
  -1 -12  -5    3.81    0.25 
   1  12   5    3.83    0.38 
   1  12   5    4.14    0.29 
  -2 -12  -5    2.16    0.17 
  -2 -12  -5    2.31    0.17 
   2  12   5    2.41    0.21 
   2  12   5    2.49    0.21 
   2  12   5    2.53    0.24 
  -3 -12  -5    7.08    0.39 
  -3 -12  -5    8.07    0.40 
  -3 -12  -5    7.43    0.38 
   3  12   5    7.75    0.44 
   3  12   5    7.99    0.47 
   3  12   5    8.06    0.43 
  -4 -12  -5    0.32    0.06 
  -4 -12  -5    0.51    0.08 
   4  12   5    0.69    0.11 
   4  12   5    0.72    0.13 
   4  12   5    0.43    0.13 
   5  12   5    1.11    0.16 
   5  12   5    1.08    0.15 
   2 -13  -5    9.78    0.47 
   1 -13  -5    0.07    0.06 
   1 -13  -5    0.14    0.07 
  -1  13   5    0.20    0.17 
  -1  13   5    0.08    0.08 
   0 -13  -5    7.78    0.40 
   0  13   5    7.41    0.42 
   0  13   5    7.11    0.50 
  -1 -13  -5   32.12    1.53 
  -1 -13  -5   34.70    1.54 
   1  13   5   34.50    1.57 
  -2 -13  -5   10.73    0.53 
  -2 -13  -5    9.92    0.53 
   2  13   5   10.95    0.56 
   2  13   5   11.68    0.59 
  -3 -13  -5    9.20    0.46 
  -3 -13  -5    9.74    0.47 
   3  13   5    9.17    0.50 
   3  13   5    9.79    0.53 
  -4 -13  -5   21.14    0.96 
   4  13   5   21.24    0.99 
   4  13   5   19.72    1.00 
   4  13   5   21.92    1.01 
   1 -14  -5    4.32    0.26 
  -1  14   5    4.49    0.26 
   0 -14  -5    0.19    0.06 
   0  14   5    0.34    0.09 
  -1 -14  -5    0.03    0.05 
   1  14   5    0.04    0.08 
  -2 -14  -5   12.28    0.61 
  -2 -14  -5   12.86    0.62 
   2  14   5   13.27    0.66 
  -3 -14  -5    1.45    0.12 
  -1 -15  -5   10.77    0.52 
   1  15   5   11.08    0.55 
  -2 -15  -5    0.30    0.06 
   2  15   5    0.44    0.11 
   2  13  -6    1.31    0.13 
  -2 -13   6    1.22    0.11 
  -2 -13   6    1.24    0.12 
   1  13  -6    6.28    0.32 
  -1 -13   6    6.14    0.32 
  -1 -13   6    5.19    0.30 
   0  13  -6    2.24    0.17 
   0 -13   6    2.42    0.17 
   3  12  -6    3.63    0.22 
   3  12  -6    3.67    0.24 
  -3 -12   6    3.66    0.22 
   2  12  -6    3.30    0.22 
   2  12  -6    2.80    0.23 
  -2 -12   6    2.79    0.20 
  -2 -12   6    3.09    0.21 
   1  12  -6    0.01    0.07 
  -1 -12   6    0.12    0.06 
  -1 -12   6   -0.01    0.07 
   0  12  -6    1.04    0.13 
   0 -12   6    0.96    0.13 
  -1  12  -6   -0.04    0.08 
  -1  12  -6    0.04    0.07 
   1 -12   6    0.04    0.06 
   4  11  -6    5.50    0.30 
   4  11  -6    5.71    0.29 
   4  11  -6    5.40    0.31 
   3  11  -6   13.96    0.72 
   3  11  -6   15.06    0.71 
   3  11  -6   15.65    0.71 
  -3 -11   6   14.45    0.71 
  -3 -11   6   13.31    0.70 
  -3 -11   6   14.93    0.68 
   2  11  -6   -0.01    0.08 
   2  11  -6    0.01    0.10 
   2  11  -6    0.02    0.06 
  -2 -11   6    0.07    0.06 
  -2 -11   6    0.03    0.08 
   1  11  -6    0.95    0.14 
  -1 -11   6    1.01    0.13 
  -1 -11   6    1.00    0.15 
   0  11  -6    3.56    0.25 
   0 -11   6    3.31    0.24 
  -1  11  -6    8.31    0.44 
  -1  11  -6    8.67    0.46 
   1 -11   6    8.55    0.46 
   1 -11   6    8.84    0.42 
  -2  11  -6    5.68    0.33 
  -2  11  -6    6.02    0.32 
   2 -11   6    6.00    0.33 
   2 -11   6    5.96    0.30 
   4  10  -6    0.90    0.13 
   4  10  -6    1.11    0.12 
   4  10  -6    1.02    0.15 
  -4 -10   6    0.99    0.10 
   3  10  -6    6.14    0.37 
   3  10  -6    6.08    0.36 
   3  10  -6    6.74    0.38 
   3  10  -6    5.99    0.36 
  -3 -10   6    6.21    0.33 
  -3 -10   6    6.10    0.36 
   2  10  -6    5.05    0.31 
   2  10  -6    4.87    0.31 
   2  10  -6    4.28    0.31 
   2  10  -6    5.14    0.32 
  -2 -10   6    4.69    0.27 
  -2 -10   6    4.88    0.31 
   1  10  -6    4.22    0.28 
   1  10  -6    3.71    0.28 
   1  10  -6    3.91    0.27 
  -1 -10   6    4.17    0.27 
  -1 -10   6    3.96    0.27 
   0  10  -6    3.28    0.25 
   0 -10   6    3.34    0.24 
  -1  10  -6    6.82    0.39 
  -1  10  -6    6.25    0.36 
   1 -10   6    6.49    0.38 
   1 -10   6    6.81    0.34 
  -2  10  -6    8.47    0.44 
  -2  10  -6    8.25    0.45 
   2 -10   6    8.29    0.41 
   2 -10   6    8.28    0.44 
  -3  10  -6    1.57    0.14 
  -3  10  -6    1.49    0.15 
   3 -10   6    1.56    0.11 
   5   9  -6    4.88    0.26 
   5   9  -6    4.68    0.34 
   4   9  -6    1.67    0.19 
   4   9  -6    1.63    0.16 
   4   9  -6    1.78    0.16 
  -4  -9   6    1.58    0.13 
   3   9  -6    2.21    0.19 
   3   9  -6    2.02    0.20 
   3   9  -6    1.98    0.21 
   3   9  -6    2.14    0.21 
   3   9  -6    2.05    0.20 
  -3  -9   6    2.15    0.20 
  -3  -9   6    2.65    0.17 
   2   9  -6    0.21    0.08 
   2   9  -6    0.18    0.10 
   2   9  -6    0.21    0.11 
   2   9  -6    0.28    0.10 
  -2  -9   6    0.25    0.09 
  -2  -9   6    0.22    0.07 
   1   9  -6    3.60    0.26 
   1   9  -6    3.51    0.25 
   1   9  -6    3.24    0.25 
  -1  -9   6    3.35    0.25 
   0   9  -6    2.64    0.22 
   0  -9   6    2.49    0.18 
   0  -9   6    3.04    0.23 
  -1   9  -6    5.08    0.32 
  -1   9  -6    5.68    0.34 
   1  -9   6    5.58    0.33 
   1  -9   6    5.70    0.30 
  -2   9  -6   14.22    0.73 
  -2   9  -6   15.34    0.73 
   2  -9   6   15.00    0.69 
   2  -9   6   14.09    0.72 
  -3   9  -6    3.38    0.24 
  -3   9  -6    3.86    0.24 
   3  -9   6    3.59    0.20 
  -4   9  -6    0.13    0.08 
   4  -9   6    0.11    0.05 
   5   8  -6    1.46    0.17 
   5   8  -6    1.60    0.14 
   5   8  -6    1.40    0.12 
  -5  -8   6    1.26    0.11 
   4   8  -6   16.36    0.76 
   4   8  -6   15.32    0.74 
   4   8  -6   14.48    0.73 
   4   8  -6   14.70    0.73 
  -4  -8   6   15.10    0.70 
  -4  -8   6   13.33    0.73 
   3   8  -6   14.17    0.73 
   3   8  -6   15.02    0.74 
   3   8  -6   14.58    0.75 
   3   8  -6   14.96    0.74 
   3   8  -6   14.35    0.74 
  -3  -8   6   14.23    0.74 
  -3  -8   6   15.39    0.70 
   2   8  -6    0.17    0.10 
   2   8  -6    0.06    0.07 
   2   8  -6    0.09    0.10 
   2   8  -6    0.22    0.09 
   2   8  -6    0.08    0.09 
  -2  -8   6    0.17    0.09 
  -2  -8   6    0.16    0.06 
   1   8  -6    1.53    0.17 
   1   8  -6    1.32    0.25 
   1   8  -6    1.31    0.17 
   1   8  -6    1.52    0.17 
  -1  -8   6    1.45    0.13 
  -1  -8   6    1.37    0.30 
  -1  -8   6    1.39    0.16 
   0   8  -6   27.68    1.23 
   0   8  -6   24.32    1.31 
   0   8  -6   25.30    1.21 
   0  -8   6   25.17    1.43 
   0  -8   6   27.32    1.18 
   0  -8   6   26.66    1.23 
  -1   8  -6   30.60    1.39 
  -1   8  -6   30.48    1.40 
   1  -8   6   30.18    1.36 
   1  -8   6   29.30    1.39 
  -2   8  -6   17.41    0.82 
  -2   8  -6   17.08    0.82 
   2  -8   6   16.76    0.78 
   2  -8   6   15.61    0.81 
  -3   8  -6   21.46    1.06 
  -3   8  -6   23.45    1.06 
   3  -8   6   21.88    1.02 
   3  -8   6   22.62    1.02 
  -4   8  -6    8.04    0.38 
   4  -8   6    6.73    0.35 
   4  -8   6    6.42    0.36 
   5   7  -6    0.03    0.07 
   5   7  -6    0.03    0.06 
   5   7  -6    0.08    0.11 
  -5  -7   6    0.04    0.05 
   4   7  -6    7.21    0.41 
   4   7  -6    6.70    0.39 
   4   7  -6    6.61    0.39 
   4   7  -6    6.93    0.40 
  -4  -7   6    6.42    0.34 
   3   7  -6   10.39    0.54 
   3   7  -6    9.53    0.53 
   3   7  -6   10.50    0.55 
   3   7  -6    9.72    0.53 
  -3  -7   6   10.05    0.49 
   2   7  -6    6.78    0.48 
   2   7  -6    6.80    0.39 
   2   7  -6    5.94    0.58 
   2   7  -6    6.32    0.37 
   2   7  -6    6.62    0.38 
   2   7  -6    6.43    0.37 
   2   7  -6    6.31    0.36 
  -2  -7   6    5.54    0.55 
  -2  -7   6    6.44    0.33 
  -2  -7   6    6.06    0.54 
   1   7  -6    0.09    0.09 
   1   7  -6    0.26    0.09 
   1   7  -6    0.12    0.08 
   1   7  -6    0.21    0.10 
   1   7  -6    0.14    0.13 
  -1  -7   6    0.27    0.09 
  -1  -7   6    0.19    0.06 
  -1  -7   6    0.24    0.16 
  -1  -7   6    0.15    0.08 
   0   7  -6   28.75    1.41 
   0   7  -6   30.16    1.34 
   0   7  -6   27.32    1.32 
   0  -7   6   29.49    1.52 
   0  -7   6   28.26    1.34 
   0  -7   6   29.99    1.30 
  -1   7  -6   13.58    0.78 
  -1   7  -6   15.33    0.72 
  -1   7  -6   14.40    0.71 
   1  -7   6   14.73    0.72 
   1  -7   6   14.91    0.90 
   1  -7   6   14.86    0.68 
  -2   7  -6    0.37    0.10 
  -2   7  -6    0.46    0.11 
   2  -7   6    0.56    0.08 
   2  -7   6    0.42    0.10 
   2  -7   6    0.56    0.12 
   2  -7   6    0.37    0.08 
  -3   7  -6   44.09    1.92 
  -3   7  -6   42.88    1.89 
  -3   7  -6   42.34    1.91 
   3  -7   6   38.51    1.92 
   3  -7   6   43.25    1.88 
   3  -7   6   39.46    1.91 
   3  -7   6   43.44    1.87 
  -4   7  -6    9.58    0.46 
  -4   7  -6    7.23    0.44 
  -4   7  -6    8.87    0.44 
   4  -7   6    8.50    0.45 
   4  -7   6    8.99    0.41 
   4  -7   6    9.10    0.46 
   4  -7   6    8.44    0.42 
   4  -7   6    7.16    0.40 
   5   6  -6   14.36    0.69 
   5   6  -6   14.17    0.69 
   4   6  -6    0.42    0.10 
   4   6  -6    0.38    0.10 
   4   6  -6    0.54    0.13 
   4   6  -6    0.39    0.11 
  -4  -6   6    0.45    0.08 
   3   6  -6    1.87    0.18 
   3   6  -6    1.70    0.18 
   3   6  -6    2.14    0.19 
   3   6  -6    2.21    0.20 
  -3  -6   6    1.64    0.14 
  -3  -6   6    1.45    0.33 
   2   6  -6   40.09    2.16 
   2   6  -6   45.93    1.94 
   2   6  -6   42.29    1.91 
   2   6  -6   43.63    1.92 
   2   6  -6   42.76    1.93 
   2   6  -6   42.24    2.02 
   2   6  -6   40.80    1.93 
  -2  -6   6   43.37    2.14 
  -2  -6   6   41.18    1.89 
   1   6  -6   33.67    1.56 
   1   6  -6   32.58    1.67 
  -1  -6   6   31.23    1.44 
  -1  -6   6   32.05    1.66 
   0   6  -6    0.10    0.09 
   0  -6   6    0.22    0.12 
  -1   6  -6   28.09    1.36 
  -1   6  -6   29.78    1.30 
   1  -6   6   27.23    1.29 
   1  -6   6   27.67    1.26 
   1  -6   6   28.26    1.45 
  -2   6  -6   70.53    3.06 
  -2   6  -6   74.05    3.10 
  -2   6  -6   67.74    3.17 
   2  -6   6   66.97    3.08 
   2  -6   6   70.44    3.06 
   2  -6   6   70.78    3.30 
   2  -6   6   67.15    3.11 
   2  -6   6   68.20    3.06 
  -3   6  -6    0.60    0.12 
  -3   6  -6    0.64    0.09 
   3  -6   6    0.76    0.10 
   3  -6   6    0.91    0.15 
   3  -6   6    0.59    0.09 
   3  -6   6    0.70    0.13 
   3  -6   6    0.88    0.09 
  -4   6  -6   15.81    0.70 
  -4   6  -6   15.79    0.73 
  -4   6  -6   13.70    0.71 
   4  -6   6   13.39    0.72 
   4  -6   6   14.58    0.73 
   4  -6   6   13.43    0.68 
   4  -6   6   14.80    0.69 
   4  -6   6   14.97    0.68 
  -5   6  -6    0.18    0.07 
   5  -6   6    0.27    0.07 
   5  -6   6    0.25    0.05 
   5  -6   6    0.23    0.05 
   5  -6   6    0.20    0.05 
   5  -6   6    0.28    0.07 
   5   5  -6   10.96    0.56 
   5   5  -6   11.16    0.56 
   4   5  -6    0.84    0.13 
   4   5  -6    0.96    0.14 
   4   5  -6    0.85    0.15 
   4   5  -6    0.90    0.14 
   3   5  -6    0.17    0.09 
   3   5  -6    0.32    0.09 
   3   5  -6    0.13    0.19 
   3   5  -6    0.17    0.09 
   3   5  -6    0.12    0.09 
  -3  -5   6    0.19    0.07 
  -3  -5   6    0.22    0.19 
   2   5  -6    4.14    0.41 
   2   5  -6    4.38    0.33 
  -2  -5   6    4.11    0.23 
  -2  -5   6    4.67    0.41 
   1   5  -6   23.15    1.19 
   1   5  -6   21.93    1.07 
  -1  -5   6   19.87    0.98 
  -1  -5   6   22.74    1.18 
   0   5  -6   59.48    2.69 
   0  -5   6   59.74    2.79 
  -1   5  -6    3.83    0.27 
   1  -5   6    3.46    0.31 
  -2   5  -6   75.64    3.07 
  -2   5  -6   72.29    3.04 
  -2   5  -6   69.76    3.14 
   2  -5   6   69.71    3.05 
   2  -5   6   63.78    3.09 
   2  -5   6   66.90    3.23 
   2  -5   6   67.85    3.15 
   2  -5   6   68.18    3.04 
   2  -5   6   67.85    3.07 
  -3   5  -6   13.16    0.58 
  -3   5  -6   12.26    0.61 
   3  -5   6   12.66    0.65 
   3  -5   6   12.21    0.57 
   3  -5   6   10.41    0.63 
   3  -5   6   11.99    0.58 
   3  -5   6   12.03    0.71 
   3  -5   6   12.18    0.58 
  -4   5  -6    0.20    0.09 
  -4   5  -6    0.21    0.07 
   4  -5   6    0.22    0.06 
   4  -5   6    0.16    0.06 
   4  -5   6    0.12    0.06 
   4  -5   6    0.50    0.11 
   4  -5   6    0.35    0.11 
  -5   5  -6   16.86    0.75 
  -5   5  -6   16.35    0.77 
   5  -5   6   16.30    0.77 
   5  -5   6   15.63    0.73 
   5  -5   6   15.28    0.77 
   5  -5   6   15.05    0.72 
   5  -5   6   15.61    0.72 
   5   4  -6   11.59    0.61 
   5   4  -6   12.96    0.61 
   4   4  -6    4.22    0.28 
   4   4  -6    4.25    0.28 
   4   4  -6    4.57    0.29 
   3   4  -6    0.03    0.08 
   3   4  -6    0.07    0.16 
   3   4  -6    0.02    0.08 
   3   4  -6    0.10    0.09 
   3   4  -6    0.11    0.09 
  -3  -4   6    0.20    0.18 
   2   4  -6   10.23    0.68 
   2   4  -6   10.19    0.57 
  -2  -4   6   10.22    0.67 
   1   4  -6    1.24    0.14 
   1   4  -6    1.17    0.20 
  -1  -4   6    0.87    0.20 
   0   4  -6    0.19    0.12 
   0   4  -6    0.23    0.09 
   0  -4   6    0.12    0.10 
  -1   4  -6    3.75    0.24 
   1  -4   6    3.83    0.29 
   1  -4   6    3.27    0.23 
  -2   4  -6    9.43    0.51 
  -2   4  -6    8.96    0.43 
   2  -4   6    9.39    0.58 
   2  -4   6    8.74    0.51 
  -3   4  -6    1.36    0.15 
  -3   4  -6    1.45    0.11 
  -3   4  -6    1.46    0.21 
   3  -4   6    1.07    0.20 
   3  -4   6    1.20    0.12 
   3  -4   6    1.28    0.12 
   3  -4   6    1.38    0.17 
   3  -4   6    1.59    0.28 
   3  -4   6    1.05    0.18 
   3  -4   6    1.47    0.23 
   3  -4   6    1.29    0.11 
  -4   4  -6    0.10    0.09 
  -4   4  -6    0.15    0.06 
   4  -4   6    0.04    0.09 
   4  -4   6    0.13    0.06 
   4  -4   6    0.21    0.15 
   4  -4   6    0.07    0.05 
   4  -4   6    0.19    0.06 
   4  -4   6    0.23    0.10 
  -5   4  -6    4.25    0.24 
   5  -4   6    4.00    0.27 
   5  -4   6    4.10    0.23 
   5  -4   6    3.87    0.22 
   5  -4   6    4.35    0.23 
   5  -4   6    3.66    0.27 
   5   3  -6   12.64    0.61 
   5   3  -6   11.68    0.61 
   5   3  -6   11.95    0.62 
   4   3  -6   22.83    1.07 
   4   3  -6   24.01    1.08 
   4   3  -6   21.68    1.08 
   3   3  -6   34.42    1.48 
   3   3  -6   30.20    1.69 
   3   3  -6   31.52    1.48 
   3   3  -6   30.08    1.44 
   3   3  -6   33.54    1.47 
  -3  -3   6   33.65    1.71 
   2   3  -6   49.05    2.43 
  -2  -3   6   51.81    2.42 
   1   3  -6    4.66    0.28 
   1   3  -6    4.66    0.37 
  -1  -3   6    4.74    0.37 
   0   3  -6   19.31    0.97 
   0   3  -6   19.99    0.90 
   0  -3   6   17.79    0.97 
  -1   3  -6   80.40    3.58 
   1  -3   6   80.26    3.64 
   1  -3   6   81.48    3.59 
  -2   3  -6    1.26    0.14 
  -2   3  -6    1.10    0.08 
   2  -3   6    1.69    0.19 
   2  -3   6    1.61    0.16 
  -3   3  -6    8.63    0.51 
  -3   3  -6    8.99    0.41 
   3  -3   6    8.81    0.42 
   3  -3   6    8.54    0.43 
   3  -3   6    9.20    0.54 
   3  -3   6    9.22    0.61 
   3  -3   6    8.85    0.50 
   3  -3   6    8.93    0.43 
   3  -3   6    8.67    0.55 
   3  -3   6    7.92    0.49 
  -4   3  -6   23.13    1.01 
   4  -3   6   22.60    1.02 
   4  -3   6   21.90    1.02 
   4  -3   6   21.76    1.15 
   4  -3   6   21.93    1.01 
   4  -3   6   22.17    1.10 
   4  -3   6   22.22    1.09 
  -5   3  -6    0.09    0.06 
  -5   3  -6    0.17    0.09 
   5  -3   6    0.04    0.06 
   5  -3   6    0.08    0.05 
   5  -3   6    0.06    0.08 
   5  -3   6    0.20    0.15 
   5  -3   6    0.01    0.05 
   5  -3   6    0.00    0.08 
   5   2  -6   32.00    1.46 
   5   2  -6   31.57    1.46 
   4   2  -6    6.08    0.35 
   4   2  -6    5.68    0.32 
   4   2  -6    5.90    0.35 
   4   2  -6    6.05    0.35 
   3   2  -6    0.37    0.17 
   3   2  -6    0.48    0.11 
   3   2  -6    0.41    0.10 
   3   2  -6    0.73    0.11 
  -3  -2   6    0.62    0.23 
   2   2  -6   17.14    0.93 
  -2  -2   6   15.46    0.93 
   1   2  -6   34.50    1.66 
   1   2  -6   34.90    1.55 
  -1  -2   6   33.60    1.65 
   0   2  -6    1.50    0.12 
   0   2  -6    1.46    0.17 
   0  -2   6    1.81    0.18 
   0  -2   6    1.27    0.12 
  -1   2  -6   11.85    0.56 
  -1   2  -6   11.04    0.58 
   1  -2   6   11.56    0.58 
   1  -2   6   11.52    0.60 
  -2   2  -6  272.82   12.08 
   2  -2   6  281.90   12.13 
   2  -2   6  275.30   12.11 
  -3   2  -6    1.35    0.10 
  -3   2  -6    1.61    0.18 
   3  -2   6    1.46    0.19 
   3  -2   6    1.28    0.11 
   3  -2   6    1.57    0.18 
   3  -2   6    1.97    0.26 
   3  -2   6    1.38    0.12 
   3  -2   6    1.55    0.19 
   4  -2   6   52.06    2.43 
   4  -2   6   52.07    2.37 
   4  -2   6   53.34    2.29 
   4  -2   6   48.02    2.36 
   4  -2   6   52.01    2.27 
   4  -2   6   51.53    2.29 
  -5   2  -6   39.31    1.74 
   5  -2   6   39.03    1.82 
   5  -2   6   39.89    1.87 
   5  -2   6   38.63    1.81 
   5  -2   6   37.83    1.74 
   5  -2   6   39.68    1.75 
   6  -2   6    0.36    0.05 
   6  -2   6    0.31    0.06 
   6  -2   6    0.37    0.08 
   6  -2   6    0.56    0.09 
   5   1  -6    1.04    0.11 
   5   1  -6    1.11    0.19 
   5   1  -6    1.02    0.14 
   4   1  -6   -0.03    0.07 
   4   1  -6   -0.02    0.07 
   4   1  -6    0.08    0.07 
   4   1  -6    0.10    0.10 
   3   1  -6    0.39    0.10 
   3   1  -6    0.52    0.18 
   3   1  -6    0.22    0.16 
  -3  -1   6    0.29    0.20 
   2   1  -6   19.19    1.04 
   2   1  -6   19.69    1.01 
  -2  -1   6   18.36    0.98 
  -2  -1   6   19.70    1.07 
   1   1  -6    0.19    0.12 
   1   1  -6    0.02    0.05 
  -1  -1   6    0.02    0.09 
  -1  -1   6    0.08    0.09 
   0   1  -6    7.30    0.34 
   0   1  -6    6.53    0.40 
   0  -1   6    7.32    0.42 
   0  -1   6    6.40    0.37 
  -1   1  -6   23.92    1.11 
  -1   1  -6   23.36    1.14 
   1  -1   6   24.75    1.15 
   1  -1   6   25.55    1.15 
  -2   1  -6   18.59    0.88 
   2  -1   6   18.22    0.90 
   2  -1   6   18.39    0.91 
  -3   1  -6   31.21    1.50 
  -3   1  -6   36.06    1.60 
   3  -1   6   35.45    1.63 
  -4   1  -6   10.03    0.50 
  -4   1  -6    9.83    0.61 
   4  -1   6   11.79    0.60 
   4  -1   6   10.26    0.51 
   4  -1   6   10.33    0.67 
   4  -1   6   11.24    0.66 
   4  -1   6   10.90    0.60 
   4  -1   6   10.88    0.52 
  -5   1  -6    2.02    0.14 
   5  -1   6    2.04    0.15 
   5  -1   6    2.40    0.22 
   5  -1   6    1.74    0.27 
   5  -1   6    2.36    0.15 
   5  -1   6    1.81    0.20 
  -6   1  -6    0.64    0.10 
   6  -1   6    0.97    0.13 
   6  -1   6    1.03    0.08 
   6  -1   6    0.93    0.10 
   6  -1   6    1.01    0.12 
   5   0  -6    3.89    0.23 
   5   0  -6    3.77    0.23 
   5   0  -6    4.37    0.27 
   4   0  -6   53.82    2.49 
   4   0  -6   57.71    2.45 
   4   0  -6   54.09    2.44 
   4   0  -6   55.65    2.48 
   3   0  -6    2.26    0.19 
   3   0  -6    2.52    0.16 
   3   0  -6    2.34    0.20 
   3   0  -6    2.26    0.31 
   3   0  -6    2.80    0.32 
  -3   0   6    2.58    0.36 
   2   0  -6    2.58    0.27 
   2   0  -6    2.53    0.26 
  -2   0   6    2.56    0.29 
  -2   0   6    2.18    0.22 
   1   0  -6   21.33    1.05 
   1   0  -6   21.15    1.06 
  -1   0   6   21.47    1.09 
  -1   0   6   21.07    1.02 
   0   0  -6   29.23    1.35 
   0   0  -6   28.95    1.28 
   0   0   6   29.09    1.35 
   0   0   6   27.41    1.35 
  -1   0  -6  149.91    7.02 
  -1   0  -6  158.09    6.97 
   1   0   6  166.47    7.00 
   1   0   6  164.75    7.03 
  -2   0  -6    1.06    0.11 
   2   0   6    0.99    0.13 
   2   0   6    0.74    0.10 
  -3   0  -6   38.79    1.79 
   3   0   6   39.04    1.83 
  -4   0  -6   86.55    3.91 
  -4   0  -6   78.47    3.78 
   4   0   6   80.75    3.92 
   4   0   6   89.22    3.95 
   4   0   6   89.90    3.80 
   4   0   6   89.65    3.89 
   4   0   6   92.14    3.90 
   4   0   6   85.87    3.80 
  -5   0  -6    9.25    0.46 
   5   0   6   10.09    0.48 
   5   0   6    9.66    0.56 
   5   0   6    9.93    0.62 
   5   0   6   10.13    0.48 
   5   0   6   10.11    0.55 
  -6   0  -6    1.34    0.12 
   6   0   6    1.50    0.16 
   6   0   6    1.80    0.11 
   6   0   6    1.68    0.15 
   5  -1  -6    7.36    0.42 
   5  -1  -6    7.71    0.38 
   5  -1  -6    7.82    0.39 
   4  -1  -6   71.30    3.04 
   4  -1  -6   68.78    3.04 
   4  -1  -6   68.89    3.08 
   4  -1  -6   68.67    3.08 
   4  -1  -6   67.51    3.03 
   3  -1  -6   36.62    1.72 
   3  -1  -6   37.93    1.69 
   3  -1  -6   39.43    1.90 
   3  -1  -6   38.89    1.69 
   3  -1  -6   39.30    1.73 
   3  -1  -6   35.52    1.89 
  -3   1   6   38.95    1.86 
   2  -1  -6   28.33    1.41 
   2  -1  -6   27.98    1.38 
  -2   1   6   28.10    1.36 
   1  -1  -6  192.85    8.32 
   1  -1  -6  185.13    8.29 
  -1   1   6  187.40    8.28 
   0  -1  -6    1.95    0.18 
   0  -1  -6    1.63    0.10 
   0   1   6    2.12    0.18 
   0   1   6    2.03    0.19 
  -1  -1  -6  163.61    7.34 
  -1  -1  -6  166.03    7.27 
   1   1   6  174.05    7.29 
   1   1   6  163.40    7.34 
  -2  -1  -6    3.12    0.21 
  -2  -1  -6    3.77    0.25 
   2   1   6    3.75    0.26 
  -3  -1  -6   52.70    2.39 
   3   1   6   52.82    2.42 
  -4  -1  -6    9.73    0.57 
   4   1   6    9.96    0.56 
   4   1   6   10.65    0.56 
   4   1   6    9.15    0.47 
   4   1   6    9.55    0.47 
   4   1   6   10.19    0.61 
   4   1   6    8.96    0.63 
   4   1   6    9.58    0.58 
  -5  -1  -6    3.37    0.21 
   5   1   6    3.94    0.21 
   5   1   6    3.82    0.28 
   5   1   6    3.92    0.30 
   5   1   6    3.45    0.36 
   5   1   6    3.56    0.22 
   6   1   6    4.85    0.29 
   6   1   6    4.84    0.24 
   6   1   6    4.25    0.35 
   6   1   6    4.70    0.30 
   5  -2  -6   17.96    0.86 
   5  -2  -6   17.61    0.82 
   5  -2  -6   18.31    0.81 
   5  -2  -6   17.66    0.82 
   4  -2  -6    7.52    0.37 
   4  -2  -6    6.60    0.41 
   4  -2  -6    7.09    0.37 
   4  -2  -6    7.24    0.41 
   4  -2  -6    7.72    0.35 
   3  -2  -6    3.01    0.17 
   3  -2  -6    2.93    0.18 
   3  -2  -6    2.60    0.16 
   3  -2  -6    2.70    0.20 
   3  -2  -6    2.91    0.21 
   3  -2  -6    3.08    0.34 
  -3   2   6    2.95    0.33 
   2  -2  -6   16.86    0.91 
   2  -2  -6   18.04    0.96 
  -2   2   6   17.98    0.92 
   1  -2  -6   11.10    0.61 
   1  -2  -6   10.45    0.57 
  -1   2   6   10.64    0.58 
   0  -2  -6   38.11    1.76 
   0  -2  -6   40.55    1.87 
   0  -2  -6   41.67    1.82 
   0   2   6   40.20    1.87 
  -1  -2  -6    1.40    0.14 
  -1  -2  -6    1.13    0.09 
   1   2   6    1.37    0.16 
   1   2   6    0.91    0.11 
  -2  -2  -6  162.21    6.98 
  -2  -2  -6  153.72    7.02 
   2   2   6  167.14    7.04 
   2   2   6  154.71    7.04 
  -3  -2  -6    8.39    0.48 
   3   2   6    9.73    0.53 
  -4  -2  -6   21.42    1.06 
   4   2   6   21.48    1.05 
   4   2   6   21.40    0.96 
   4   2   6   22.17    1.06 
   4   2   6   21.55    1.09 
   4   2   6   19.61    1.04 
   4   2   6   20.37    1.08 
   5   2   6    7.18    0.51 
   5   2   6    6.69    0.36 
   5   2   6    7.14    0.46 
   5   2   6    7.76    0.44 
   6   2   6    1.00    0.13 
   6   2   6    0.84    0.19 
   6   2   6    1.04    0.15 
   6   2   6    1.16    0.09 
   5  -3  -6   21.14    0.97 
   5  -3  -6   21.53    0.99 
   5  -3  -6   22.37    1.02 
   5  -3  -6   21.90    0.99 
  -5   3   6   21.66    1.00 
   4  -3  -6   24.42    1.09 
   4  -3  -6   24.23    1.14 
   4  -3  -6   24.58    1.14 
   4  -3  -6   24.28    1.08 
   4  -3  -6   24.20    1.09 
  -4   3   6   22.33    1.09 
   3  -3  -6    0.16    0.08 
   3  -3  -6    0.08    0.07 
   3  -3  -6    0.16    0.06 
   3  -3  -6    0.16    0.05 
   3  -3  -6    0.10    0.14 
   3  -3  -6    0.11    0.05 
  -3   3   6    0.05    0.05 
  -3   3   6    0.07    0.17 
   2  -3  -6    0.85    0.21 
   2  -3  -6    0.69    0.15 
  -2   3   6    0.84    0.19 
   1  -3  -6   64.04    2.94 
   1  -3  -6   67.80    2.99 
  -1   3   6   63.69    2.96 
   0  -3  -6   58.16    2.48 
   0  -3  -6   55.41    2.55 
   0   3   6   53.58    2.44 
   0   3   6   55.12    2.55 
  -1  -3  -6   11.39    0.59 
   1   3   6   10.59    0.61 
   1   3   6   10.88    0.55 
  -2  -3  -6   49.59    2.28 
   2   3   6   49.59    2.28 
   2   3   6   50.06    2.28 
  -3  -3  -6   37.31    1.81 
  -3  -3  -6   39.06    1.76 
   3   3   6   38.99    1.86 
   3   3   6   37.96    1.79 
  -4  -3  -6    0.15    0.12 
   4   3   6    0.28    0.12 
   4   3   6    0.23    0.06 
   4   3   6    0.24    0.13 
   4   3   6    0.20    0.11 
   4   3   6    0.22    0.11 
   5   3   6   28.20    1.43 
   5   3   6   28.99    1.38 
   5   3   6   26.62    1.36 
   5   3   6   28.73    1.27 
   5   3   6   28.80    1.35 
   6   3   6    2.03    0.18 
   6   3   6    2.07    0.19 
   6   3   6    2.10    0.27 
   5  -4  -6    1.06    0.14 
   5  -4  -6    0.84    0.10 
   5  -4  -6    1.02    0.10 
   5  -4  -6    0.75    0.08 
  -5   4   6    1.03    0.14 
   4  -4  -6   26.06    1.21 
   4  -4  -6   25.26    1.20 
   4  -4  -6   26.46    1.15 
   4  -4  -6   26.19    1.16 
   4  -4  -6   24.69    1.18 
   4  -4  -6   25.76    1.16 
  -4   4   6   24.61    1.17 
   3  -4  -6    8.14    0.58 
   3  -4  -6    7.81    0.43 
   3  -4  -6    7.82    0.38 
   3  -4  -6    8.09    0.43 
   3  -4  -6    7.56    0.41 
   3  -4  -6    8.23    0.39 
   3  -4  -6    7.95    0.39 
  -3   4   6    7.93    0.40 
  -3   4   6    7.88    0.60 
   2  -4  -6    3.46    0.29 
  -2   4   6    2.64    0.17 
  -2   4   6    3.29    0.31 
   1  -4  -6   13.24    0.68 
   1  -4  -6   13.19    0.73 
  -1   4   6   12.08    0.70 
   0  -4  -6   15.65    0.73 
   0  -4  -6   15.73    0.81 
   0   4   6   14.67    0.80 
   0   4   6   14.46    0.70 
  -1  -4  -6   16.34    0.84 
   1   4   6   16.92    0.88 
   1   4   6   16.26    0.79 
  -2  -4  -6   36.59    1.72 
   2   4   6   35.54    1.70 
   2   4   6   36.15    1.69 
  -3  -4  -6    4.59    0.36 
   3   4   6    4.86    0.38 
   3   4   6    4.64    0.32 
  -4  -4  -6    5.10    0.36 
   4   4   6    4.90    0.47 
   4   4   6    5.24    0.36 
   4   4   6    4.69    0.27 
   4   4   6    5.85    0.36 
   4   4   6    4.85    0.37 
   4   4   6    5.10    0.36 
   4   4   6    5.36    0.37 
   5   4   6    1.41    0.19 
   5   4   6    1.87    0.27 
   5   4   6    1.60    0.26 
   5   4   6    1.69    0.23 
   6   4   6    4.99    0.30 
   6   4   6    5.13    0.33 
   6   4   6    5.09    0.40 
   5  -5  -6   34.42    1.54 
   5  -5  -6   33.77    1.54 
   5  -5  -6   35.41    1.53 
   5  -5  -6   34.21    1.57 
  -5   5   6   35.32    1.56 
   4  -5  -6    0.43    0.10 
   4  -5  -6    0.42    0.08 
   4  -5  -6    0.34    0.11 
   4  -5  -6    0.41    0.07 
   4  -5  -6    0.47    0.07 
   4  -5  -6    0.42    0.08 
  -4   5   6    0.25    0.08 
   3  -5  -6    7.49    0.41 
   3  -5  -6    8.00    0.37 
   3  -5  -6    7.04    0.40 
   3  -5  -6    7.89    0.43 
   3  -5  -6    7.58    0.38 
   3  -5  -6    7.77    0.37 
  -3   5   6    7.64    0.39 
   2  -5  -6  110.38    4.76 
   2  -5  -6  106.25    4.62 
   2  -5  -6  104.07    4.69 
   2  -5  -6  101.83    4.58 
  -2   5   6  102.23    4.60 
  -2   5   6  105.78    4.79 
   1  -5  -6   12.68    0.68 
   1  -5  -6   12.93    0.75 
  -1   5   6   12.57    0.72 
   0  -5  -6    0.01    0.09 
   0  -5  -6    0.19    0.07 
   0   5   6    0.01    0.11 
  -1  -5  -6  101.72    4.59 
   1   5   6  105.40    4.64 
   1   5   6  100.63    4.53 
  -2  -5  -6   38.32    1.78 
   2   5   6   37.21    1.76 
   2   5   6   35.82    1.74 
  -3  -5  -6    3.94    0.22 
  -3  -5  -6    5.16    0.39 
   3   5   6    4.67    0.37 
   3   5   6    5.10    0.33 
  -4  -5  -6   20.47    1.05 
   4   5   6   20.09    1.04 
   4   5   6   22.16    1.04 
   4   5   6   21.57    1.05 
   4   5   6   19.12    1.16 
   4   5   6   20.05    1.01 
   5   5   6    2.52    0.29 
   5   5   6    2.78    0.24 
   5   5   6    2.35    0.26 
   5   5   6    2.41    0.27 
   6   5   6    0.21    0.14 
   6   5   6    0.14    0.08 
   6   5   6    0.16    0.10 
   5  -6  -6   16.87    0.75 
   5  -6  -6   15.51    0.75 
   5  -6  -6   16.92    0.77 
   5  -6  -6   16.73    0.74 
   4  -6  -6    0.42    0.08 
   4  -6  -6    0.61    0.08 
   4  -6  -6    0.58    0.07 
   4  -6  -6    0.55    0.11 
   4  -6  -6    0.49    0.07 
  -4   6   6    0.36    0.14 
  -4   6   6    0.47    0.09 
   3  -6  -6    8.31    0.42 
   3  -6  -6    8.41    0.41 
   3  -6  -6    8.78    0.46 
   3  -6  -6    8.62    0.41 
   3  -6  -6    8.15    0.46 
   3  -6  -6    8.46    0.45 
  -3   6   6    8.63    0.44 
   2  -6  -6   23.08    1.05 
   2  -6  -6   23.01    1.19 
   2  -6  -6   22.48    1.01 
   2  -6  -6   21.87    1.01 
   2  -6  -6   23.07    1.04 
   2  -6  -6   22.56    1.02 
   2  -6  -6   21.34    1.05 
  -2   6   6   23.01    1.04 
  -2   6   6   22.47    1.23 
   1  -6  -6    3.76    0.37 
   1  -6  -6    4.50    0.32 
  -1   6   6    3.67    0.34 
  -1   6   6    3.66    0.23 
   0  -6  -6    9.77    0.52 
   0  -6  -6    9.68    0.59 
   0   6   6    9.10    0.60 
  -1  -6  -6  111.80    5.24 
   1   6   6  124.03    5.17 
   1   6   6  114.99    5.28 
  -2  -6  -6  157.90    6.98 
  -2  -6  -6  142.66    6.83 
   2   6   6  162.71    6.95 
   2   6   6  162.92    6.94 
  -3  -6  -6   13.18    0.60 
  -3  -6  -6   14.08    0.80 
   3   6   6   13.64    0.71 
   3   6   6   13.41    0.68 
   3   6   6   12.31    0.65 
   3   6   6   13.75    0.77 
   3   6   6   12.12    0.67 
  -4  -6  -6   12.42    0.82 
  -4  -6  -6   12.30    0.59 
   4   6   6   12.55    0.69 
   4   6   6   13.34    0.70 
   4   6   6   13.06    0.67 
   4   6   6   12.82    0.69 
  -5  -6  -6   26.77    1.23 
   5   6   6   27.30    1.37 
   5   6   6   28.15    1.35 
   5   6   6   27.46    1.32 
   5   6   6   27.75    1.31 
  -6  -6  -6    0.15    0.08 
   6   6   6    0.32    0.14 
   6   6   6    0.27    0.15 
   6   6   6    0.27    0.11 
   4  -7  -6   10.43    0.54 
   4  -7  -6   10.92    0.50 
   4  -7  -6   10.26    0.52 
   4  -7  -6   10.08    0.50 
   4  -7  -6   11.71    0.50 
  -4   7   6   10.91    0.54 
  -4   7   6    9.22    0.57 
   3  -7  -6    0.93    0.12 
   3  -7  -6    1.01    0.12 
   3  -7  -6    0.89    0.09 
   3  -7  -6    1.12    0.10 
   3  -7  -6    0.99    0.14 
   3  -7  -6    1.19    0.14 
  -3   7   6    1.02    0.14 
  -3   7   6    1.08    0.19 
   2  -7  -6    3.36    0.34 
   2  -7  -6    3.43    0.18 
   2  -7  -6    3.15    0.21 
   2  -7  -6    2.95    0.19 
   2  -7  -6    3.13    0.18 
   2  -7  -6    3.31    0.23 
   2  -7  -6    3.15    0.21 
  -2   7   6    2.65    0.27 
  -2   7   6    3.19    0.42 
  -2   7   6    3.30    0.22 
   1  -7  -6   13.68    0.64 
   1  -7  -6   12.46    0.63 
   1  -7  -6   14.03    0.75 
  -1   7   6   12.94    0.69 
  -1   7   6   12.27    0.63 
  -1   7   6   14.66    0.83 
   0  -7  -6    1.13    0.22 
   0   7   6    1.24    0.28 
  -1  -7  -6   33.90    1.65 
   1   7   6   34.24    1.69 
   1   7   6   32.95    1.57 
  -2  -7  -6    4.02    0.35 
  -2  -7  -6    3.44    0.19 
   2   7   6    3.64    0.31 
   2   7   6    3.23    0.28 
  -3  -7  -6   11.83    0.73 
  -3  -7  -6   11.60    0.53 
   3   7   6   10.53    0.60 
   3   7   6   10.93    0.64 
   3   7   6   10.83    0.58 
   3   7   6   11.21    0.56 
   3   7   6   12.02    0.60 
   3   7   6   11.55    0.69 
  -4  -7  -6   12.11    0.58 
   4   7   6   12.91    0.68 
   4   7   6   11.67    0.68 
   4   7   6   11.65    0.62 
   4   7   6   13.15    0.69 
   4   7   6   13.38    0.66 
  -5  -7  -6    0.27    0.06 
   5   7   6    0.42    0.12 
   5   7   6    0.32    0.13 
   5   7   6    0.40    0.13 
   5   7   6    0.29    0.12 
  -6  -7  -6    0.07    0.05 
   6   7   6    0.10    0.13 
   6   7   6    0.07    0.10 
   6   7   6    0.10    0.12 
   4  -8  -6   33.92    1.44 
   4  -8  -6   31.81    1.47 
   4  -8  -6   30.33    1.43 
   4  -8  -6   33.49    1.44 
  -4   8   6   29.99    1.51 
  -4   8   6   34.59    1.48 
   3  -8  -6   20.86    0.97 
   3  -8  -6   21.46    0.94 
   3  -8  -6   19.91    0.99 
   3  -8  -6   20.30    0.97 
   3  -8  -6   20.73    0.94 
   3  -8  -6   20.56    0.93 
  -3   8   6   19.78    1.04 
  -3   8   6   20.82    0.98 
   2  -8  -6    5.46    0.31 
   2  -8  -6    5.31    0.31 
   2  -8  -6    5.75    0.33 
   2  -8  -6    5.33    0.28 
   2  -8  -6    5.46    0.28 
   2  -8  -6    5.17    0.29 
  -2   8   6    5.28    0.32 
  -2   8   6    5.34    0.39 
   1  -8  -6   36.09    1.57 
   1  -8  -6   32.92    1.53 
   1  -8  -6   35.30    1.56 
   1  -8  -6   35.24    1.70 
  -1   8   6   32.66    1.57 
  -1   8   6   35.61    1.79 
  -1   8   6   36.65    1.64 
  -1   8   6   32.51    1.57 
   0  -8  -6   28.51    1.53 
   0  -8  -6   29.96    1.35 
   0   8   6   30.34    1.42 
   0   8   6   30.74    1.59 
  -1  -8  -6   32.87    1.60 
  -1  -8  -6   37.32    1.80 
   1   8   6   38.82    1.70 
   1   8   6   35.81    1.82 
  -2  -8  -6    3.48    0.19 
  -2  -8  -6    3.49    0.36 
   2   8   6    2.80    0.33 
   2   8   6    3.66    0.25 
   2   8   6    4.02    0.31 
   2   8   6    3.56    0.23 
   2   8   6    3.40    0.25 
  -3  -8  -6   44.06    1.81 
  -3  -8  -6   41.78    2.06 
   3   8   6   41.26    1.84 
   3   8   6   40.67    1.89 
   3   8   6   39.21    1.98 
   3   8   6   37.11    1.85 
   3   8   6   41.26    1.87 
   3   8   6   39.86    1.92 
  -4  -8  -6   13.63    0.60 
   4   8   6   12.03    0.64 
   4   8   6   12.63    0.69 
   4   8   6   13.03    0.70 
   4   8   6   12.82    0.67 
   4   8   6   12.74    0.71 
  -5  -8  -6    3.40    0.19 
   5   8   6    3.10    0.27 
   5   8   6    3.28    0.29 
   5   8   6    3.47    0.29 
   6   8   6    4.26    0.32 
   6   8   6    3.82    0.29 
   6   8   6    4.37    0.27 
   4  -9  -6    7.17    0.36 
   4  -9  -6    8.09    0.39 
   4  -9  -6    7.40    0.35 
   4  -9  -6    7.35    0.36 
  -4   9   6    7.81    0.43 
   3  -9  -6   18.36    0.85 
   3  -9  -6   17.80    0.89 
   3  -9  -6   19.03    0.85 
   3  -9  -6   18.69    0.89 
   3  -9  -6   18.77    0.85 
  -3   9   6   19.25    0.96 
   2  -9  -6    1.65    0.17 
   2  -9  -6    1.74    0.14 
   2  -9  -6    1.79    0.15 
   2  -9  -6    1.77    0.13 
  -2   9   6    1.65    0.19 
  -2   9   6    1.82    0.25 
  -2   9   6    1.61    0.23 
   1  -9  -6    4.00    0.24 
   1  -9  -6    4.00    0.25 
   1  -9  -6    3.22    0.21 
  -1   9   6    3.64    0.26 
  -1   9   6    3.69    0.64 
  -1   9   6    4.45    0.34 
   0  -9  -6    1.85    0.14 
   0  -9  -6    1.55    0.15 
   0   9   6    1.78    0.17 
   0   9   6    1.33    0.57 
   0   9   6    1.56    0.25 
  -1  -9  -6   17.22    0.82 
  -1  -9  -6   17.31    0.82 
  -1  -9  -6   17.83    1.02 
   1   9   6   17.54    0.85 
   1   9   6   16.44    0.92 
   1   9   6   19.11    0.86 
  -2  -9  -6    1.15    0.12 
  -2  -9  -6    1.29    0.11 
  -2  -9  -6    1.23    0.12 
  -2  -9  -6    1.27    0.28 
   2   9   6    1.39    0.15 
   2   9   6    1.04    0.16 
   2   9   6    1.50    0.25 
   2   9   6    0.90    0.21 
   2   9   6    1.44    0.17 
  -3  -9  -6    1.80    0.12 
   3   9   6    1.37    0.19 
   3   9   6    1.43    0.19 
   3   9   6    1.47    0.20 
   3   9   6    1.23    0.21 
   3   9   6    1.41    0.16 
  -4  -9  -6   33.24    1.41 
   4   9   6   31.78    1.52 
   4   9   6   29.61    1.49 
   4   9   6   32.49    1.48 
   4   9   6   30.00    1.45 
  -5  -9  -6    2.04    0.14 
   5   9   6    1.99    0.22 
   5   9   6    1.95    0.22 
   5   9   6    1.90    0.21 
   6   9   6    2.57    0.23 
   6   9   6    2.38    0.24 
   3 -10  -6    6.42    0.34 
   3 -10  -6    6.28    0.34 
   3 -10  -6    6.01    0.30 
   3 -10  -6    6.02    0.30 
  -3  10   6    6.26    0.41 
   2 -10  -6    0.38    0.07 
   2 -10  -6    0.37    0.10 
   2 -10  -6    0.32    0.08 
  -2  10   6    0.30    0.15 
  -2  10   6    0.28    0.11 
   1 -10  -6   11.60    0.57 
   1 -10  -6   10.33    0.55 
  -1  10   6   11.28    0.57 
  -1  10   6   11.66    0.66 
   0 -10  -6   99.56    4.27 
   0 -10  -6   92.16    4.26 
   0  10   6   99.39    4.37 
   0  10   6   96.22    4.29 
  -1 -10  -6   10.17    0.75 
  -1 -10  -6   11.33    0.54 
  -1 -10  -6   10.96    0.53 
   1  10   6   10.81    0.66 
   1  10   6   10.65    0.56 
  -2 -10  -6   51.74    2.29 
  -2 -10  -6   50.34    2.29 
  -2 -10  -6   50.90    2.27 
   2  10   6   54.55    2.32 
   2  10   6   52.34    2.32 
   2  10   6   51.04    2.34 
   2  10   6   48.12    2.39 
  -3 -10  -6   49.45    2.15 
  -3 -10  -6   50.55    2.13 
   3  10   6   48.52    2.18 
   3  10   6   43.19    2.17 
   3  10   6   48.85    2.24 
   3  10   6   48.70    2.20 
   3  10   6   46.78    2.22 
  -4 -10  -6    1.51    0.14 
   4  10   6    1.56    0.16 
   4  10   6    1.59    0.20 
   4  10   6    1.77    0.22 
   4  10   6    1.55    0.19 
  -5 -10  -6    9.72    0.48 
  -5 -10  -6   10.09    0.47 
   5  10   6   11.05    0.56 
   5  10   6    9.88    0.56 
   5  10   6    8.99    0.49 
   5  10   6    9.89    0.53 
   3 -11  -6    5.79    0.31 
  -3  11   6    5.96    0.38 
   2 -11  -6    4.60    0.29 
   2 -11  -6    4.73    0.27 
  -2  11   6    5.25    0.38 
  -2  11   6    4.23    0.28 
   1 -11  -6    0.91    0.12 
   1 -11  -6    1.03    0.13 
  -1  11   6    1.03    0.21 
  -1  11   6    0.94    0.14 
   0 -11  -6    1.55    0.15 
   0 -11  -6    1.35    0.17 
   0  11   6    1.35    0.17 
   0  11   6    1.84    0.29 
  -1 -11  -6    2.22    0.16 
  -1 -11  -6    1.69    0.16 
   1  11   6    1.65    0.26 
   1  11   6    2.29    0.20 
  -2 -11  -6    0.02    0.06 
  -2 -11  -6   -0.01    0.06 
   2  11   6    0.01    0.18 
   2  11   6    0.05    0.08 
   2  11   6    0.02    0.09 
   2  11   6    0.10    0.10 
  -3 -11  -6   35.68    1.66 
  -3 -11  -6   34.82    1.63 
  -3 -11  -6   35.29    1.65 
   3  11   6   37.35    1.68 
   3  11   6   39.01    1.73 
   3  11   6   37.18    1.68 
   3  11   6   36.37    1.70 
  -4 -11  -6    3.72    0.23 
  -4 -11  -6    3.97    0.25 
   4  11   6    4.89    0.28 
   4  11   6    4.76    0.31 
   4  11   6    4.49    0.33 
  -5 -11  -6    0.69    0.08 
  -5 -11  -6    0.53    0.08 
   5  11   6    0.48    0.12 
   5  11   6    0.53    0.12 
   5  11   6    0.51    0.11 
   2 -12  -6    1.06    0.13 
   2 -12  -6    0.84    0.11 
  -2  12   6    1.03    0.19 
   1 -12  -6    0.85    0.11 
   1 -12  -6    0.63    0.10 
  -1  12   6    0.68    0.12 
  -1  12   6    0.82    0.20 
   0 -12  -6    0.06    0.06 
   0  12   6   -0.03    0.08 
   0  12   6    0.01    0.17 
  -1 -12  -6    5.54    0.32 
  -1 -12  -6    5.49    0.32 
   1  12   6    5.63    0.44 
   1  12   6    5.72    0.35 
  -2 -12  -6    7.21    0.39 
  -2 -12  -6    7.43    0.39 
   2  12   6    7.16    0.52 
   2  12   6    7.67    0.45 
   2  12   6    7.62    0.43 
  -3 -12  -6    4.42    0.25 
  -3 -12  -6    4.99    0.27 
  -3 -12  -6    4.68    0.26 
   3  12   6    4.52    0.31 
   3  12   6    4.74    0.30 
   3  12   6    4.82    0.33 
  -4 -12  -6    1.89    0.14 
  -4 -12  -6    1.75    0.12 
   4  12   6    1.78    0.16 
   4  12   6    1.77    0.20 
   4  12   6    1.68    0.19 
   4  12   6    1.66    0.19 
   5  12   6    0.06    0.09 
   5  12   6   -0.03    0.08 
  -2  13   6   21.35    1.15 
   1 -13  -6    9.72    0.50 
   1 -13  -6    8.64    0.48 
  -1  13   6   10.12    0.50 
  -1  13   6   11.55    0.60 
   0 -13  -6    2.10    0.16 
   0  13   6    1.88    0.28 
   0  13   6    2.15    0.19 
  -1 -13  -6   27.62    1.31 
  -1 -13  -6   29.69    1.32 
   1  13   6   29.33    1.35 
   1  13   6   28.16    1.39 
  -2 -13  -6   26.93    1.25 
  -2 -13  -6   27.20    1.25 
   2  13   6   27.83    1.30 
  -3 -13  -6    1.21    0.13 
   3  13   6    1.39    0.16 
   3  13   6    1.19    0.16 
  -4 -13  -6    9.70    0.46 
   4  13   6    8.58    0.49 
   4  13   6   10.26    0.52 
   1 -14  -6    1.05    0.13 
   0 -14  -6   11.19    0.55 
   0  14   6   11.51    0.57 
   0  14   6   11.19    0.61 
  -1 -14  -6    3.69    0.23 
   1  14   6    3.86    0.26 
  -2 -14  -6   11.06    0.55 
  -2 -14  -6   11.24    0.56 
   2  14   6   12.13    0.60 
  -3 -14  -6   14.82    0.65 
  -3 -14  -6   12.31    0.64 
   3  14   6   14.74    0.70 
   3  14   6   13.75    0.68 
  -1 -15  -6    8.28    0.42 
   1  15   6    8.79    0.44 
  -2 -15  -6    4.62    0.26 
   1  13  -7    2.98    0.19 
  -1 -13   7    2.99    0.18 
   0  13  -7   12.93    0.61 
   0 -13   7   12.80    0.60 
   3  12  -7    0.15    0.08 
  -3 -12   7    0.22    0.05 
   2  12  -7    0.00    0.07 
   2  12  -7    0.03    0.09 
  -2 -12   7    0.03    0.06 
  -2 -12   7    0.04    0.05 
   1  12  -7    0.85    0.12 
  -1 -12   7    0.97    0.11 
  -1 -12   7    0.90    0.12 
   0  12  -7    0.15    0.07 
   0 -12   7    0.22    0.07 
  -1  12  -7    4.73    0.27 
   1 -12   7    4.69    0.26 
  -4 -11   7    0.38    0.07 
   3  11  -7    0.14    0.09 
   3  11  -7    0.15    0.07 
   3  11  -7    0.19    0.06 
   3  11  -7    0.15    0.08 
  -3 -11   7    0.23    0.07 
  -3 -11   7    0.10    0.06 
  -3 -11   7    0.15    0.08 
   2  11  -7    0.72    0.11 
   2  11  -7    0.44    0.10 
   2  11  -7    0.64    0.13 
  -2 -11   7    0.64    0.11 
  -2 -11   7    0.77    0.11 
   1  11  -7    7.91    0.43 
   1  11  -7    7.81    0.51 
  -1 -11   7    8.14    0.42 
  -1 -11   7    8.03    0.44 
   0  11  -7    9.06    0.48 
   0 -11   7    9.13    0.48 
  -1  11  -7    3.10    0.29 
  -1  11  -7    4.23    0.25 
   1 -11   7    3.84    0.24 
   1 -11   7    3.63    0.21 
  -2  11  -7    3.51    0.22 
  -2  11  -7    4.20    0.23 
   2 -11   7    3.71    0.21 
   4  10  -7    3.49    0.24 
   4  10  -7    3.55    0.21 
   4  10  -7    3.41    0.22 
  -4 -10   7    3.79    0.20 
   3  10  -7    0.09    0.06 
   3  10  -7   -0.08    0.09 
   3  10  -7    0.06    0.08 
   3  10  -7    0.03    0.08 
  -3 -10   7    0.03    0.08 
  -3 -10   7    0.03    0.05 
   2  10  -7    4.60    0.31 
   2  10  -7    5.06    0.30 
   2  10  -7    5.19    0.31 
  -2 -10   7    4.60    0.27 
  -2 -10   7    4.83    0.31 
   1  10  -7    6.78    0.38 
   1  10  -7    6.11    0.38 
   1  10  -7    6.98    0.38 
  -1 -10   7    6.70    0.39 
  -1 -10   7    5.95    0.36 
   0  10  -7    7.76    0.42 
   0 -10   7    7.42    0.42 
   0 -10   7    7.34    0.38 
  -1  10  -7    6.47    0.37 
  -1  10  -7    6.01    0.35 
   1 -10   7    6.08    0.36 
   1 -10   7    6.69    0.33 
  -2  10  -7   18.25    0.86 
  -2  10  -7   18.51    0.87 
   2 -10   7   18.17    0.86 
   2 -10   7   17.89    0.83 
  -3  10  -7    0.73    0.11 
  -3  10  -7    0.75    0.10 
   3 -10   7    0.56    0.07 
   4   9  -7    1.78    0.15 
   4   9  -7    1.46    0.15 
   4   9  -7    1.75    0.18 
  -4  -9   7    1.62    0.17 
  -4  -9   7    1.75    0.13 
   3   9  -7    4.10    0.29 
   3   9  -7    4.08    0.27 
   3   9  -7    4.20    0.29 
   3   9  -7    4.04    0.28 
   3   9  -7    4.45    0.29 
  -3  -9   7    4.40    0.25 
  -3  -9   7    4.27    0.28 
   2   9  -7    7.15    0.39 
   2   9  -7    6.34    0.39 
   2   9  -7    6.12    0.38 
   2   9  -7    6.74    0.40 
  -2  -9   7    6.72    0.40 
  -2  -9   7    7.31    0.36 
   1   9  -7    0.15    0.09 
   1   9  -7    0.18    0.10 
   1   9  -7    0.16    0.08 
  -1  -9   7    0.19    0.09 
   0   9  -7   20.27    0.96 
   0  -9   7   19.17    0.97 
   0  -9   7   20.42    0.92 
  -1   9  -7   13.73    0.69 
  -1   9  -7   14.75    0.71 
   1  -9   7   14.19    0.67 
   1  -9   7   13.63    0.70 
  -2   9  -7   20.94    1.00 
  -2   9  -7   22.46    1.01 
   2  -9   7   21.22    0.97 
   2  -9   7   20.30    1.00 
  -3   9  -7   16.87    0.81 
  -3   9  -7   17.76    0.80 
   3  -9   7   16.27    0.78 
   5   8  -7    0.02    0.06 
   5   8  -7   -0.02    0.04 
   4   8  -7    0.26    0.07 
   4   8  -7    0.25    0.08 
   4   8  -7    0.22    0.09 
   4   8  -7    0.21    0.10 
  -4  -8   7    0.21    0.06 
  -4  -8   7    0.16    0.09 
   3   8  -7    0.23    0.08 
   3   8  -7    0.11    0.08 
   3   8  -7    0.15    0.09 
   3   8  -7    0.18    0.09 
  -3  -8   7    0.25    0.07 
  -3  -8   7    0.21    0.09 
   2   8  -7    4.29    0.29 
   2   8  -7    4.80    0.31 
   2   8  -7    5.03    0.32 
   2   8  -7    4.20    0.30 
   2   8  -7    4.37    0.30 
  -2  -8   7    4.76    0.26 
  -2  -8   7    4.84    0.31 
   1   8  -7   10.75    0.60 
   1   8  -7   12.53    0.61 
   1   8  -7   11.90    0.61 
  -1  -8   7   11.88    0.61 
  -1  -8   7   11.80    0.57 
  -1  -8   7   12.11    0.57 
   0   8  -7    2.37    0.19 
   0   8  -7    1.81    0.22 
   0  -8   7    2.02    0.16 
   0  -8   7    2.19    0.20 
  -1   8  -7   32.03    1.51 
  -1   8  -7   34.62    1.53 
   1  -8   7   32.43    1.53 
   1  -8   7   33.60    1.49 
  -2   8  -7   34.06    1.54 
  -2   8  -7   35.18    1.54 
   2  -8   7   33.46    1.51 
   2  -8   7   31.15    1.53 
  -3   8  -7    0.14    0.09 
  -3   8  -7    0.06    0.08 
   3  -8   7    0.09    0.06 
   3  -8   7    0.06    0.08 
  -4   8  -7   14.26    0.81 
  -4   8  -7   17.82    0.76 
   4  -8   7   16.32    0.74 
   5   7  -7    2.00    0.14 
   5   7  -7    1.68    0.15 
  -5  -7   7    1.56    0.12 
   4   7  -7    5.37    0.33 
   4   7  -7    5.86    0.33 
   4   7  -7    5.51    0.34 
   4   7  -7    5.87    0.37 
  -4  -7   7    5.56    0.30 
   3   7  -7    0.31    0.09 
   3   7  -7    0.29    0.10 
   3   7  -7    0.28    0.11 
   3   7  -7    0.47    0.12 
  -3  -7   7    0.40    0.08 
   2   7  -7    2.05    0.19 
   2   7  -7    2.02    0.19 
   2   7  -7    1.94    0.19 
   2   7  -7    1.52    0.37 
   2   7  -7    2.08    0.31 
   2   7  -7    1.92    0.20 
   2   7  -7    2.47    0.21 
  -2  -7   7    1.46    0.33 
  -2  -7   7    2.05    0.15 
  -2  -7   7    1.61    0.37 
   1   7  -7    0.19    0.08 
   1   7  -7    0.27    0.10 
   1   7  -7    0.40    0.14 
   1   7  -7    0.23    0.10 
  -1  -7   7    0.20    0.06 
  -1  -7   7    0.17    0.08 
  -1  -7   7    0.29    0.18 
  -1  -7   7    0.27    0.09 
   0   7  -7    1.26    0.18 
   0   7  -7    1.11    0.15 
   0   7  -7    1.42    0.20 
   0  -7   7    1.95    0.29 
   0  -7   7    1.22    0.12 
   0  -7   7    1.13    0.15 
  -1   7  -7   33.22    1.40 
  -1   7  -7   28.84    1.38 
  -1   7  -7   27.65    1.46 
   1  -7   7   31.75    1.37 
   1  -7   7   31.66    1.40 
   1  -7   7   28.05    1.60 
  -2   7  -7    0.64    0.11 
  -2   7  -7    0.76    0.12 
   2  -7   7    0.89    0.10 
   2  -7   7    0.69    0.11 
   2  -7   7    0.95    0.14 
   2  -7   7    0.68    0.11 
  -3   7  -7    0.10    0.08 
  -3   7  -7    0.09    0.08 
   3  -7   7    0.07    0.07 
   3  -7   7    0.03    0.05 
   3  -7   7    0.03    0.07 
  -4   7  -7    4.81    0.27 
  -4   7  -7    4.28    0.26 
   4  -7   7    4.03    0.25 
   4  -7   7    4.25    0.26 
   4  -7   7    4.16    0.24 
   4  -7   7    4.45    0.23 
   5   6  -7   10.35    0.48 
   5   6  -7   10.21    0.49 
  -5  -6   7    8.29    0.45 
   4   6  -7    0.94    0.13 
   4   6  -7    0.76    0.12 
   4   6  -7    0.83    0.13 
   4   6  -7    0.85    0.15 
  -4  -6   7    0.88    0.11 
   3   6  -7    3.34    0.25 
   3   6  -7    3.44    0.26 
   3   6  -7    3.40    0.24 
   3   6  -7    3.81    0.26 
  -3  -6   7    3.20    0.20 
   2   6  -7    9.92    0.78 
   2   6  -7   11.21    0.57 
   2   6  -7   10.96    0.56 
   2   6  -7   11.33    0.56 
   2   6  -7   10.18    0.53 
   2   6  -7   11.75    0.66 
   2   6  -7   12.55    0.58 
  -2  -6   7   10.35    0.74 
  -2  -6   7   10.92    0.53 
  -2  -6   7   10.26    0.55 
   1   6  -7    1.35    0.17 
   1   6  -7    1.10    0.27 
   1   6  -7    0.96    0.18 
   1   6  -7    1.01    0.14 
   1   6  -7    1.18    0.15 
   1   6  -7    1.02    0.17 
  -1  -6   7    1.28    0.11 
  -1  -6   7    1.04    0.24 
   0   6  -7   13.76    0.64 
   0   6  -7   12.59    0.67 
   0   6  -7   13.37    0.70 
   0  -6   7   12.81    0.62 
   0  -6   7   12.74    0.81 
   0  -6   7   12.85    0.64 
  -1   6  -7    0.95    0.12 
  -1   6  -7    0.87    0.17 
   1  -6   7    0.77    0.12 
   1  -6   7    0.90    0.10 
   1  -6   7    0.85    0.23 
  -2   6  -7    3.80    0.32 
  -2   6  -7    4.64    0.26 
  -2   6  -7    3.84    0.23 
   2  -6   7    3.85    0.26 
   2  -6   7    3.46    0.27 
   2  -6   7    4.24    0.23 
   2  -6   7    4.48    0.25 
   2  -6   7    3.88    0.42 
  -3   6  -7    2.17    0.18 
  -3   6  -7    2.02    0.16 
   3  -6   7    2.21    0.17 
   3  -6   7    2.11    0.20 
   3  -6   7    2.14    0.15 
   3  -6   7    1.93    0.20 
  -4   6  -7    0.23    0.09 
  -4   6  -7    0.28    0.07 
  -4   6  -7    0.40    0.09 
   4  -6   7    0.27    0.09 
   4  -6   7    0.19    0.06 
   4  -6   7    0.29    0.09 
   4  -6   7    0.26    0.07 
   4  -6   7    0.19    0.06 
  -5   6  -7    0.77    0.10 
   5  -6   7    0.47    0.06 
   5   5  -7   -0.01    0.06 
   5   5  -7    0.02    0.08 
   4   5  -7    8.33    0.45 
   4   5  -7    8.59    0.45 
   4   5  -7    7.89    0.44 
   4   5  -7    8.34    0.47 
  -4  -5   7    7.55    0.40 
   3   5  -7   52.80    2.16 
   3   5  -7   40.12    2.45 
   3   5  -7   49.98    2.15 
   3   5  -7   48.04    2.15 
   3   5  -7   49.32    2.15 
  -3  -5   7   43.05    2.36 
  -3  -5   7   47.91    2.10 
   2   5  -7   35.35    2.08 
   2   5  -7   41.45    1.85 
   2   5  -7   42.06    1.86 
   2   5  -7   44.20    1.87 
   2   5  -7   41.39    1.85 
  -2  -5   7   39.73    1.82 
  -2  -5   7   42.36    2.06 
   1   5  -7    7.16    0.55 
   1   5  -7    7.83    0.45 
  -1  -5   7    7.51    0.54 
  -1  -5   7    6.93    0.36 
   0   5  -7  101.71    4.49 
   0  -5   7   99.95    4.61 
  -1   5  -7   91.09    4.02 
   1  -5   7   89.03    4.14 
  -2   5  -7    1.30    0.20 
  -2   5  -7    1.28    0.13 
  -2   5  -7    1.14    0.11 
   2  -5   7    0.91    0.17 
   2  -5   7    0.84    0.18 
   2  -5   7    1.01    0.12 
   2  -5   7    1.09    0.10 
   2  -5   7    0.98    0.23 
   2  -5   7    0.95    0.15 
  -3   5  -7   41.42    1.74 
  -3   5  -7   40.34    1.77 
   3  -5   7   38.40    1.75 
   3  -5   7   39.73    1.87 
   3  -5   7   39.75    1.74 
   3  -5   7   39.40    1.80 
   3  -5   7   37.01    1.74 
   3  -5   7   35.47    1.79 
  -4   5  -7   12.95    0.56 
  -4   5  -7   11.57    0.58 
   4  -5   7   10.41    0.55 
   4  -5   7   11.40    0.56 
   4  -5   7   10.87    0.60 
   4  -5   7   11.72    0.61 
   4  -5   7   11.76    0.55 
  -5   5  -7    1.83    0.15 
  -5   5  -7    1.79    0.15 
   5  -5   7    1.61    0.12 
   5  -5   7    1.52    0.11 
   5  -5   7    1.55    0.14 
   5  -5   7    1.69    0.13 
   5  -5   7    1.67    0.15 
   5   4  -7    0.23    0.10 
   5   4  -7    0.17    0.09 
   5   4  -7    0.24    0.07 
   4   4  -7    3.00    0.23 
   4   4  -7    2.96    0.23 
   4   4  -7    3.01    0.22 
   3   4  -7    0.47    0.11 
   3   4  -7    0.51    0.24 
   3   4  -7    0.84    0.12 
   3   4  -7    0.59    0.09 
   3   4  -7    0.51    0.12 
   3   4  -7    0.63    0.11 
   2   4  -7    0.34    0.17 
  -2  -4   7    0.39    0.16 
  -2  -4   7    0.21    0.06 
   1   4  -7   13.39    0.85 
   1   4  -7   15.03    0.75 
  -1  -4   7   15.73    0.86 
   0   4  -7   19.51    1.05 
   0   4  -7   20.73    0.97 
   0  -4   7   20.36    1.08 
  -1   4  -7   41.01    1.85 
   1  -4   7   39.64    1.94 
  -2   4  -7    8.58    0.40 
  -2   4  -7    9.10    0.44 
  -2   4  -7    8.59    0.49 
   2  -4   7    9.17    0.58 
   2  -4   7    8.00    0.51 
   2  -4   7    8.31    0.41 
   2  -4   7    8.33    0.51 
   2  -4   7    8.32    0.46 
  -3   4  -7    0.26    0.06 
  -3   4  -7    0.37    0.09 
  -3   4  -7    0.50    0.16 
   3  -4   7    0.28    0.14 
   3  -4   7    0.21    0.09 
   3  -4   7    0.22    0.11 
   3  -4   7    0.19    0.06 
   3  -4   7    0.25    0.06 
   3  -4   7    0.13    0.14 
   3  -4   7    0.20    0.06 
  -4   4  -7   29.55    1.25 
  -4   4  -7   28.32    1.29 
   4  -4   7   26.78    1.26 
   4  -4   7   28.18    1.32 
   4  -4   7   28.17    1.38 
   4  -4   7   28.04    1.25 
   4  -4   7   27.51    1.26 
   4  -4   7   25.40    1.31 
  -5   4  -7    0.06    0.06 
  -5   4  -7    0.09    0.08 
   5  -4   7    0.09    0.05 
   5  -4   7    0.12    0.08 
   5  -4   7    0.07    0.04 
   5  -4   7    0.06    0.07 
   5  -4   7    0.12    0.07 
   5   3  -7   13.43    0.63 
   5   3  -7   13.03    0.63 
   5   3  -7   11.97    0.63 
   4   3  -7    0.05    0.07 
   4   3  -7    0.12    0.07 
   4   3  -7    0.07    0.08 
   4   3  -7    0.00    0.08 
   3   3  -7    0.20    0.11 
   3   3  -7    0.08    0.08 
   3   3  -7    0.18    0.08 
   3   3  -7    0.07    0.18 
   3   3  -7    0.07    0.07 
  -3  -3   7    0.26    0.19 
   2   3  -7    6.36    0.52 
  -2  -3   7    7.00    0.51 
   1   3  -7   12.73    0.63 
   1   3  -7   12.14    0.75 
  -1  -3   7   12.86    0.74 
   0   3  -7   56.23    2.64 
   0   3  -7   58.56    2.54 
   0  -3   7   55.77    2.64 
  -1   3  -7    0.16    0.07 
   1  -3   7    0.16    0.08 
   1  -3   7    0.23    0.10 
  -2   3  -7   48.19    2.18 
  -2   3  -7   46.27    2.10 
   2  -3   7   49.09    2.26 
   2  -3   7   48.32    2.23 
  -3   3  -7   34.94    1.63 
  -3   3  -7   36.63    1.53 
   3  -3   7   34.53    1.60 
   3  -3   7   35.64    1.66 
   3  -3   7   33.79    1.54 
   3  -3   7   32.15    1.60 
   3  -3   7   33.05    1.67 
   3  -3   7   34.18    1.55 
   3  -3   7   34.67    1.53 
  -4   3  -7    3.62    0.20 
   4  -3   7    3.23    0.21 
   4  -3   7    3.36    0.28 
   4  -3   7    3.56    0.22 
   4  -3   7    3.35    0.34 
   4  -3   7    3.70    0.21 
   4  -3   7    3.23    0.27 
  -5   3  -7    2.56    0.16 
  -5   3  -7    2.32    0.18 
   5  -3   7    2.44    0.21 
   5  -3   7    2.18    0.20 
   5  -3   7    2.36    0.15 
   5  -3   7    2.48    0.16 
   5  -3   7    2.12    0.25 
   5   2  -7   51.15    2.28 
   5   2  -7   50.69    2.28 
   4   2  -7   38.55    1.76 
   4   2  -7   38.99    1.77 
   4   2  -7   38.49    1.73 
   4   2  -7   39.13    1.77 
   3   2  -7    1.06    0.13 
   3   2  -7    0.74    0.24 
   3   2  -7    0.82    0.12 
   3   2  -7    0.94    0.13 
   3   2  -7    0.93    0.11 
  -3  -2   7    0.84    0.26 
   2   2  -7   31.48    1.68 
  -2  -2   7   34.72    1.70 
   1   2  -7   42.37    2.02 
   1   2  -7   41.56    1.88 
  -1  -2   7   41.84    2.00 
   0   2  -7  130.13    5.67 
   0   2  -7  137.17    5.58 
   0  -2   7  118.94    5.66 
   0  -2   7  122.22    5.59 
  -1   2  -7   26.78    1.35 
  -1   2  -7   28.68    1.27 
   1  -2   7   28.41    1.31 
   1  -2   7   27.40    1.34 
  -2   2  -7   93.33    4.27 
   2  -2   7   98.15    4.32 
   2  -2   7   97.95    4.33 
  -3   2  -7   45.02    2.07 
  -3   2  -7   45.06    1.98 
   3  -2   7   42.64    2.06 
   3  -2   7   44.93    1.99 
   3  -2   7   45.23    2.00 
   3  -2   7   44.40    2.00 
   3  -2   7   48.63    2.12 
   3  -2   7   44.25    2.13 
   3  -2   7   44.38    2.05 
  -4   2  -7   10.42    0.49 
   4  -2   7   11.09    0.52 
   4  -2   7   10.53    0.51 
   4  -2   7   10.54    0.50 
   4  -2   7    9.77    0.57 
   4  -2   7   10.43    0.64 
   4  -2   7   10.08    0.58 
  -5   2  -7   16.74    0.73 
   5  -2   7   15.28    0.85 
   5  -2   7   15.53    0.80 
   5  -2   7   16.67    0.74 
   5  -2   7   15.24    0.73 
   5  -2   7   15.18    0.80 
   6  -2   7   -0.01    0.04 
   6  -2   7    0.02    0.06 
   6  -2   7    0.02    0.06 
   5   1  -7    1.17    0.13 
   5   1  -7    1.45    0.15 
   5   1  -7    1.06    0.15 
   4   1  -7    0.53    0.12 
   4   1  -7    0.46    0.11 
   4   1  -7    0.44    0.09 
   4   1  -7    0.30    0.09 
   3   1  -7    0.47    0.22 
   3   1  -7    1.05    0.14 
   3   1  -7    0.60    0.09 
   3   1  -7    0.61    0.12 
   3   1  -7    0.80    0.10 
   3   1  -7    0.79    0.12 
  -3  -1   7    0.87    0.27 
   2   1  -7    4.42    0.40 
  -2  -1   7    5.40    0.44 
   1   1  -7   13.78    0.77 
   1   1  -7   12.82    0.66 
  -1  -1   7   15.81    0.80 
  -1  -1   7   13.38    0.71 
   0   1  -7   51.72    2.32 
   0   1  -7   53.69    2.24 
   0  -1   7   48.99    2.33 
   0  -1   7   47.65    2.28 
  -1   1  -7   86.52    3.78 
  -1   1  -7   82.19    3.73 
   1  -1   7   83.24    3.79 
   1  -1   7   87.18    3.79 
  -2   1  -7   35.82    1.62 
   2  -1   7   37.47    1.66 
   2  -1   7   32.79    1.66 
  -3   1  -7   34.13    1.60 
  -3   1  -7   32.48    1.51 
   3  -1   7   33.42    1.64 
   3  -1   7   34.48    1.59 
   3  -1   7   34.67    1.59 
   3  -1   7   34.56    1.64 
   3  -1   7   35.16    1.53 
  -4   1  -7   10.38    0.48 
   4  -1   7   10.42    0.58 
   4  -1   7    9.88    0.50 
   4  -1   7   10.13    0.63 
   4  -1   7    9.79    0.57 
   4  -1   7   10.84    0.50 
  -5   1  -7    3.41    0.18 
   5  -1   7    2.76    0.31 
   5  -1   7    3.29    0.26 
   5  -1   7    2.66    0.25 
   5  -1   7    3.34    0.19 
   5  -1   7    3.25    0.20 
   6  -1   7    0.94    0.12 
   6  -1   7    0.96    0.10 
   6  -1   7    0.94    0.08 
   6  -1   7    0.90    0.12 
   5   0  -7    5.96    0.34 
   5   0  -7    5.85    0.31 
   5   0  -7    5.13    0.35 
   5   0  -7    6.27    0.34 
   4   0  -7    1.98    0.19 
   4   0  -7    1.63    0.20 
   4   0  -7    2.11    0.16 
   4   0  -7    1.92    0.17 
   4   0  -7    2.10    0.16 
   3   0  -7    5.74    0.32 
   3   0  -7    5.54    0.33 
   3   0  -7    6.08    0.34 
   3   0  -7    5.56    0.30 
   3   0  -7    6.33    0.50 
   3   0  -7    5.96    0.30 
   3   0  -7    5.57    0.51 
  -3   0   7    5.65    0.55 
   2   0  -7   46.09    2.27 
   2   0  -7   47.35    2.24 
  -2   0   7   47.04    2.18 
  -2   0   7   48.06    2.30 
   1   0  -7   23.57    1.16 
  -1   0   7   23.27    1.13 
  -1   0   7   22.41    1.18 
   0   0  -7    4.10    0.22 
   0   0  -7    4.32    0.29 
   0   0   7    4.04    0.29 
   0   0   7    4.43    0.29 
  -1   0  -7  452.85   19.84 
  -1   0  -7  445.03   19.65 
   1   0   7  435.05   19.66 
   1   0   7  469.75   20.07 
  -2   0  -7  120.95    5.25 
   2   0   7  117.45    5.30 
  -3   0  -7    8.51    0.46 
  -3   0  -7    7.31    0.37 
   3   0   7    8.23    0.49 
  -4   0  -7   22.09    1.04 
  -4   0  -7   22.08    1.15 
   4   0   7   22.46    1.19 
   4   0   7   23.87    1.06 
   4   0   7   24.76    1.20 
   4   0   7   22.33    1.13 
   4   0   7   24.02    1.06 
   4   0   7   23.66    1.15 
  -5   0  -7    0.08    0.05 
   5   0   7    0.19    0.10 
   5   0   7    0.23    0.07 
   5   0   7    0.22    0.15 
   5   0   7    0.20    0.11 
   5   0   7    0.26    0.06 
  -6   0  -7    0.45    0.10 
  -6   0  -7    0.43    0.06 
   6   0   7    0.46    0.09 
   6   0   7    0.56    0.10 
   6   0   7    0.54    0.07 
   6   0   7    0.55    0.16 
   5  -1  -7    9.31    0.47 
   5  -1  -7    8.80    0.44 
   5  -1  -7    8.97    0.44 
   4  -1  -7    1.22    0.13 
   4  -1  -7    1.30    0.16 
   4  -1  -7    1.06    0.14 
   4  -1  -7    1.33    0.13 
   3  -1  -7    9.94    0.48 
   3  -1  -7    9.58    0.44 
   3  -1  -7    9.47    0.44 
   3  -1  -7    8.86    0.64 
   3  -1  -7    8.60    0.65 
   3  -1  -7    8.74    0.46 
   3  -1  -7    7.90    0.42 
   3  -1  -7    8.89    0.47 
  -3   1   7    9.23    0.71 
  -3   1   7    8.96    0.62 
   2  -1  -7    0.12    0.13 
   2  -1  -7    0.20    0.11 
  -2   1   7    0.06    0.11 
   1  -1  -7  144.92    6.34 
   1  -1  -7  140.15    6.36 
  -1   1   7  144.99    6.39 
  -1   1   7  141.69    6.33 
   0  -1  -7    0.22    0.09 
   0   1   7    0.24    0.09 
   0   1   7    0.22    0.09 
  -1  -1  -7   30.09    1.49 
  -1  -1  -7   31.37    1.42 
   1   1   7   31.63    1.44 
   1   1   7   32.90    1.50 
  -2  -1  -7   17.29    0.95 
  -2  -1  -7   20.54    0.92 
   2   1   7   20.13    0.98 
  -3  -1  -7    0.18    0.04 
  -3  -1  -7    0.32    0.09 
   3   1   7    0.14    0.09 
  -4  -1  -7   21.40    1.02 
  -4  -1  -7   23.02    1.14 
   4   1   7   21.96    1.17 
   4   1   7   23.83    1.12 
   4   1   7   23.54    1.17 
   4   1   7   23.91    1.04 
   4   1   7   22.82    1.04 
   4   1   7   23.83    1.13 
   4   1   7   20.24    1.12 
  -5  -1  -7    0.03    0.05 
   5   1   7    0.09    0.07 
   5   1   7    0.07    0.09 
   5   1   7    0.24    0.15 
   5   1   7    0.01    0.05 
   5   1   7    0.05    0.10 
  -6  -1  -7    0.19    0.05 
   6   1   7    0.25    0.05 
   6   1   7    0.20    0.14 
   6   1   7    0.18    0.09 
   6   1   7    0.23    0.08 
   5  -2  -7    5.75    0.32 
   5  -2  -7    5.17    0.28 
   5  -2  -7    5.34    0.28 
  -5   2   7    5.05    0.31 
   4  -2  -7    1.29    0.13 
   4  -2  -7    1.00    0.14 
   4  -2  -7    0.95    0.14 
   4  -2  -7    1.24    0.12 
   4  -2  -7    1.37    0.10 
   3  -2  -7    6.67    0.52 
   3  -2  -7    6.16    0.34 
   3  -2  -7    6.38    0.31 
   3  -2  -7    5.83    0.35 
   3  -2  -7    6.52    0.31 
   3  -2  -7    5.01    0.34 
   3  -2  -7    5.87    0.30 
  -3   2   7    5.39    0.49 
   2  -2  -7   10.91    0.70 
   2  -2  -7   11.94    0.67 
  -2   2   7   10.43    0.65 
   1  -2  -7    6.52    0.43 
   1  -2  -7    6.53    0.41 
  -1   2   7    6.32    0.41 
   0  -2  -7  189.44    8.79 
   0  -2  -7  205.55    8.93 
   0  -2  -7  207.36    8.87 
   0   2   7  195.76    8.92 
   0   2   7  213.89    8.90 
  -1  -2  -7   19.39    0.89 
  -1  -2  -7   20.00    0.98 
   1   2   7   19.37    0.98 
  -2  -2  -7   18.28    0.84 
  -2  -2  -7   17.54    0.90 
   2   2   7   18.12    0.91 
   2   2   7   17.26    0.91 
  -3  -2  -7   16.80    0.84 
   3   2   7   17.04    0.89 
  -4  -2  -7    0.29    0.06 
  -4  -2  -7    0.41    0.13 
   4   2   7    0.27    0.14 
   4   2   7    0.17    0.11 
   4   2   7    0.30    0.16 
   4   2   7    0.24    0.12 
   4   2   7    0.31    0.06 
   4   2   7    0.24    0.14 
  -5  -2  -7    0.33    0.07 
   5   2   7    0.55    0.14 
   5   2   7    0.56    0.18 
   5   2   7    0.49    0.07 
   5   2   7    0.55    0.14 
   6   2   7    0.06    0.09 
   6   2   7    0.09    0.08 
   6   2   7   -0.01    0.13 
   6   2   7   -0.04    0.04 
   5  -3  -7    0.82    0.08 
   5  -3  -7    0.84    0.12 
   5  -3  -7    0.87    0.10 
   5  -3  -7    0.82    0.10 
  -5   3   7    0.65    0.11 
   4  -3  -7   23.77    1.11 
   4  -3  -7   22.90    1.10 
   4  -3  -7   23.78    1.06 
   4  -3  -7   23.84    1.06 
   4  -3  -7   23.22    1.05 
  -4   3   7   22.38    1.07 
   3  -3  -7  112.82    4.71 
   3  -3  -7  111.68    4.71 
   3  -3  -7  105.53    4.70 
   3  -3  -7  105.82    4.94 
   3  -3  -7  107.28    4.75 
   3  -3  -7  114.13    4.76 
  -3   3   7  102.71    4.71 
  -3   3   7  100.92    4.92 
   2  -3  -7   62.24    2.91 
   2  -3  -7   64.36    2.87 
  -2   3   7   64.20    2.88 
  -2   3   7   56.76    2.71 
   1  -3  -7    9.22    0.55 
   1  -3  -7    9.08    0.51 
  -1   3   7    8.93    0.54 
   0  -3  -7  221.08    9.17 
   0  -3  -7  204.55    9.24 
   0   3   7  201.81    9.23 
  -1  -3  -7  263.84   11.05 
  -1  -3  -7  251.83   11.14 
   1   3   7  258.40   11.17 
   1   3   7  241.12   11.09 
  -2  -3  -7   24.04    1.07 
  -2  -3  -7   21.38    1.13 
   2   3   7   22.39    1.14 
   2   3   7   23.67    1.13 
  -3  -3  -7   57.79    2.72 
  -3  -3  -7   55.82    2.59 
  -3  -3  -7   61.63    2.66 
   3   3   7   59.62    2.78 
   3   3   7   59.64    2.71 
  -4  -3  -7   42.40    1.97 
  -4  -3  -7   38.80    1.84 
   4   3   7   42.91    1.95 
   4   3   7   41.48    1.86 
   4   3   7   43.44    1.96 
   4   3   7   42.95    1.94 
   4   3   7   43.72    1.99 
   4   3   7   38.96    1.98 
  -5  -3  -7    0.28    0.07 
   5   3   7    0.28    0.06 
   5   3   7    0.34    0.13 
   5   3   7    0.37    0.15 
   5   3   7    0.23    0.17 
   5   3   7    0.35    0.12 
  -6  -3  -7    2.81    0.16 
   6   3   7    3.12    0.23 
   6   3   7    2.63    0.28 
   6   3   7    2.85    0.21 
   5  -4  -7    0.44    0.07 
   5  -4  -7    0.55    0.07 
   5  -4  -7    0.22    0.08 
   5  -4  -7    0.37    0.07 
  -5   4   7    0.39    0.09 
   4  -4  -7    0.18    0.06 
   4  -4  -7    0.06    0.05 
   4  -4  -7    0.09    0.06 
   4  -4  -7    0.19    0.09 
   4  -4  -7    0.17    0.09 
  -4   4   7    0.14    0.07 
   3  -4  -7    2.31    0.20 
   3  -4  -7    2.82    0.17 
   3  -4  -7    2.36    0.19 
   3  -4  -7    2.51    0.15 
   3  -4  -7    2.33    0.18 
   3  -4  -7    2.50    0.16 
   3  -4  -7    2.39    0.35 
  -3   4   7    2.53    0.40 
  -3   4   7    2.34    0.17 
   2  -4  -7    4.72    0.36 
   2  -4  -7    3.88    0.41 
  -2   4   7    3.93    0.23 
  -2   4   7    4.14    0.38 
   1  -4  -7   51.95    2.42 
   1  -4  -7   53.45    2.48 
  -1   4   7   52.85    2.46 
   0  -4  -7    1.32    0.21 
   0  -4  -7    1.05    0.13 
   0   4   7    1.38    0.24 
   1   4   7   10.73    0.63 
   1   4   7   10.71    0.55 
  -2  -4  -7   54.41    2.44 
   2   4   7   52.98    2.41 
   2   4   7   49.74    2.43 
  -3  -4  -7    0.41    0.15 
  -3  -4  -7    0.34    0.10 
  -3  -4  -7    0.30    0.05 
   3   4   7    0.33    0.14 
   3   4   7    0.49    0.14 
  -4  -4  -7   17.57    0.88 
  -4  -4  -7   15.98    0.76 
   4   4   7   17.34    0.89 
   4   4   7   17.21    0.86 
   4   4   7   16.00    0.90 
   4   4   7   16.97    0.78 
   4   4   7   16.68    0.88 
   4   4   7   16.66    0.86 
  -5  -4  -7    3.96    0.23 
   5   4   7    4.78    0.34 
   5   4   7    4.57    0.33 
   5   4   7    4.46    0.38 
   5   4   7    4.17    0.24 
   5   4   7    4.21    0.35 
  -6  -4  -7    2.61    0.17 
   6   4   7    3.10    0.22 
   6   4   7    3.12    0.29 
   6   4   7    2.87    0.23 
   5  -5  -7   31.86    1.39 
   5  -5  -7   32.39    1.38 
   5  -5  -7   29.97    1.41 
   5  -5  -7   30.16    1.39 
  -5   5   7   31.62    1.41 
   4  -5  -7   22.34    0.95 
   4  -5  -7   20.43    0.95 
   4  -5  -7   21.18    0.99 
   4  -5  -7   20.17    1.00 
   4  -5  -7   19.77    0.97 
   4  -5  -7   21.33    0.95 
  -4   5   7   20.49    0.97 
   3  -5  -7    2.07    0.14 
   3  -5  -7    2.23    0.15 
   3  -5  -7    2.19    0.17 
   3  -5  -7    2.12    0.19 
   3  -5  -7    1.99    0.18 
   3  -5  -7    2.11    0.14 
  -3   5   7    2.06    0.17 
   2  -5  -7    7.70    0.37 
   2  -5  -7    8.60    0.41 
   2  -5  -7    7.06    0.41 
   2  -5  -7    7.98    0.40 
   2  -5  -7    7.90    0.37 
   2  -5  -7    7.54    0.38 
  -2   5   7    7.74    0.57 
  -2   5   7    7.63    0.40 
   1  -5  -7   35.93    1.64 
   1  -5  -7   34.17    1.70 
  -1   5   7   32.13    1.54 
  -1   5   7   35.42    1.69 
   0  -5  -7    7.39    0.50 
   0  -5  -7    7.66    0.42 
   0   5   7    7.31    0.51 
  -1  -5  -7    3.37    0.29 
   1   5   7    2.97    0.22 
   1   5   7    3.58    0.33 
  -2  -5  -7   87.02    3.80 
   2   5   7   83.50    3.75 
   2   5   7   79.07    3.78 
  -3  -5  -7   28.72    1.42 
  -3  -5  -7   25.85    1.23 
   3   5   7   27.95    1.37 
   3   5   7   28.90    1.42 
  -4  -5  -7    0.70    0.17 
  -4  -5  -7    0.63    0.08 
   4   5   7    0.70    0.16 
   4   5   7    0.60    0.24 
   4   5   7    0.98    0.18 
   4   5   7    0.74    0.15 
   4   5   7    0.82    0.16 
   4   5   7    0.90    0.20 
  -5  -5  -7    0.90    0.10 
   5   5   7    1.10    0.21 
   5   5   7    1.38    0.21 
   5   5   7    1.16    0.19 
   5   5   7    1.38    0.20 
  -6  -5  -7    2.38    0.16 
   6   5   7    2.44    0.27 
   6   5   7    2.54    0.35 
   6   5   7    2.70    0.22 
   6   5   7    2.36    0.19 
   5  -6  -7   15.18    0.69 
   5  -6  -7   14.83    0.69 
   5  -6  -7   15.89    0.70 
   4  -6  -7   26.95    1.22 
   4  -6  -7   28.41    1.23 
   4  -6  -7   27.63    1.25 
   4  -6  -7   27.46    1.27 
   4  -6  -7   27.51    1.22 
   4  -6  -7   26.39    1.26 
  -4   6   7   25.01    1.30 
  -4   6   7   28.61    1.26 
   3  -6  -7    0.32    0.08 
   3  -6  -7    0.34    0.09 
   3  -6  -7    0.45    0.08 
   3  -6  -7    0.33    0.06 
   3  -6  -7    0.38    0.10 
   3  -6  -7    0.38    0.07 
  -3   6   7    0.29    0.14 
  -3   6   7    0.27    0.08 
   2  -6  -7   20.60    0.95 
   2  -6  -7   20.12    0.97 
   2  -6  -7   20.86    0.95 
   2  -6  -7   19.97    0.93 
   2  -6  -7   21.12    0.92 
   2  -6  -7   20.22    0.92 
  -2   6   7   21.41    0.95 
  -2   6   7   19.56    1.01 
  -2   6   7   19.54    1.15 
   1  -6  -7  118.26    4.99 
   1  -6  -7  107.89    5.04 
  -1   6   7  111.96    5.04 
  -1   6   7  105.84    4.87 
   0  -6  -7   29.73    1.53 
   0  -6  -7   31.42    1.44 
   0   6   7   30.27    1.55 
  -1  -6  -7    0.16    0.11 
   1   6   7    0.11    0.08 
   1   6   7    0.10    0.15 
  -2  -6  -7   67.05    3.14 
  -2  -6  -7   74.04    3.33 
   2   6   7   70.86    3.30 
   2   6   7   75.80    3.27 
  -3  -6  -7   74.11    3.18 
  -3  -6  -7   67.03    2.95 
   3   6   7   70.17    3.14 
   3   6   7   63.25    3.02 
   3   6   7   62.62    3.05 
   3   6   7   69.25    3.09 
   3   6   7   63.85    3.00 
   3   6   7   67.86    3.02 
  -4  -6  -7    0.95    0.09 
   4   6   7    0.92    0.17 
   4   6   7    1.21    0.19 
   4   6   7    1.20    0.18 
   4   6   7    1.23    0.18 
  -5  -6  -7   11.68    0.56 
   5   6   7   12.18    0.65 
   5   6   7   11.35    0.65 
   5   6   7   12.56    0.67 
   5   6   7   11.55    0.69 
  -6  -6  -7    1.14    0.12 
   6   6   7    1.70    0.18 
   6   6   7    1.44    0.22 
   6   6   7    1.20    0.18 
   4  -7  -7    2.23    0.14 
   4  -7  -7    2.28    0.16 
   4  -7  -7    2.15    0.18 
   4  -7  -7    2.28    0.14 
  -4   7   7    1.74    0.23 
  -4   7   7    2.26    0.19 
   3  -7  -7    0.54    0.10 
   3  -7  -7    0.61    0.11 
   3  -7  -7    0.41    0.10 
   3  -7  -7    0.60    0.08 
   3  -7  -7    0.60    0.08 
   3  -7  -7    0.72    0.09 
  -3   7   7    0.59    0.17 
  -3   7   7    0.41    0.09 
   2  -7  -7    0.10    0.05 
   2  -7  -7    0.07    0.06 
   2  -7  -7    0.11    0.07 
   2  -7  -7    0.08    0.16 
   2  -7  -7    0.04    0.05 
   2  -7  -7    0.05    0.08 
   2  -7  -7    0.10    0.06 
  -2   7   7    0.07    0.07 
  -2   7   7    0.10    0.25 
  -2   7   7    0.04    0.13 
   1  -7  -7   68.50    3.13 
   1  -7  -7   76.77    3.25 
   1  -7  -7   70.64    3.12 
   1  -7  -7   69.90    3.08 
   1  -7  -7   70.53    3.11 
  -1   7   7   69.79    3.17 
  -1   7   7   69.54    3.32 
  -1   7   7   67.14    3.11 
   0  -7  -7   10.86    0.71 
   0   7   7   11.83    0.75 
  -1  -7  -7   47.55    2.25 
   1   7   7   44.99    2.27 
   1   7   7   48.21    2.16 
  -2  -7  -7   44.96    2.08 
  -2  -7  -7   49.54    2.29 
   2   7   7   47.09    2.21 
   2   7   7   47.09    2.24 
  -3  -7  -7   14.16    0.85 
  -3  -7  -7   13.56    0.63 
   3   7   7   15.32    0.83 
   3   7   7   13.66    0.71 
   3   7   7   13.92    0.70 
   3   7   7   13.79    0.67 
   3   7   7   12.06    0.74 
   3   7   7   13.84    0.71 
  -4  -7  -7   24.21    1.09 
   4   7   7   24.26    1.19 
   4   7   7   24.27    1.20 
   4   7   7   23.85    1.19 
   4   7   7   24.15    1.17 
  -5  -7  -7    1.01    0.10 
   5   7   7    0.93    0.17 
   5   7   7    1.25    0.19 
   5   7   7    0.79    0.16 
   5   7   7    1.10    0.20 
  -6  -7  -7    1.48    0.12 
   6   7   7    1.47    0.21 
   6   7   7    1.64    0.22 
   6   7   7    2.03    0.18 
   4  -8  -7    8.96    0.40 
   4  -8  -7    7.92    0.43 
   4  -8  -7    8.52    0.40 
   4  -8  -7    8.26    0.40 
  -4   8   7    7.45    0.47 
  -4   8   7    8.78    0.44 
   3  -8  -7   38.41    1.76 
   3  -8  -7   38.62    1.72 
   3  -8  -7   40.55    1.71 
   3  -8  -7   36.40    1.71 
   3  -8  -7   37.37    1.76 
  -3   8   7   40.82    1.76 
  -3   8   7   37.62    1.82 
   2  -8  -7    1.97    0.17 
   2  -8  -7    2.27    0.14 
   2  -8  -7    2.55    0.20 
   2  -8  -7    1.73    0.16 
   2  -8  -7    1.99    0.14 
   2  -8  -7    2.11    0.17 
  -2   8   7    1.98    0.19 
  -2   8   7    1.64    0.24 
   1  -8  -7   52.80    2.25 
   1  -8  -7   48.46    2.44 
   1  -8  -7   50.27    2.23 
   1  -8  -7   48.65    2.21 
   1  -8  -7   49.26    2.24 
  -1   8   7   49.94    2.49 
  -1   8   7   49.76    2.24 
  -1   8   7   50.70    2.31 
   0  -8  -7    4.33    0.24 
   0  -8  -7    3.74    0.42 
   0  -8  -7    3.98    0.25 
   0   8   7    4.11    0.26 
   0   8   7    3.94    0.32 
   0   8   7    4.04    0.48 
  -1  -8  -7   17.39    0.95 
  -1  -8  -7   16.21    0.75 
   1   8   7   16.25    0.96 
   1   8   7   15.36    0.78 
   1   8   7   15.62    0.85 
  -2  -8  -7   55.06    2.44 
  -2  -8  -7   58.87    2.67 
  -2  -8  -7   54.62    2.42 
   2   8   7   52.09    2.48 
   2   8   7   53.90    2.47 
   2   8   7   51.60    2.53 
   2   8   7   56.25    2.46 
   2   8   7   58.26    2.58 
  -3  -8  -7    3.30    0.18 
  -3  -8  -7    2.78    0.38 
   3   8   7    3.06    0.22 
   3   8   7    3.45    0.26 
   3   8   7    2.95    0.25 
   3   8   7    3.58    0.26 
   3   8   7    2.64    0.31 
   3   8   7    3.42    0.35 
  -4  -8  -7    6.34    0.32 
  -4  -8  -7    5.72    0.33 
   4   8   7    6.16    0.35 
   4   8   7    6.13    0.42 
   4   8   7    6.83    0.40 
   4   8   7    6.03    0.42 
   4   8   7    6.15    0.41 
  -5  -8  -7    0.06    0.05 
   5   8   7    0.10    0.10 
   5   8   7    0.06    0.11 
   5   8   7    0.10    0.11 
   5   8   7    0.09    0.11 
   6   8   7    1.61    0.21 
   6   8   7    1.83    0.21 
   6   8   7    2.10    0.19 
   4  -9  -7    0.43    0.06 
   4  -9  -7    0.57    0.06 
   4  -9  -7    0.53    0.08 
  -4   9   7    0.48    0.11 
  -4   9   7    0.65    0.14 
   3  -9  -7    5.51    0.31 
   3  -9  -7    5.41    0.27 
   3  -9  -7    4.81    0.30 
   3  -9  -7    5.05    0.27 
   3  -9  -7    5.35    0.28 
  -3   9   7    5.28    0.33 
  -3   9   7    5.30    0.38 
   2  -9  -7    0.21    0.06 
   2  -9  -7    0.22    0.08 
   2  -9  -7    0.11    0.08 
  -2   9   7    0.30    0.14 
  -2   9   7    0.12    0.10 
   1  -9  -7    0.95    0.12 
   1  -9  -7    1.01    0.11 
   1  -9  -7    1.25    0.14 
  -1   9   7    0.95    0.15 
  -1   9   7    1.23    0.21 
   0  -9  -7    0.04    0.06 
   0  -9  -7    0.04    0.08 
   0   9   7    0.06    0.29 
   0   9   7    0.06    0.09 
   0   9   7    0.05    0.13 
  -1  -9  -7    7.04    0.56 
  -1  -9  -7    7.18    0.37 
  -1  -9  -7    7.15    0.37 
   1   9   7    6.68    0.48 
   1   9   7    7.34    0.40 
  -2  -9  -7   36.05    1.62 
  -2  -9  -7   33.81    1.61 
  -2  -9  -7   37.27    1.61 
  -2  -9  -7   37.56    1.87 
   2   9   7   35.58    1.66 
   2   9   7   35.34    1.65 
   2   9   7   36.42    1.76 
   2   9   7   38.25    1.65 
   2   9   7   33.75    1.72 
  -3  -9  -7    1.71    0.13 
  -3  -9  -7    1.71    0.15 
   3   9   7    1.74    0.20 
   3   9   7    1.89    0.17 
   3   9   7    1.81    0.21 
   3   9   7    1.76    0.20 
   3   9   7    1.93    0.27 
  -4  -9  -7   11.30    0.53 
  -4  -9  -7   11.53    0.54 
   4   9   7   10.27    0.61 
   4   9   7   10.57    0.59 
   4   9   7   11.67    0.63 
   4   9   7   10.51    0.56 
   4   9   7   11.19    0.63 
  -5  -9  -7    1.62    0.12 
   5   9   7    1.38    0.20 
   5   9   7    1.56    0.20 
   5   9   7    1.43    0.20 
   6   9   7    0.34    0.12 
   6   9   7    0.58    0.13 
   3 -10  -7    9.58    0.49 
   3 -10  -7   10.01    0.49 
   3 -10  -7    9.82    0.45 
  -3  10   7    9.26    0.55 
  -3  10   7    9.81    0.52 
   2 -10  -7    6.55    0.37 
   2 -10  -7    6.53    0.35 
   2 -10  -7    5.78    0.31 
  -2  10   7    6.52    0.43 
  -2  10   7    5.79    0.39 
   1 -10  -7    0.02    0.07 
   1 -10  -7    0.02    0.08 
   1 -10  -7    0.02    0.07 
  -1  10   7    0.11    0.15 
  -1  10   7    0.13    0.10 
  -1  10   7   -0.01    0.14 
   0 -10  -7   49.81    2.22 
   0 -10  -7   48.26    2.22 
   0  10   7   50.89    2.32 
   0  10   7   49.20    2.24 
  -1 -10  -7   17.58    0.81 
  -1 -10  -7   17.47    0.81 
  -1 -10  -7   15.62    1.33 
   1  10   7   16.93    0.92 
   1  10   7   17.13    0.84 
  -2 -10  -7    0.62    0.09 
  -2 -10  -7    0.70    0.09 
  -2 -10  -7    0.85    0.11 
   2  10   7    0.89    0.14 
   2  10   7    0.91    0.15 
   2  10   7    0.71    0.14 
   2  10   7    0.65    0.20 
  -3 -10  -7    9.11    0.42 
  -3 -10  -7    9.19    0.44 
   3  10   7    8.35    0.48 
   3  10   7    8.44    0.46 
   3  10   7    7.73    0.49 
   3  10   7    7.19    0.47 
   3  10   7    8.31    0.54 
  -4 -10  -7    0.61    0.09 
  -4 -10  -7    0.66    0.09 
   4  10   7    0.56    0.11 
   4  10   7    0.49    0.14 
   4  10   7    0.67    0.15 
   4  10   7    0.64    0.14 
  -5 -10  -7    0.37    0.06 
   5  10   7    0.53    0.12 
   5  10   7    0.34    0.11 
   5  10   7    0.43    0.12 
   3 -11  -7    6.39    0.34 
  -3  11   7    6.82    0.40 
   2 -11  -7    0.64    0.10 
   2 -11  -7    0.65    0.10 
  -2  11   7    0.61    0.16 
   1 -11  -7   21.03    0.98 
   1 -11  -7   19.25    0.96 
  -1  11   7   20.49    0.99 
  -1  11   7   22.46    1.08 
   0 -11  -7   49.65    2.17 
   0 -11  -7   45.47    2.16 
   0  11   7   48.62    2.27 
   0  11   7   49.23    2.19 
  -1 -11  -7   33.50    1.47 
  -1 -11  -7   31.26    1.46 
   1  11   7   30.52    1.57 
   1  11   7   33.28    1.50 
  -2 -11  -7    6.54    0.35 
  -2 -11  -7    6.87    0.36 
   2  11   7    6.24    0.39 
   2  11   7    6.45    0.47 
   2  11   7    6.44    0.40 
  -3 -11  -7   45.26    1.94 
  -3 -11  -7   42.53    1.92 
   3  11   7   40.26    1.97 
   3  11   7   45.39    1.98 
   3  11   7   42.09    1.99 
   3  11   7   43.98    2.01 
   3  11   7   42.98    2.03 
  -4 -11  -7   21.69    0.99 
  -4 -11  -7   21.30    0.97 
   4  11   7   22.87    1.07 
   4  11   7   20.47    1.04 
   4  11   7   20.54    1.01 
   4  11   7   21.45    1.03 
  -5 -11  -7    1.00    0.09 
  -5 -11  -7    0.82    0.12 
   5  11   7    0.89    0.14 
   5  11   7    0.59    0.12 
   5  11   7    0.83    0.13 
   2 -12  -7    3.17    0.21 
   2 -12  -7    3.51    0.22 
  -2  12   7    3.67    0.30 
   1 -12  -7   12.57    0.62 
   1 -12  -7   11.56    0.61 
  -1  12   7   12.83    0.63 
  -1  12   7   13.65    0.72 
   0 -12  -7    0.95    0.12 
   0  12   7    0.89    0.21 
   0  12   7    0.91    0.14 
  -1 -12  -7    2.36    0.18 
  -1 -12  -7    2.14    0.19 
   1  12   7    2.53    0.21 
   1  12   7    2.08    0.29 
  -2 -12  -7    9.97    0.51 
  -2 -12  -7   10.67    0.52 
   2  12   7   10.79    0.56 
   2  12   7    9.77    0.61 
  -3 -12  -7    0.09    0.06 
  -3 -12  -7    0.05    0.05 
   3  12   7    0.07    0.09 
   3  12   7    0.08    0.10 
  -4 -12  -7    0.83    0.09 
  -4 -12  -7    0.87    0.11 
   4  12   7    0.82    0.14 
   4  12   7    0.88    0.15 
   4  12   7    0.55    0.12 
   5  12   7   -0.01    0.11 
   5  12   7    0.04    0.14 
   5  12   7    0.03    0.08 
   1 -13  -7    8.96    0.48 
  -1  13   7   10.49    0.56 
  -1  13   7    9.29    0.48 
   0 -13  -7    9.04    0.46 
   0  13   7    8.87    0.55 
   0  13   7    8.73    0.47 
  -1 -13  -7    0.06    0.06 
  -1 -13  -7    0.01    0.08 
   1  13   7    0.18    0.16 
   1  13   7    0.23    0.10 
  -2 -13  -7   12.47    0.60 
  -2 -13  -7   12.14    0.60 
   2  13   7   12.38    0.64 
  -3 -13  -7    9.58    0.47 
   3  13   7    8.95    0.50 
   3  13   7    9.69    0.52 
  -4 -13  -7    0.96    0.11 
   4  13   7    1.23    0.15 
   4  13   7    1.23    0.16 
   0 -14  -7   11.10    0.55 
   0  14   7   11.33    0.56 
   0  14   7   11.30    0.61 
  -1 -14  -7    0.36    0.19 
  -1 -14  -7    0.33    0.07 
   1  14   7    0.43    0.18 
   1  14   7    0.28    0.09 
  -2 -14  -7    6.28    0.34 
  -2 -14  -7    6.13    0.33 
   2  14   7    6.94    0.38 
  -3 -14  -7    6.38    0.33 
   3  14   7    6.47    0.37 
  -1 -15  -7    2.51    0.16 
   1  15   7    2.41    0.18 
   2  12  -8    1.66    0.16 
  -2 -12   8    1.52    0.13 
  -2 -12   8    1.43    0.11 
   1  12  -8    7.17    0.39 
  -1 -12   8    7.83    0.39 
   0  12  -8    1.26    0.12 
   0 -12   8    1.42    0.12 
  -1  12  -8   13.14    0.61 
   1 -12   8   12.75    0.61 
   3  11  -8    1.84    0.15 
   3  11  -8    2.38    0.15 
   3  11  -8    2.18    0.17 
  -3 -11   8    1.93    0.16 
   2  11  -8    0.82    0.10 
   2  11  -8    0.48    0.10 
   2  11  -8    0.68    0.12 
  -2 -11   8    0.82    0.11 
  -2 -11   8    0.76    0.11 
   1  11  -8    0.05    0.07 
   1  11  -8    0.12    0.10 
  -1 -11   8    0.05    0.06 
  -1 -11   8    0.05    0.07 
   0  11  -8   20.03    0.93 
   0 -11   8   19.65    0.94 
  -1  11  -8    0.18    0.07 
   1 -11   8    0.30    0.07 
   1 -11   8    0.31    0.07 
  -2  11  -8    0.09    0.06 
   2 -11   8    0.03    0.07 
   2 -11   8    0.06    0.05 
   4  10  -8    5.49    0.30 
   4  10  -8    5.21    0.27 
   4  10  -8    5.30    0.27 
  -4 -10   8    4.80    0.27 
   3  10  -8    0.07    0.06 
   3  10  -8    0.08    0.07 
   3  10  -8    0.06    0.08 
  -3 -10   8    0.06    0.05 
  -3 -10   8    0.13    0.08 
   2  10  -8    0.00    0.06 
   2  10  -8    0.05    0.08 
   2  10  -8    0.02    0.09 
  -2 -10   8    0.04    0.06 
  -2 -10   8    0.15    0.08 
  -2 -10   8    0.02    0.06 
   1  10  -8    1.07    0.13 
   1  10  -8    1.13    0.14 
   1  10  -8    0.87    0.15 
  -1 -10   8    1.09    0.15 
  -1 -10   8    0.91    0.13 
   0  10  -8   10.20    0.52 
   0 -10   8    9.75    0.49 
   0 -10   8   10.05    0.53 
  -1  10  -8    0.06    0.07 
   1 -10   8    0.01    0.06 
   1 -10   8    0.07    0.07 
  -2  10  -8    0.29    0.09 
  -2  10  -8    0.39    0.08 
   2 -10   8    0.25    0.08 
   2 -10   8    0.29    0.07 
   3 -10   8    2.94    0.16 
   4   9  -8    2.51    0.17 
   4   9  -8    2.64    0.18 
   4   9  -8    2.66    0.20 
  -4  -9   8    2.48    0.15 
  -4  -9   8    2.32    0.18 
   3   9  -8    2.60    0.20 
   3   9  -8    2.55    0.19 
   3   9  -8    2.25    0.20 
   3   9  -8    2.13    0.19 
  -3  -9   8    2.38    0.20 
  -3  -9   8    2.26    0.16 
   2   9  -8    3.13    0.24 
   2   9  -8    3.59    0.23 
   2   9  -8    2.96    0.25 
  -2  -9   8    3.43    0.21 
  -2  -9   8    3.31    0.25 
   1   9  -8    0.42    0.10 
   1   9  -8    0.43    0.11 
   1   9  -8    0.55    0.10 
  -1  -9   8    0.47    0.11 
  -1  -9   8    0.42    0.09 
   0   9  -8   18.32    0.85 
   0   9  -8   15.92    0.85 
   0  -9   8   17.85    0.86 
   0  -9   8   18.09    0.82 
  -1   9  -8    1.43    0.16 
   1  -9   8    1.61    0.14 
   1  -9   8    1.50    0.16 
  -2   9  -8    7.81    0.43 
  -2   9  -8    8.55    0.44 
   2  -9   8    8.64    0.44 
   2  -9   8    8.24    0.42 
  -3   9  -8    4.05    0.23 
  -3   9  -8    3.92    0.23 
   3  -9   8    3.59    0.21 
   5   8  -8    0.36    0.07 
   4   8  -8   12.85    0.63 
   4   8  -8   11.68    0.61 
   4   8  -8   12.09    0.61 
   4   8  -8   12.88    0.61 
  -4  -8   8   11.81    0.61 
  -4  -8   8   13.06    0.58 
   3   8  -8    5.91    0.38 
   3   8  -8    6.28    0.37 
   3   8  -8    6.73    0.37 
   3   8  -8    6.47    0.38 
  -3  -8   8    6.52    0.33 
  -3  -8   8    6.46    0.37 
   2   8  -8    4.85    0.30 
   2   8  -8    4.94    0.31 
   2   8  -8    4.47    0.30 
   2   8  -8    4.39    0.30 
   2   8  -8    4.32    0.30 
  -2  -8   8    4.76    0.31 
  -2  -8   8    4.82    0.26 
   1   8  -8   22.97    1.06 
   1   8  -8   22.93    1.06 
   1   8  -8   21.22    1.05 
  -1  -8   8   22.48    1.02 
  -1  -8   8   21.50    1.02 
  -1  -8   8   22.67    1.07 
   0   8  -8   48.46    2.10 
   0   8  -8   43.81    2.09 
   0  -8   8   46.59    2.11 
   0  -8   8   46.56    2.07 
  -1   8  -8   46.91    2.05 
   1  -8   8   43.66    2.05 
   1  -8   8   45.29    2.02 
  -2   8  -8   32.74    1.45 
  -2   8  -8   30.61    1.44 
   2  -8   8   31.12    1.42 
   2  -8   8   31.37    1.45 
  -3   8  -8   11.51    0.56 
  -3   8  -8   11.56    0.56 
   3  -8   8   11.33    0.54 
   3  -8   8   10.18    0.54 
  -4   8  -8    0.94    0.10 
   5   7  -8    0.46    0.08 
   5   7  -8    0.65    0.08 
   4   7  -8    0.60    0.11 
   4   7  -8    0.74    0.11 
   4   7  -8    0.50    0.10 
   4   7  -8    0.67    0.14 
  -4  -7   8    0.69    0.10 
   3   7  -8    0.04    0.09 
   3   7  -8    0.10    0.08 
   3   7  -8    0.12    0.09 
   3   7  -8    0.05    0.07 
  -3  -7   8    0.07    0.06 
   2   7  -8    0.03    0.10 
   2   7  -8    0.13    0.08 
   2   7  -8    0.06    0.08 
   2   7  -8    0.00    0.09 
   2   7  -8   -0.01    0.09 
  -2  -7   8    0.05    0.06 
   1   7  -8    0.18    0.08 
   1   7  -8    0.22    0.10 
   1   7  -8    0.06    0.14 
   1   7  -8    0.16    0.09 
   1   7  -8    0.16    0.10 
  -1  -7   8    0.29    0.20 
  -1  -7   8    0.18    0.06 
  -1  -7   8    0.28    0.10 
  -1  -7   8    0.07    0.08 
   0   7  -8   13.20    0.73 
   0   7  -8   14.41    0.66 
   0   7  -8   12.47    0.66 
   0  -7   8   13.66    0.89 
   0  -7   8   13.45    0.64 
   0  -7   8   12.74    0.67 
  -1   7  -8    0.32    0.09 
   1  -7   8    0.51    0.09 
  -2   7  -8    0.28    0.09 
  -2   7  -8    0.25    0.09 
   2  -7   8    0.14    0.09 
   2  -7   8    0.30    0.08 
   2  -7   8    0.26    0.09 
   2  -7   8    0.25    0.07 
  -3   7  -8   10.25    0.53 
  -3   7  -8   10.55    0.52 
   3  -7   8   10.19    0.51 
   3  -7   8   10.15    0.53 
   3  -7   8   10.02    0.50 
  -4   7  -8    0.09    0.08 
  -4   7  -8    0.17    0.07 
   4  -7   8    0.06    0.06 
   4  -7   8    0.18    0.06 
   5   6  -8    1.20    0.11 
   5   6  -8    1.15    0.13 
  -5  -6   8    0.88    0.10 
   4   6  -8    0.24    0.09 
   4   6  -8    0.45    0.10 
   4   6  -8    0.36    0.09 
   4   6  -8    0.22    0.12 
  -4  -6   8    0.38    0.07 
   3   6  -8    2.22    0.19 
   3   6  -8    2.12    0.20 
   3   6  -8    2.25    0.20 
   3   6  -8    2.08    0.21 
  -3  -6   8    2.22    0.16 
   2   6  -8    5.32    0.30 
   2   6  -8    4.63    0.30 
   2   6  -8    4.29    0.30 
   2   6  -8    4.71    0.27 
   2   6  -8    5.00    0.31 
  -2  -6   8    5.24    0.49 
  -2  -6   8    4.29    0.27 
  -2  -6   8    5.25    0.27 
   1   6  -8    0.92    0.28 
   1   6  -8    1.28    0.16 
   1   6  -8    1.10    0.14 
   1   6  -8    0.97    0.15 
   1   6  -8    0.92    0.15 
   1   6  -8    0.85    0.18 
  -1  -6   8    1.27    0.12 
  -1  -6   8    1.10    0.13 
  -1  -6   8    1.30    0.28 
   0   6  -8    5.39    0.35 
   0   6  -8    5.17    0.31 
   0   6  -8    5.67    0.31 
   0   6  -8    5.42    0.37 
   0  -6   8    5.23    0.29 
   0  -6   8    5.40    0.32 
   0  -6   8    5.74    0.48 
  -1   6  -8    9.31    0.53 
  -1   6  -8   11.41    0.61 
  -1   6  -8   11.91    0.54 
   1  -6   8    9.80    0.71 
   1  -6   8   10.29    0.55 
   1  -6   8   11.16    0.52 
  -2   6  -8    5.80    0.33 
  -2   6  -8    6.04    0.33 
   2  -6   8    5.21    0.34 
   2  -6   8    6.07    0.35 
   2  -6   8    6.12    0.33 
   2  -6   8    5.88    0.31 
  -3   6  -8    5.66    0.32 
  -3   6  -8    5.20    0.29 
   3  -6   8    5.37    0.31 
   3  -6   8    5.29    0.33 
   3  -6   8    5.59    0.30 
  -4   6  -8    0.08    0.07 
  -4   6  -8    0.12    0.08 
  -4   6  -8    0.26    0.08 
   4  -6   8    0.12    0.06 
   4  -6   8    0.24    0.06 
   4  -6   8    0.15    0.08 
   4  -6   8    0.16    0.07 
   4  -6   8    0.30    0.08 
   5   5  -8   13.80    0.67 
   5   5  -8   14.84    0.67 
   5   5  -8   13.24    0.66 
  -5  -5   8   13.75    0.65 
   4   5  -8    0.11    0.12 
   4   5  -8    0.34    0.08 
   4   5  -8    0.45    0.10 
   4   5  -8    0.32    0.09 
  -4  -5   8    0.38    0.06 
   3   5  -8   26.66    1.27 
   3   5  -8   28.21    1.27 
   3   5  -8   28.03    1.27 
   3   5  -8   27.23    1.28 
   3   5  -8   25.34    1.22 
  -3  -5   8   27.63    1.22 
   2   5  -8   42.73    1.90 
   2   5  -8   39.91    1.86 
   2   5  -8   46.10    1.91 
   2   5  -8   41.35    1.90 
   2   5  -8   41.55    1.90 
  -2  -5   8   40.39    1.86 
  -2  -5   8   42.02    2.11 
   1   5  -8   23.03    1.35 
   1   5  -8   23.23    1.14 
   1   5  -8   26.30    1.16 
   1   5  -8   25.32    1.21 
  -1  -5   8   24.55    1.11 
  -1  -5   8   25.76    1.34 
   0   5  -8   13.32    0.71 
   0  -5   8   12.93    0.69 
   0  -5   8   15.38    0.86 
  -1   5  -8  123.34    5.41 
  -1   5  -8  127.65    5.35 
   1  -5   8  118.26    5.34 
   1  -5   8  118.81    5.56 
  -2   5  -8   18.90    0.98 
  -2   5  -8   19.15    0.88 
  -2   5  -8   21.19    0.92 
   2  -5   8   19.37    0.89 
   2  -5   8   19.08    0.93 
   2  -5   8   20.27    0.91 
   2  -5   8   17.68    1.10 
  -3   5  -8   10.46    0.50 
  -3   5  -8   10.18    0.47 
   3  -5   8    8.61    0.47 
   3  -5   8    9.82    0.47 
   3  -5   8    9.58    0.52 
   3  -5   8   10.21    0.49 
   3  -5   8    8.31    0.51 
  -4   5  -8   10.97    0.54 
  -4   5  -8   11.36    0.52 
   4  -5   8    9.83    0.52 
   4  -5   8   10.57    0.52 
   4  -5   8   10.30    0.56 
   4  -5   8   10.88    0.53 
   4  -5   8   11.39    0.57 
  -5   5  -8    3.31    0.19 
  -5   5  -8    2.62    0.19 
   5  -5   8    3.27    0.20 
   5  -5   8    2.83    0.18 
   5  -5   8    3.05    0.17 
   5  -5   8    3.00    0.19 
   5  -5   8    3.05    0.17 
   5   4  -8    0.07    0.06 
   5   4  -8    0.03    0.08 
   5   4  -8    0.07    0.07 
   4   4  -8    0.05    0.07 
   4   4  -8   -0.01    0.06 
   4   4  -8   -0.07    0.08 
  -4  -4   8    0.09    0.07 
   3   4  -8    1.08    0.16 
   3   4  -8    0.77    0.35 
   3   4  -8    1.18    0.12 
   3   4  -8    1.23    0.14 
   3   4  -8    1.24    0.16 
   3   4  -8    1.11    0.15 
  -3  -4   8    1.27    0.12 
  -3  -4   8    1.40    0.30 
   2   4  -8    0.07    0.07 
   2   4  -8    0.17    0.06 
   2   4  -8   -0.07    0.08 
   2   4  -8    0.11    0.16 
   2   4  -8    0.04    0.09 
   2   4  -8    0.10    0.07 
  -2  -4   8    0.04    0.05 
  -2  -4   8    0.32    0.16 
   1   4  -8   37.84    1.99 
   1   4  -8   42.14    1.84 
  -1  -4   8   41.43    1.97 
  -1  -4   8   37.54    1.76 
   0   4  -8   92.94    4.02 
   0   4  -8   87.44    4.13 
   0  -4   8   90.47    4.15 
  -1   4  -8   20.37    0.96 
   1  -4   8   19.23    1.07 
  -2   4  -8   30.96    1.39 
  -2   4  -8   30.64    1.47 
  -2   4  -8   33.16    1.42 
   2  -4   8   28.47    1.43 
   2  -4   8   31.62    1.60 
   2  -4   8   30.41    1.40 
   2  -4   8   32.90    1.50 
   2  -4   8   31.66    1.41 
  -3   4  -8    0.87    0.09 
  -3   4  -8    0.84    0.12 
   3  -4   8    0.58    0.14 
   3  -4   8    0.87    0.10 
   3  -4   8    0.99    0.12 
   3  -4   8    1.09    0.20 
   3  -4   8    0.87    0.14 
   3  -4   8    0.96    0.12 
  -4   4  -8   17.36    0.75 
  -4   4  -8   16.25    0.78 
   4  -4   8   16.45    0.81 
   4  -4   8   16.40    0.77 
   4  -4   8   15.29    0.75 
   4  -4   8   16.37    0.75 
   4  -4   8   14.96    0.80 
   4  -4   8   15.51    0.86 
  -5   4  -8    0.40    0.09 
  -5   4  -8    0.45    0.07 
   5  -4   8    0.44    0.06 
   5  -4   8    0.33    0.08 
   5  -4   8    0.33    0.07 
   5  -4   8    0.66    0.10 
   5   3  -8    0.03    0.09 
   5   3  -8    0.01    0.07 
   5   3  -8    0.00    0.06 
   4   3  -8    3.58    0.25 
   4   3  -8    3.49    0.24 
   4   3  -8    3.60    0.22 
   4   3  -8    3.62    0.24 
   3   3  -8    0.11    0.07 
   3   3  -8    0.17    0.07 
   3   3  -8    0.08    0.21 
   3   3  -8    0.12    0.08 
   3   3  -8    0.16    0.07 
  -3  -3   8    0.10    0.09 
  -3  -3   8    0.26    0.20 
   2   3  -8   44.88    2.41 
  -2  -3   8   47.75    2.15 
  -2  -3   8   53.28    2.39 
   1   3  -8    2.32    0.30 
   1   3  -8    2.32    0.19 
  -1  -3   8    2.70    0.27 
   0   3  -8  119.64    5.43 
   0   3  -8  122.18    5.31 
   0  -3   8  119.76    5.43 
  -1   3  -8    2.43    0.19 
   1  -3   8    2.56    0.22 
   1  -3   8    2.64    0.26 
  -2   3  -8   11.78    0.60 
  -2   3  -8   11.06    0.51 
   2  -3   8   11.58    0.68 
   2  -3   8   10.53    0.64 
  -3   3  -8   38.91    1.88 
  -3   3  -8   42.49    1.78 
   3  -3   8   38.36    1.95 
   3  -3   8   41.55    1.81 
   3  -3   8   41.19    1.86 
   3  -3   8   38.28    1.86 
   3  -3   8   39.38    1.81 
   3  -3   8   42.56    1.92 
   3  -3   8   40.34    1.80 
  -4   3  -8    3.38    0.18 
   4  -3   8    3.02    0.20 
   4  -3   8    3.13    0.21 
   4  -3   8    3.01    0.19 
   4  -3   8    3.31    0.32 
   4  -3   8    3.37    0.26 
   4  -3   8    2.86    0.26 
  -5   3  -8    0.22    0.06 
  -5   3  -8    0.18    0.07 
   5  -3   8    0.38    0.10 
   5  -3   8    0.30    0.06 
   5  -3   8    0.38    0.10 
   5  -3   8    0.33    0.14 
   5  -3   8    0.31    0.07 
   5   2  -8   11.68    0.58 
   5   2  -8   11.75    0.58 
   4   2  -8   14.20    0.68 
   4   2  -8   15.29    0.72 
   4   2  -8   13.98    0.71 
   4   2  -8   14.62    0.71 
   3   2  -8    2.27    0.38 
   3   2  -8    2.76    0.20 
   3   2  -8    3.28    0.21 
   3   2  -8    2.64    0.18 
   3   2  -8    2.52    0.21 
  -3  -2   8    2.64    0.38 
   2   2  -8   13.11    0.84 
  -2  -2   8   15.26    0.84 
  -2  -2   8   12.04    0.63 
   1   2  -8    0.61    0.18 
  -1  -2   8    0.31    0.12 
   0   2  -8   43.86    2.05 
   0   2  -8   43.81    1.94 
   0  -2   8   41.90    2.04 
  -1   2  -8   58.17    2.58 
   1  -2   8   55.81    2.63 
   1  -2   8   59.46    2.67 
  -2   2  -8    5.51    0.33 
   2  -2   8    5.69    0.40 
   2  -2   8    5.56    0.38 
  -3   2  -8   31.79    1.46 
   3  -2   8   31.46    1.50 
   3  -2   8   31.29    1.39 
   3  -2   8   29.65    1.43 
   3  -2   8   29.29    1.53 
   3  -2   8   30.36    1.37 
   3  -2   8   31.28    1.39 
   3  -2   8   30.49    1.45 
  -4   2  -8    0.86    0.08 
   4  -2   8    0.91    0.10 
   4  -2   8    0.85    0.15 
   4  -2   8    1.22    0.21 
   4  -2   8    0.97    0.11 
   4  -2   8    1.04    0.12 
  -5   2  -8    1.52    0.12 
  -5   2  -8    1.33    0.14 
   5  -2   8    1.39    0.22 
   5  -2   8    1.27    0.13 
   5  -2   8    1.14    0.17 
   5  -2   8    1.82    0.17 
   5  -2   8    1.53    0.12 
   6  -2   8    2.79    0.19 
   5   1  -8    2.86    0.18 
   5   1  -8    2.90    0.21 
   5   1  -8    3.06    0.21 
   4   1  -8    5.75    0.36 
   4   1  -8    6.53    0.36 
   4   1  -8    6.41    0.36 
   4   1  -8    6.13    0.33 
   3   1  -8    3.75    0.47 
   3   1  -8    5.15    0.27 
   3   1  -8    4.53    0.29 
   3   1  -8    5.75    0.29 
   3   1  -8    4.96    0.30 
   3   1  -8    4.29    0.27 
  -3  -1   8    5.40    0.53 
   2   1  -8    5.93    0.50 
  -2  -1   8    6.96    0.53 
   1   1  -8    2.00    0.25 
  -1  -1   8    2.49    0.26 
   0   1  -8    3.28    0.19 
   0   1  -8    2.79    0.25 
   0  -1   8    2.95    0.23 
   0  -1   8    2.71    0.25 
  -1   1  -8   53.74    2.31 
  -1   1  -8   52.44    2.37 
   1  -1   8   51.39    2.38 
   1  -1   8   49.76    2.38 
  -2   1  -8    2.49    0.18 
   2  -1   8    2.09    0.22 
   2  -1   8    2.18    0.22 
  -3   1  -8   15.44    0.67 
  -3   1  -8   13.28    0.76 
  -3   1  -8   15.50    0.77 
   3  -1   8   14.49    0.82 
   3  -1   8   14.63    0.77 
   3  -1   8   14.87    0.80 
   3  -1   8   15.07    0.70 
   3  -1   8   14.50    0.74 
   3  -1   8   15.13    0.70 
  -4   1  -8    0.20    0.05 
   4  -1   8    0.03    0.06 
   4  -1   8    0.43    0.16 
   4  -1   8    0.07    0.10 
   4  -1   8    0.10    0.09 
   4  -1   8    0.10    0.06 
  -5   1  -8    0.05    0.04 
   5  -1   8    0.03    0.05 
   5  -1   8    0.01    0.06 
   5  -1   8    0.06    0.13 
   5  -1   8    0.11    0.08 
   5  -1   8    0.05    0.09 
   6  -1   8    0.50    0.09 
   6  -1   8    0.70    0.07 
   6  -1   8    0.71    0.11 
   5   0  -8    0.91    0.11 
   5   0  -8    0.69    0.11 
   5   0  -8    0.56    0.10 
   4   0  -8   20.70    0.99 
   4   0  -8   21.64    1.00 
   4   0  -8   19.86    0.96 
   4   0  -8   21.91    0.99 
   4   0  -8   20.44    0.96 
   3   0  -8   15.69    0.94 
   3   0  -8   15.93    0.71 
   3   0  -8   14.51    0.73 
   3   0  -8   16.27    0.74 
   3   0  -8   13.90    0.97 
   3   0  -8   16.04    0.75 
   3   0  -8   14.62    0.71 
  -3   0   8   14.48    1.00 
   2   0  -8   23.76    1.23 
   2   0  -8   22.24    1.25 
  -2   0   8   23.73    1.29 
   1   0  -8  529.76   23.57 
  -1   0   8  514.63   23.54 
  -1   0   8  574.18   23.63 
   0   0  -8  199.66    8.85 
   0   0  -8  205.18    8.76 
   0   0   8  196.55    8.85 
   0   0   8  202.94    8.84 
  -1   0  -8   32.63    1.55 
  -1   0  -8   32.62    1.49 
   1   0   8   35.62    1.58 
   1   0   8   31.75    1.54 
  -2   0  -8  164.81    7.20 
   2   0   8  163.50    7.28 
  -3   0  -8   50.02    2.32 
  -3   0  -8   53.23    2.41 
   3   0   8   53.98    2.48 
   3   0   8   53.43    2.42 
   3   0   8   53.99    2.45 
   3   0   8   52.73    2.34 
  -4   0  -8    0.47    0.07 
   4   0   8    0.70    0.15 
   4   0   8    0.77    0.19 
   4   0   8    0.56    0.09 
   4   0   8    0.79    0.15 
   4   0   8    0.55    0.09 
  -5   0  -8   12.64    0.58 
   5   0   8   13.55    0.60 
   5   0   8   11.36    0.66 
   5   0   8   12.81    0.60 
   5   0   8   11.76    0.71 
   5   0   8   12.71    0.66 
  -6   0  -8    6.06    0.29 
  -6   0  -8    5.28    0.31 
   6   0   8    5.82    0.38 
   6   0   8    6.48    0.34 
   6   0   8    6.19    0.29 
   6   0   8    5.96    0.34 
   5  -1  -8    1.49    0.14 
   5  -1  -8    1.56    0.15 
   5  -1  -8    1.71    0.15 
   5  -1  -8    1.75    0.13 
   4  -1  -8    0.44    0.09 
   4  -1  -8    0.48    0.11 
   4  -1  -8    0.43    0.09 
   4  -1  -8    0.45    0.09 
   3  -1  -8    6.00    0.32 
   3  -1  -8    6.22    0.53 
   3  -1  -8    6.07    0.35 
   3  -1  -8    6.18    0.32 
   3  -1  -8    5.46    0.55 
   3  -1  -8    5.42    0.34 
   3  -1  -8    6.48    0.34 
  -3   1   8    6.42    0.59 
   2  -1  -8    0.41    0.16 
   2  -1  -8    0.56    0.19 
  -2   1   8    0.37    0.17 
  -2   1   8    0.39    0.18 
   1  -1  -8    3.35    0.29 
   1  -1  -8    3.20    0.29 
  -1   1   8    3.04    0.30 
  -1   1   8    3.61    0.33 
   0  -1  -8   51.37    2.41 
   0  -1  -8   51.20    2.30 
   0   1   8   53.46    2.41 
   0   1   8   53.59    2.41 
  -1  -1  -8   81.56    3.55 
  -1  -1  -8   76.94    3.65 
   1   1   8   81.69    3.64 
   1   1   8   82.68    3.59 
  -2  -1  -8    2.35    0.25 
  -2  -1  -8    2.89    0.20 
   2   1   8    2.65    0.25 
  -3  -1  -8   28.49    1.24 
  -3  -1  -8   24.85    1.15 
   3   1   8   24.03    1.29 
  -4  -1  -8    6.09    0.44 
  -4  -1  -8    5.33    0.28 
   4   1   8    6.40    0.37 
   4   1   8    4.80    0.46 
   4   1   8    4.87    0.29 
   4   1   8    4.73    0.37 
   4   1   8    5.38    0.42 
   4   1   8    5.86    0.30 
   4   1   8    5.55    0.41 
  -5  -1  -8    8.66    0.43 
   5   1   8    9.42    0.53 
   5   1   8    8.97    0.58 
   5   1   8    9.53    0.45 
   5   1   8    8.93    0.53 
   5   1   8    9.26    0.45 
  -6  -1  -8    4.10    0.21 
   6   1   8    3.71    0.26 
   6   1   8    4.20    0.26 
   6   1   8    4.34    0.21 
   6   1   8    3.54    0.30 
   5  -2  -8    1.42    0.13 
   5  -2  -8    1.37    0.14 
   5  -2  -8    1.56    0.12 
  -5   2   8    1.35    0.17 
   4  -2  -8    1.54    0.15 
   4  -2  -8    1.55    0.13 
   4  -2  -8    1.44    0.14 
   4  -2  -8    1.49    0.17 
   4  -2  -8    1.28    0.11 
  -4   2   8    1.38    0.15 
   3  -2  -8   14.66    0.67 
   3  -2  -8   15.32    0.68 
   3  -2  -8   15.23    0.73 
   3  -2  -8   13.27    0.71 
   3  -2  -8   14.81    0.71 
   3  -2  -8   15.12    0.93 
   3  -2  -8   14.73    0.68 
  -3   2   8   14.08    0.68 
  -3   2   8   13.25    0.88 
  -3   2   8   14.59    0.99 
   2  -2  -8   25.56    1.28 
   2  -2  -8   24.29    1.31 
  -2   2   8   25.08    1.26 
  -2   2   8   22.71    1.10 
   1  -2  -8   13.43    0.74 
   1  -2  -8   13.90    0.76 
  -1   2   8   13.25    0.76 
   0  -2  -8    1.73    0.21 
   0   2   8    2.19    0.21 
   0   2   8    1.44    0.21 
  -1  -2  -8   33.18    1.53 
  -1  -2  -8   33.69    1.64 
   1   2   8   35.52    1.63 
  -2  -2  -8    1.49    0.14 
  -2  -2  -8    1.46    0.20 
   2   2   8    1.49    0.19 
  -3  -2  -8    4.09    0.28 
  -3  -2  -8    3.61    0.20 
   3   2   8    3.94    0.32 
  -4  -2  -8    0.16    0.14 
  -4  -2  -8    0.18    0.06 
   4   2   8    0.13    0.14 
   4   2   8    0.10    0.11 
   4   2   8    0.16    0.06 
   4   2   8    0.10    0.10 
   4   2   8    0.21    0.15 
   4   2   8    0.08    0.13 
  -5  -2  -8    0.19    0.06 
   5   2   8    0.13    0.10 
   5   2   8    0.20    0.06 
   5   2   8    0.20    0.11 
   5   2   8    0.36    0.32 
   5   2   8    0.19    0.14 
   6   2   8    1.08    0.14 
   6   2   8    1.11    0.10 
   6   2   8    0.98    0.17 
   6   2   8    1.15    0.15 
   5  -3  -8   25.52    1.16 
   5  -3  -8   25.87    1.17 
   5  -3  -8   25.78    1.17 
   5  -3  -8   26.54    1.20 
  -5   3   8   26.53    1.19 
   4  -3  -8    0.55    0.07 
   4  -3  -8    0.67    0.09 
   4  -3  -8    0.71    0.12 
   4  -3  -8    0.46    0.10 
   4  -3  -8    0.58    0.09 
  -4   3   8    0.47    0.09 
   3  -3  -8   62.25    3.04 
   3  -3  -8   62.89    2.77 
   3  -3  -8   66.05    2.78 
   3  -3  -8   59.97    2.81 
   3  -3  -8   66.05    2.83 
   3  -3  -8   66.15    2.79 
   3  -3  -8   62.30    2.82 
  -3   3   8   57.71    3.00 
  -3   3   8   63.65    2.79 
   2  -3  -8   95.59    4.20 
   2  -3  -8   92.22    4.24 
  -2   3   8   90.96    4.19 
  -2   3   8   87.86    4.02 
   1  -3  -8   75.79    3.40 
   1  -3  -8   76.00    3.44 
  -1   3   8   73.03    3.43 
   0  -3  -8   74.72    3.52 
   0  -3  -8   80.52    3.45 
   0   3   8   81.36    3.48 
   0   3   8   69.98    3.50 
  -1  -3  -8  112.74    4.91 
  -1  -3  -8  107.35    4.78 
   1   3   8  110.75    4.90 
   1   3   8  105.11    4.82 
  -2  -3  -8  122.09    5.24 
  -2  -3  -8  120.78    5.34 
   2   3   8  123.27    5.33 
   2   3   8  110.20    5.33 
  -3  -3  -8   13.47    0.68 
  -3  -3  -8   11.96    0.59 
   3   3   8   13.85    0.74 
  -4  -3  -8   14.21    0.67 
  -4  -3  -8   14.86    0.79 
   4   3   8   14.65    0.79 
   4   3   8   16.16    0.82 
   4   3   8   14.26    0.76 
   4   3   8   14.39    0.83 
   4   3   8   14.08    0.78 
   4   3   8   15.08    0.69 
  -5  -3  -8   16.22    0.79 
   5   3   8   16.10    0.90 
   5   3   8   17.88    0.80 
   5   3   8   17.07    0.94 
   5   3   8   17.85    0.90 
   5   3   8   18.15    0.89 
  -6  -3  -8    0.15    0.05 
   6   3   8    0.19    0.09 
   6   3   8    0.22    0.13 
   6   3   8    0.14    0.05 
   6   3   8    0.14    0.08 
   5  -4  -8   -0.02    0.05 
   5  -4  -8    0.00    0.07 
   5  -4  -8    0.06    0.05 
   5  -4  -8    0.03    0.04 
  -5   4   8    0.00    0.08 
   4  -4  -8   20.50    0.97 
   4  -4  -8   20.39    0.98 
   4  -4  -8   20.27    0.94 
   4  -4  -8   20.43    0.93 
   4  -4  -8   20.09    0.92 
  -4   4   8   20.26    0.95 
   3  -4  -8    7.48    0.38 
   3  -4  -8    7.65    0.42 
   3  -4  -8    7.53    0.37 
   3  -4  -8    7.74    0.41 
   3  -4  -8    7.74    0.38 
  -3   4   8    7.06    0.39 
   2  -4  -8   23.88    1.15 
   2  -4  -8   24.79    1.34 
   2  -4  -8   24.46    1.11 
   2  -4  -8   25.43    1.12 
   2  -4  -8   26.85    1.31 
   2  -4  -8   26.21    1.15 
   2  -4  -8   24.41    1.12 
  -2   4   8   24.80    1.32 
  -2   4   8   23.64    1.13 
   1  -4  -8   72.23    3.27 
   1  -4  -8   70.25    3.21 
  -1   4   8   69.42    3.27 
   0  -4  -8   47.99    2.24 
   0  -4  -8   47.84    2.13 
   0   4   8   43.64    2.21 
  -1  -4  -8    1.19    0.20 
   1   4   8    1.66    0.22 
   1   4   8    1.57    0.16 
  -2  -4  -8  112.61    4.94 
  -2  -4  -8  116.50    5.05 
   2   4   8  106.85    5.04 
   2   4   8  112.14    5.01 
  -3  -4  -8    0.82    0.19 
  -3  -4  -8    1.03    0.14 
  -3  -4  -8    0.85    0.08 
   3   4   8    1.01    0.23 
   3   4   8    1.14    0.21 
  -4  -4  -8   11.97    0.57 
  -4  -4  -8   13.16    0.70 
   4   4   8   12.18    0.58 
   4   4   8   11.64    0.66 
   4   4   8   12.34    0.73 
   4   4   8   12.80    0.70 
   4   4   8   12.49    0.67 
   4   4   8   11.64    0.69 
  -5  -4  -8    9.18    0.46 
   5   4   8    9.78    0.58 
   5   4   8    8.99    0.59 
   5   4   8    8.98    0.55 
   5   4   8   10.02    0.47 
   5   4   8   10.45    0.57 
  -6  -4  -8    0.92    0.10 
   6   4   8    0.93    0.18 
   6   4   8    1.03    0.14 
   6   4   8    1.09    0.15 
   5  -5  -8    1.93    0.11 
   5  -5  -8    1.80    0.13 
   5  -5  -8    1.55    0.14 
   5  -5  -8    1.54    0.12 
  -5   5   8    1.70    0.18 
   4  -5  -8    1.58    0.16 
   4  -5  -8    1.67    0.13 
   4  -5  -8    2.02    0.13 
   4  -5  -8    1.72    0.18 
   4  -5  -8    1.84    0.15 
  -4   5   8    1.58    0.16 
   3  -5  -8    3.68    0.25 
   3  -5  -8    3.40    0.23 
   3  -5  -8    3.43    0.21 
   3  -5  -8    3.48    0.19 
   3  -5  -8    2.99    0.22 
   3  -5  -8    3.37    0.20 
  -3   5   8    3.34    0.22 
  -3   5   8    2.72    0.29 
   2  -5  -8   36.04    1.72 
   2  -5  -8   38.25    1.71 
   2  -5  -8   38.35    1.73 
   2  -5  -8   37.88    1.75 
   2  -5  -8   40.17    1.70 
   2  -5  -8   40.78    1.74 
   2  -5  -8   40.40    1.90 
   2  -5  -8   37.75    1.70 
  -2   5   8   38.41    1.94 
  -2   5   8   34.92    1.77 
  -2   5   8   39.64    1.73 
   1  -5  -8    4.68    0.34 
   1  -5  -8    4.66    0.40 
  -1   5   8    4.61    0.40 
  -1   5   8    4.03    0.25 
   0  -5  -8   23.11    1.09 
   0  -5  -8   22.76    1.21 
   0   5   8   22.31    1.21 
  -1  -5  -8  111.12    4.91 
   1   5   8  104.89    4.81 
   1   5   8  110.29    4.92 
  -2  -5  -8    0.40    0.06 
  -2  -5  -8    0.48    0.15 
   2   5   8    0.60    0.15 
   2   5   8    0.46    0.16 
  -3  -5  -8   55.42    2.60 
  -3  -5  -8   55.21    2.40 
  -3  -5  -8   57.28    2.49 
   3   5   8   57.17    2.57 
   3   5   8   51.99    2.50 
   3   5   8   56.44    2.60 
   3   5   8   51.33    2.46 
   3   5   8   51.30    2.46 
   3   5   8   54.64    2.48 
  -4  -5  -8   10.28    0.50 
   4   5   8   10.33    0.66 
   4   5   8   10.55    0.62 
   4   5   8   10.75    0.51 
   4   5   8   10.97    0.60 
   4   5   8   10.15    0.59 
   4   5   8   11.58    0.63 
  -5  -5  -8    7.24    0.37 
   5   5   8    7.52    0.46 
   5   5   8    7.34    0.46 
   5   5   8    7.63    0.50 
   5   5   8    7.02    0.47 
  -6  -5  -8    0.03    0.06 
   6   5   8    0.11    0.09 
   6   5   8    0.08    0.08 
   6   5   8    0.15    0.13 
   6   5   8    0.02    0.15 
   4  -6  -8   23.86    1.14 
   4  -6  -8   24.82    1.09 
   4  -6  -8   23.88    1.12 
   4  -6  -8   24.23    1.10 
   4  -6  -8   23.22    1.09 
  -4   6   8   25.08    1.13 
   3  -6  -8    6.50    0.32 
   3  -6  -8    6.24    0.36 
   3  -6  -8    5.97    0.34 
   3  -6  -8    6.58    0.37 
   3  -6  -8    6.25    0.33 
   3  -6  -8    6.23    0.32 
  -3   6   8    6.28    0.35 
  -3   6   8    5.45    0.41 
   2  -6  -8    4.64    0.28 
   2  -6  -8    4.60    0.29 
   2  -6  -8    5.23    0.28 
   2  -6  -8    4.76    0.43 
   2  -6  -8    4.62    0.38 
   2  -6  -8    4.82    0.25 
   2  -6  -8    4.58    0.26 
   2  -6  -8    4.95    0.25 
  -2   6   8    4.77    0.28 
  -2   6   8    4.76    0.50 
  -2   6   8    3.94    0.34 
   1  -6  -8    4.48    0.27 
   1  -6  -8    4.18    0.41 
   1  -6  -8    4.97    0.36 
  -1   6   8    3.96    0.26 
  -1   6   8    4.43    0.43 
   0  -6  -8   48.94    2.29 
   0   6   8   44.86    2.28 
  -1  -6  -8   59.23    2.86 
   1   6   8   63.29    2.89 
  -2  -6  -8    0.08    0.04 
  -2  -6  -8    0.17    0.13 
   2   6   8    0.26    0.16 
   2   6   8    0.06    0.10 
  -3  -6  -8   22.67    0.98 
  -3  -6  -8   19.68    0.99 
  -3  -6  -8   23.92    1.22 
   3   6   8   20.67    1.04 
   3   6   8   22.62    1.07 
   3   6   8   20.26    1.01 
   3   6   8   21.08    1.05 
   3   6   8   23.34    1.16 
   3   6   8   23.00    1.18 
   3   6   8   21.54    1.10 
  -4  -6  -8   -0.02    0.04 
   4   6   8    0.06    0.11 
   4   6   8    0.07    0.11 
   4   6   8    0.01    0.11 
   4   6   8    0.06    0.09 
  -5  -6  -8    3.36    0.19 
   5   6   8    2.90    0.28 
   5   6   8    2.98    0.30 
   5   6   8    3.66    0.29 
   5   6   8    3.71    0.31 
  -6  -6  -8    0.34    0.06 
   6   6   8    0.48    0.11 
   6   6   8    0.40    0.14 
   6   6   8    0.45    0.15 
   6   6   8    0.27    0.09 
   4  -7  -8   10.67    0.52 
   4  -7  -8   10.84    0.55 
   4  -7  -8   10.57    0.56 
   4  -7  -8   12.07    0.52 
   4  -7  -8   11.47    0.53 
  -4   7   8   11.33    0.57 
   3  -7  -8    0.89    0.13 
   3  -7  -8    0.97    0.12 
   3  -7  -8    0.89    0.13 
   3  -7  -8    1.10    0.10 
   3  -7  -8    0.97    0.10 
  -3   7   8    0.96    0.15 
  -3   7   8    1.02    0.20 
   2  -7  -8    0.08    0.05 
   2  -7  -8    0.23    0.09 
   2  -7  -8    0.14    0.06 
   2  -7  -8    0.10    0.07 
   2  -7  -8    0.03    0.07 
   2  -7  -8    0.07    0.06 
  -2   7   8    0.04    0.12 
  -2   7   8    0.13    0.07 
   1  -7  -8   64.17    2.88 
   1  -7  -8   60.61    2.74 
   1  -7  -8   58.76    2.73 
   1  -7  -8   64.42    2.73 
   1  -7  -8   62.95    2.70 
  -1   7   8   61.19    2.97 
  -1   7   8   59.75    2.74 
  -1   7   8   60.00    2.79 
   0  -7  -8    0.14    0.18 
   0   7   8    0.20    0.20 
  -1  -7  -8   26.18    1.38 
   1   7   8   26.91    1.40 
  -2  -7  -8   30.87    1.49 
  -2  -7  -8   28.16    1.26 
  -2  -7  -8   27.78    1.28 
   2   7   8   28.08    1.39 
   2   7   8   27.08    1.29 
   2   7   8   28.20    1.37 
   2   7   8   29.48    1.46 
   2   7   8   26.15    1.31 
  -3  -7  -8    8.65    0.64 
  -3  -7  -8    9.25    0.43 
  -3  -7  -8    8.32    0.44 
   3   7   8    9.55    0.50 
   3   7   8    8.55    0.47 
   3   7   8    8.16    0.54 
   3   7   8    8.94    0.50 
   3   7   8    8.72    0.50 
   3   7   8   10.14    0.63 
  -4  -7  -8    0.40    0.06 
   4   7   8    0.40    0.15 
   4   7   8    0.20    0.12 
   4   7   8    0.62    0.14 
   4   7   8    0.44    0.14 
  -5  -7  -8    6.25    0.32 
   5   7   8    6.20    0.41 
   5   7   8    6.51    0.41 
   5   7   8    5.73    0.43 
   5   7   8    6.78    0.42 
  -6  -7  -8    0.22    0.06 
   6   7   8    0.22    0.12 
   6   7   8    0.30    0.10 
   6   7   8    0.21    0.13 
   4  -8  -8    3.68    0.19 
   4  -8  -8    3.66    0.22 
   4  -8  -8    3.39    0.19 
   4  -8  -8    3.60    0.20 
  -4   8   8    2.80    0.27 
  -4   8   8    3.83    0.26 
  -4   8   8    3.46    0.24 
   3  -8  -8   21.51    1.01 
   3  -8  -8   22.69    1.01 
   3  -8  -8   21.94    1.02 
   3  -8  -8   22.87    1.05 
   3  -8  -8   22.32    1.05 
  -3   8   8   20.63    1.10 
  -3   8   8   23.66    1.06 
   2  -8  -8    0.98    0.11 
   2  -8  -8    1.03    0.13 
   2  -8  -8    0.99    0.14 
   2  -8  -8    0.88    0.10 
   2  -8  -8    1.17    0.12 
  -2   8   8    1.01    0.19 
  -2   8   8    0.84    0.13 
   1  -8  -8  140.25    5.99 
   1  -8  -8  134.66    5.99 
   1  -8  -8  134.00    5.96 
   1  -8  -8  145.25    6.00 
  -1   8   8  147.61    6.08 
  -1   8   8  132.31    6.00 
  -1   8   8  120.71    6.24 
   0  -8  -8  113.55    5.07 
   0  -8  -8  118.54    4.82 
   0  -8  -8  113.04    4.81 
   0  -8  -8  102.06    4.78 
   0   8   8  105.31    4.82 
   0   8   8  105.27    4.83 
   0   8   8  109.43    4.89 
   0   8   8  109.37    5.08 
  -1  -8  -8    1.85    0.15 
  -1  -8  -8    1.82    0.15 
  -1  -8  -8    2.31    0.32 
   1   8   8    2.01    0.18 
   1   8   8    1.98    0.26 
   1   8   8    2.00    0.35 
  -2  -8  -8  107.02    4.75 
  -2  -8  -8  110.19    4.99 
  -2  -8  -8  110.27    4.74 
   2   8   8  107.61    4.79 
   2   8   8  109.41    4.78 
   2   8   8  111.88    4.89 
   2   8   8  103.43    4.96 
   2   8   8  105.93    4.85 
   2   8   8  108.85    4.79 
  -3  -8  -8   28.97    1.32 
  -3  -8  -8   30.10    1.58 
  -3  -8  -8   30.66    1.31 
   3   8   8   28.09    1.38 
   3   8   8   28.64    1.50 
   3   8   8   28.52    1.37 
   3   8   8   28.82    1.35 
   3   8   8   27.84    1.43 
   3   8   8   30.36    1.39 
  -4  -8  -8    0.72    0.10 
  -4  -8  -8    1.00    0.10 
   4   8   8    0.74    0.18 
   4   8   8    0.87    0.16 
   4   8   8    1.05    0.18 
   4   8   8    0.91    0.16 
   4   8   8    0.62    0.12 
  -5  -8  -8    3.29    0.19 
   5   8   8    3.08    0.27 
   5   8   8    3.58    0.29 
   5   8   8    2.99    0.28 
   5   8   8    3.61    0.28 
   6   8   8    4.93    0.34 
   6   8   8    5.57    0.31 
   6   8   8    5.17    0.33 
   4  -9  -8    2.52    0.17 
   3  -9  -8    2.77    0.16 
   3  -9  -8    2.46    0.19 
   3  -9  -8    2.59    0.18 
   3  -9  -8    2.81    0.19 
   3  -9  -8    2.33    0.16 
  -3   9   8    2.07    0.25 
  -3   9   8    2.37    0.23 
   2  -9  -8   12.35    0.58 
   2  -9  -8   12.84    0.63 
   2  -9  -8   12.18    0.61 
  -2   9   8   11.96    0.63 
  -2   9   8   12.35    0.70 
   1  -9  -8    0.15    0.07 
   1  -9  -8    0.09    0.10 
   1  -9  -8    0.08    0.07 
   1  -9  -8    0.01    0.06 
  -1   9   8   -0.02    0.13 
  -1   9   8    0.13    0.13 
   0  -9  -8   41.38    1.90 
   0  -9  -8   46.20    1.91 
   0   9   8   43.68    1.99 
   0   9   8   36.73    2.15 
   0   9   8   45.52    1.92 
   0   9   8   38.89    1.92 
  -1  -9  -8   14.82    0.69 
  -1  -9  -8   13.76    0.68 
  -1  -9  -8   14.50    0.93 
   1   9   8   14.26    0.79 
   1   9   8   14.45    0.72 
  -2  -9  -8   13.22    0.86 
  -2  -9  -8   12.79    0.60 
  -2  -9  -8   12.64    0.62 
   2   9   8   12.49    0.72 
   2   9   8   11.86    0.77 
   2   9   8   13.28    0.65 
   2   9   8   13.25    0.66 
  -3  -9  -8    4.57    0.26 
  -3  -9  -8    4.92    0.25 
   3   9   8    3.94    0.36 
   3   9   8    4.41    0.32 
   3   9   8    4.22    0.32 
   3   9   8    4.49    0.32 
   3   9   8    4.06    0.28 
  -4  -9  -8    0.04    0.08 
  -4  -9  -8    0.10    0.05 
   4   9   8    0.15    0.11 
   4   9   8    0.24    0.11 
   4   9   8    0.20    0.15 
   4   9   8    0.23    0.12 
   4   9   8    0.14    0.09 
  -5  -9  -8    0.09    0.05 
   5   9   8    0.01    0.11 
   5   9   8    0.12    0.09 
   5   9   8    0.14    0.10 
   5   9   8    0.06    0.10 
   6   9   8    1.77    0.20 
   3 -10  -8    4.63    0.22 
   3 -10  -8    4.27    0.26 
   3 -10  -8    4.28    0.25 
  -3  10   8    4.36    0.29 
  -3  10   8    3.96    0.31 
   2 -10  -8   11.07    0.55 
   2 -10  -8   10.51    0.52 
   2 -10  -8   11.22    0.56 
  -2  10   8   11.11    0.63 
  -2  10   8   10.84    0.59 
   1 -10  -8   29.94    1.44 
   1 -10  -8   31.31    1.46 
   1 -10  -8   34.44    1.49 
  -1  10   8   33.82    1.57 
  -1  10   8   31.66    1.50 
   0 -10  -8    3.61    0.22 
   0 -10  -8    2.83    0.23 
   0  10   8    2.94    0.24 
   0  10   8    2.99    0.32 
  -1 -10  -8   11.73    0.57 
  -1 -10  -8   11.60    0.57 
   1  10   8   11.80    0.60 
   1  10   8   10.84    0.67 
  -2 -10  -8    4.88    0.27 
  -2 -10  -8    3.89    0.25 
  -2 -10  -8    4.30    0.24 
   2  10   8    5.08    0.40 
   2  10   8    4.44    0.30 
  -3 -10  -8    6.29    0.33 
  -3 -10  -8    6.48    0.32 
   3  10   8    5.46    0.43 
   3  10   8    6.04    0.39 
   3  10   8    6.19    0.39 
   3  10   8    5.54    0.38 
   3  10   8    5.97    0.36 
  -4 -10  -8    0.03    0.05 
  -4 -10  -8    0.11    0.07 
   4  10   8    0.02    0.13 
   4  10   8   -0.02    0.07 
   4  10   8    0.13    0.11 
   4  10   8    0.04    0.10 
   4  10   8    0.05    0.09 
  -5 -10  -8    3.22    0.19 
   5  10   8    3.56    0.25 
   5  10   8    3.08    0.25 
   5  10   8    3.02    0.26 
   3 -11  -8    8.82    0.44 
  -3  11   8    9.19    0.50 
   2 -11  -8   14.47    0.70 
   2 -11  -8   13.99    0.69 
  -2  11   8   14.10    0.71 
  -2  11   8   14.58    0.77 
   1 -11  -8   17.21    0.88 
   1 -11  -8   20.28    0.90 
  -1  11   8   19.68    0.99 
  -1  11   8   17.85    0.92 
   0 -11  -8    3.09    0.22 
   0 -11  -8    2.78    0.22 
   0  11   8    3.19    0.32 
   0  11   8    3.06    0.23 
  -1 -11  -8   54.66    2.46 
  -1 -11  -8   55.67    2.46 
   1  11   8   53.66    2.56 
   1  11   8   55.93    2.49 
  -2 -11  -8   31.52    1.44 
  -2 -11  -8   32.49    1.45 
   2  11   8   30.74    1.55 
   2  11   8   31.84    1.49 
  -3 -11  -8    0.36    0.09 
  -3 -11  -8    0.36    0.07 
   3  11   8    0.28    0.11 
   3  11   8    0.30    0.16 
   3  11   8    0.37    0.12 
  -4 -11  -8   15.13    0.69 
  -4 -11  -8   14.12    0.67 
   4  11   8   14.06    0.73 
   4  11   8   13.77    0.74 
   4  11   8   14.77    0.75 
  -5 -11  -8    1.84    0.13 
   5  11   8    1.77    0.19 
   5  11   8    2.03    0.18 
   5  11   8    1.41    0.18 
   2 -12  -8    5.92    0.33 
   2 -12  -8    5.91    0.32 
  -2  12   8    6.59    0.40 
   1 -12  -8    2.00    0.16 
   1 -12  -8    1.58    0.17 
  -1  12   8    1.99    0.21 
  -1  12   8    1.95    0.25 
   0 -12  -8    4.08    0.25 
   0 -12  -8    3.33    0.25 
   0  12   8    4.15    0.35 
   0  12   8    4.00    0.27 
  -1 -12  -8    1.22    0.13 
  -1 -12  -8    1.25    0.15 
   1  12   8    1.10    0.16 
   1  12   8    1.39    0.23 
  -2 -12  -8    9.56    0.47 
  -2 -12  -8    8.92    0.47 
   2  12   8    9.78    0.52 
   2  12   8    8.76    0.57 
  -3 -12  -8    2.55    0.18 
   3  12   8    2.32    0.21 
   3  12   8    2.43    0.27 
   3  12   8    2.26    0.22 
  -4 -12  -8    0.05    0.05 
  -4 -12  -8    0.03    0.06 
   4  12   8    0.04    0.10 
   4  12   8    0.00    0.09 
   4  12   8    0.04    0.11 
   5  12   8    0.43    0.11 
   1 -13  -8    2.70    0.19 
  -1  13   8    2.87    0.27 
   0 -13  -8    6.75    0.37 
   0  13   8    7.14    0.46 
   0  13   8    6.67    0.38 
  -1 -13  -8   45.04    2.08 
  -1 -13  -8   46.54    2.09 
   1  13   8   47.13    2.11 
   1  13   8   47.15    2.16 
  -2 -13  -8    2.76    0.19 
  -2 -13  -8    3.02    0.21 
   2  13   8    2.72    0.29 
   2  13   8    3.62    0.24 
  -3 -13  -8    3.40    0.21 
   3  13   8    3.25    0.24 
   3  13   8    3.04    0.26 
   4  13   8    8.89    0.45 
   4  13   8    7.28    0.43 
   0 -14  -8    2.43    0.17 
   0  14   8    2.50    0.19 
   0  14   8    2.14    0.24 
  -1 -14  -8    3.97    0.26 
  -1 -14  -8    4.32    0.25 
   1  14   8    4.45    0.33 
   1  14   8    4.59    0.27 
  -2 -14  -8    0.04    0.07 
  -2 -14  -8    0.00    0.05 
   2  14   8    0.10    0.08 
  -3 -14  -8    1.53    0.13 
   3  14   8    1.69    0.16 
  -2 -12   9    3.56    0.22 
  -1 -12   9    9.22    0.45 
   0  12  -9    0.41    0.07 
   0 -12   9    0.37    0.06 
   3  11  -9    1.81    0.15 
   3  11  -9    2.01    0.13 
  -3 -11   9    1.80    0.14 
   2  11  -9   10.15    0.50 
  -2 -11   9    9.36    0.48 
   1  11  -9    1.13    0.13 
   1  11  -9    1.09    0.15 
  -1 -11   9    1.38    0.13 
   0  11  -9    4.21    0.24 
   0 -11   9    3.86    0.24 
  -1  11  -9    4.65    0.26 
   1 -11   9    4.36    0.24 
   1 -11   9    4.48    0.25 
   3  10  -9    1.19    0.11 
   3  10  -9    1.31    0.15 
   3  10  -9    1.16    0.13 
  -3 -10   9    0.98    0.10 
  -3 -10   9    1.16    0.12 
  -3 -10   9    1.22    0.11 
   2  10  -9    1.20    0.15 
   2  10  -9    1.24    0.12 
   2  10  -9    0.98    0.14 
  -2 -10   9    0.96    0.11 
  -2 -10   9    1.33    0.14 
   1  10  -9    7.92    0.42 
   1  10  -9    8.40    0.44 
  -1 -10   9    8.48    0.43 
  -1 -10   9    6.83    0.42 
   0  10  -9    3.34    0.22 
   0 -10   9    3.39    0.23 
   0 -10   9    3.34    0.21 
  -1  10  -9    2.88    0.19 
   1 -10   9    2.70    0.18 
   1 -10   9    2.55    0.19 
  -2  10  -9    0.89    0.11 
   2 -10   9    0.82    0.11 
   2 -10   9    0.83    0.10 
   4   9  -9    0.25    0.07 
   4   9  -9    0.26    0.06 
   4   9  -9    0.31    0.08 
  -4  -9   9    0.26    0.07 
  -4  -9   9    0.30    0.05 
   3   9  -9    1.30    0.14 
   3   9  -9    1.07    0.15 
   3   9  -9    1.22    0.12 
  -3  -9   9    1.12    0.11 
  -3  -9   9    1.29    0.14 
   2   9  -9    0.04    0.09 
   2   9  -9    0.16    0.06 
   2   9  -9    0.14    0.09 
  -2  -9   9    0.12    0.06 
  -2  -9   9    0.14    0.08 
   1   9  -9    0.15    0.07 
   1   9  -9    0.18    0.10 
   1   9  -9    0.08    0.08 
  -1  -9   9    0.12    0.08 
  -1  -9   9    0.04    0.07 
  -1  -9   9    0.15    0.08 
   0   9  -9    1.74    0.16 
   0   9  -9    1.63    0.20 
   0  -9   9    1.73    0.15 
   0  -9   9    1.81    0.18 
  -1   9  -9    0.15    0.08 
   1  -9   9    0.08    0.07 
   1  -9   9    0.12    0.07 
  -2   9  -9    1.92    0.16 
  -2   9  -9    1.98    0.16 
   2  -9   9    1.87    0.15 
  -3   9  -9    0.23    0.07 
  -3   9  -9    0.20    0.07 
   3  -9   9    0.13    0.05 
   4   8  -9    4.34    0.26 
   4   8  -9    4.31    0.28 
   4   8  -9    4.37    0.25 
   4   8  -9    4.27    0.26 
  -4  -8   9    4.66    0.23 
  -4  -8   9    4.56    0.26 
   3   8  -9   19.20    0.92 
   3   8  -9   18.82    0.92 
   3   8  -9   18.47    0.93 
   3   8  -9   19.74    0.93 
  -3  -8   9   19.69    0.93 
  -3  -8   9   20.01    0.89 
   2   8  -9    8.09    0.47 
   2   8  -9    8.70    0.46 
   2   8  -9    8.36    0.46 
   2   8  -9    8.86    0.47 
  -2  -8   9    8.55    0.43 
  -2  -8   9    9.10    0.47 
   1   8  -9   20.42    1.01 
   1   8  -9   21.48    1.00 
   1   8  -9   21.53    1.00 
  -1  -8   9   21.50    1.02 
  -1  -8   9   20.75    0.98 
   0   8  -9   18.32    0.85 
   0   8  -9   17.05    0.86 
   0  -8   9   17.92    0.87 
   0  -8   9   17.56    0.83 
  -1   8  -9    2.43    0.19 
   1  -8   9    2.60    0.18 
   1  -8   9    2.61    0.21 
  -2   8  -9   25.34    1.12 
  -2   8  -9   23.19    1.10 
   2  -8   9   23.33    1.10 
  -3   8  -9    4.86    0.28 
  -3   8  -9    5.50    0.29 
   3  -8   9    5.21    0.28 
   5   7  -9    0.02    0.05 
   4   7  -9    0.08    0.07 
   4   7  -9    0.11    0.10 
   4   7  -9    0.11    0.06 
   4   7  -9    0.08    0.07 
  -4  -7   9    0.10    0.05 
   3   7  -9    0.16    0.09 
   3   7  -9    0.20    0.09 
   3   7  -9    0.33    0.08 
   3   7  -9    0.21    0.09 
  -3  -7   9    0.23    0.06 
   2   7  -9   10.45    0.56 
   2   7  -9   10.70    0.56 
   2   7  -9   11.51    0.57 
   2   7  -9   11.10    0.56 
  -2  -7   9   11.36    0.53 
  -2  -7   9    9.80    0.52 
   1   7  -9    0.27    0.10 
   1   7  -9    0.23    0.10 
   1   7  -9    0.18    0.08 
   1   7  -9    0.26    0.09 
  -1  -7   9    0.33    0.07 
  -1  -7   9    0.35    0.10 
  -1  -7   9    0.30    0.08 
   0   7  -9   27.30    1.22 
   0   7  -9   25.52    1.21 
   0  -7   9   25.77    1.20 
   0  -7   9   26.09    1.23 
  -1   7  -9   54.96    2.32 
  -1   7  -9   47.77    2.31 
   1  -7   9   52.86    2.33 
   1  -7   9   50.37    2.29 
  -2   7  -9    1.38    0.14 
  -2   7  -9    1.07    0.14 
   2  -7   9    0.89    0.12 
   2  -7   9    1.10    0.12 
   2  -7   9    1.09    0.15 
  -3   7  -9    7.56    0.40 
  -3   7  -9    7.75    0.40 
   3  -7   9    7.54    0.38 
   3  -7   9    7.39    0.40 
   3  -7   9    7.30    0.40 
  -4   7  -9    5.50    0.30 
  -4   7  -9    6.14    0.30 
   4  -7   9    5.06    0.29 
   5   6  -9    0.15    0.06 
   5   6  -9    0.13    0.05 
   4   6  -9    0.08    0.07 
   4   6  -9    0.08    0.11 
   4   6  -9    0.06    0.07 
   4   6  -9    0.10    0.06 
  -4  -6   9    0.09    0.05 
   3   6  -9    1.73    0.16 
   3   6  -9    1.53    0.17 
   3   6  -9    1.49    0.19 
   3   6  -9    1.54    0.17 
  -3  -6   9    1.69    0.13 
   2   6  -9    0.83    0.13 
   2   6  -9    0.99    0.14 
   2   6  -9    0.77    0.13 
   2   6  -9    1.04    0.15 
  -2  -6   9    1.04    0.11 
  -2  -6   9    0.92    0.11 
   1   6  -9   23.66    1.17 
   1   6  -9   25.29    1.17 
   1   6  -9   27.72    1.19 
   1   6  -9   25.20    1.17 
  -1  -6   9   23.58    1.38 
  -1  -6   9   26.79    1.14 
  -1  -6   9   23.59    1.14 
   0   6  -9    0.29    0.11 
   0   6  -9    0.35    0.10 
   0   6  -9    0.34    0.09 
   0   6  -9    0.35    0.14 
   0  -6   9    0.20    0.07 
   0  -6   9    0.22    0.09 
   0  -6   9    0.35    0.19 
  -1   6  -9    5.54    0.32 
  -1   6  -9    5.40    0.37 
  -1   6  -9    6.22    0.32 
   1  -6   9    5.43    0.30 
   1  -6   9    5.20    0.33 
   1  -6   9    4.26    0.46 
  -2   6  -9    1.90    0.16 
  -2   6  -9    1.18    0.15 
   2  -6   9    1.75    0.17 
   2  -6   9    1.31    0.15 
   2  -6   9    1.61    0.14 
  -3   6  -9    0.06    0.07 
  -3   6  -9    0.13    0.08 
   3  -6   9    0.13    0.06 
   3  -6   9    0.13    0.08 
   3  -6   9    0.03    0.07 
  -4   6  -9    5.19    0.29 
  -4   6  -9    5.40    0.29 
   4  -6   9    5.22    0.29 
   4  -6   9    4.93    0.27 
   4  -6   9    5.42    0.30 
   5   5  -9    8.46    0.41 
   5   5  -9    7.52    0.40 
   5   5  -9    7.88    0.41 
  -5  -5   9    8.48    0.38 
   4   5  -9    0.24    0.09 
   4   5  -9    0.24    0.08 
   4   5  -9    0.23    0.07 
   4   5  -9    0.12    0.20 
  -4  -5   9    0.28    0.06 
   3   5  -9    0.50    0.08 
   3   5  -9    0.51    0.11 
   3   5  -9    0.52    0.13 
   3   5  -9    0.46    0.10 
   3   5  -9    0.46    0.10 
  -3  -5   9    0.43    0.07 
   2   5  -9   10.10    0.49 
   2   5  -9    8.75    0.45 
   2   5  -9    9.37    0.48 
   2   5  -9    9.67    0.49 
   2   5  -9    9.05    0.49 
  -2  -5   9    8.55    0.65 
  -2  -5   9    8.60    0.45 
  -2  -5   9    9.25    0.44 
   1   5  -9   48.62    1.96 
   1   5  -9   40.59    2.00 
   1   5  -9   46.05    1.92 
   1   5  -9   40.07    2.18 
   1   5  -9   42.57    1.94 
   1   5  -9   43.33    1.94 
   1   5  -9   39.38    1.98 
  -1  -5   9   42.86    1.91 
  -1  -5   9   42.56    2.15 
  -1  -5   9   43.84    1.91 
   0   5  -9    1.34    0.15 
   0   5  -9    1.37    0.17 
   0   5  -9    1.23    0.17 
   0   5  -9    1.26    0.14 
   0  -5   9    1.58    0.14 
   0  -5   9    1.55    0.25 
   0  -5   9    1.36    0.16 
  -1   5  -9    6.36    0.32 
  -1   5  -9    5.60    0.32 
  -1   5  -9    5.82    0.37 
   1  -5   9    5.96    0.34 
   1  -5   9    5.45    0.31 
   1  -5   9    5.56    0.49 
   1  -5   9    5.93    0.34 
  -2   5  -9   23.46    1.19 
  -2   5  -9   24.75    1.07 
   2  -5   9   23.83    1.07 
   2  -5   9   22.61    1.05 
   2  -5   9   22.13    1.08 
   2  -5   9   20.87    1.28 
  -3   5  -9    1.79    0.16 
  -3   5  -9    1.56    0.14 
   3  -5   9    1.73    0.14 
   3  -5   9    1.58    0.17 
   3  -5   9    1.90    0.17 
  -4   5  -9    0.03    0.06 
  -4   5  -9    0.07    0.06 
   4  -5   9    0.05    0.06 
   4  -5   9    0.19    0.08 
   4  -5   9    0.06    0.07 
   4  -5   9    0.09    0.06 
   4  -5   9    0.07    0.07 
  -5   5  -9    0.03    0.08 
  -5   5  -9    0.03    0.06 
   5  -5   9    0.03    0.05 
   5  -5   9    0.03    0.05 
   5  -5   9    0.06    0.08 
   5  -5   9    0.06    0.05 
   5   4  -9    0.08    0.06 
   5   4  -9    0.05    0.06 
   5   4  -9    0.04    0.07 
  -5  -4   9    0.11    0.05 
   4   4  -9    4.11    0.27 
   4   4  -9    3.65    0.23 
   4   4  -9    4.15    0.26 
   4   4  -9    4.43    0.27 
  -4  -4   9    4.11    0.23 
   3   4  -9    5.35    0.31 
   3   4  -9    4.97    0.31 
   3   4  -9    4.69    0.33 
   3   4  -9    4.67    0.27 
   3   4  -9    5.16    0.30 
  -3  -4   9    5.08    0.27 
   2   4  -9    8.67    0.46 
   2   4  -9    8.17    0.45 
   2   4  -9    8.29    0.46 
   2   4  -9    8.95    0.45 
   2   4  -9    8.24    0.42 
  -2  -4   9    9.12    0.63 
  -2  -4   9    8.82    0.42 
   1   4  -9   32.49    1.78 
  -1  -4   9   34.25    1.52 
  -1  -4   9   35.72    1.74 
   0   4  -9   23.29    1.10 
   0  -4   9   23.17    1.24 
   0  -4   9   22.68    1.04 
  -1   4  -9    0.18    0.09 
   1  -4   9    0.06    0.06 
   1  -4   9    0.09    0.12 
  -2   4  -9   38.40    1.81 
  -2   4  -9   37.43    1.74 
  -2   4  -9   41.68    1.76 
  -2   4  -9   38.98    1.72 
   2  -4   9   39.14    1.74 
   2  -4   9   39.86    1.76 
   2  -4   9   35.93    1.77 
   2  -4   9   40.35    1.84 
   2  -4   9   39.47    1.96 
  -3   4  -9    3.39    0.22 
  -3   4  -9    3.35    0.19 
   3  -4   9    3.13    0.20 
   3  -4   9    3.46    0.30 
   3  -4   9    3.29    0.24 
   3  -4   9    3.21    0.22 
   3  -4   9    2.85    0.20 
   3  -4   9    2.83    0.26 
  -4   4  -9    0.27    0.06 
  -4   4  -9    0.34    0.08 
   4  -4   9    0.26    0.13 
   4  -4   9    0.19    0.07 
   4  -4   9    0.18    0.09 
   4  -4   9    0.22    0.07 
   4  -4   9    0.22    0.07 
   4  -4   9    0.12    0.08 
  -5   4  -9    0.57    0.09 
  -5   4  -9    0.39    0.07 
   5  -4   9    0.68    0.10 
   5  -4   9    0.48    0.06 
   5  -4   9    0.67    0.10 
   5  -4   9    0.47    0.07 
   5   3  -9    3.42    0.21 
   5   3  -9    3.13    0.22 
   5   3  -9    3.08    0.21 
   4   3  -9   10.14    0.54 
   4   3  -9   10.16    0.50 
   4   3  -9   10.74    0.54 
   4   3  -9   10.97    0.53 
  -4  -3   9    9.86    0.50 
   3   3  -9    0.07    0.08 
   3   3  -9    0.02    0.06 
   3   3  -9   -0.01    0.07 
   3   3  -9    0.02    0.06 
  -3  -3   9   -0.04    0.06 
   2   3  -9   92.62    3.99 
   2   3  -9   87.75    3.96 
   2   3  -9   86.28    3.99 
   2   3  -9   90.32    3.99 
   2   3  -9   94.64    4.00 
  -2  -3   9   93.79    4.22 
  -2  -3   9   88.14    3.97 
   1   3  -9   27.05    1.45 
  -1  -3   9   26.48    1.22 
  -1  -3   9   28.54    1.41 
   0   3  -9    0.27    0.09 
   0   3  -9    0.08    0.13 
   0  -3   9    0.47    0.15 
  -1   3  -9   50.18    2.20 
   1  -3   9   47.02    2.31 
  -2   3  -9    4.77    0.32 
  -2   3  -9    4.41    0.27 
  -2   3  -9    5.21    0.25 
   2  -3   9    5.26    0.29 
   2  -3   9    5.23    0.42 
   2  -3   9    5.47    0.36 
   2  -3   9    4.68    0.38 
   2  -3   9    4.77    0.27 
   3  -3   9    0.02    0.18 
   3  -3   9    0.04    0.06 
   3  -3   9    0.14    0.13 
   3  -3   9    0.03    0.06 
   3  -3   9    0.06    0.09 
   3  -3   9    0.06    0.05 
   3  -3   9    0.05    0.08 
  -4   3  -9    7.78    0.40 
  -4   3  -9    7.90    0.36 
   4  -3   9    6.91    0.37 
   4  -3   9    6.85    0.43 
   4  -3   9    7.30    0.42 
   4  -3   9    6.95    0.38 
   4  -3   9    7.30    0.48 
   4  -3   9    7.04    0.39 
  -5   3  -9    6.38    0.36 
  -5   3  -9    7.15    0.34 
   5  -3   9    7.42    0.39 
   5  -3   9    7.12    0.39 
   5  -3   9    6.49    0.35 
   5  -3   9    7.00    0.36 
   5  -3   9    7.22    0.42 
   5   2  -9    1.30    0.12 
   5   2  -9    1.36    0.16 
   5   2  -9    1.55    0.14 
   5   2  -9    1.35    0.14 
   4   2  -9    0.47    0.09 
   4   2  -9    0.53    0.12 
   4   2  -9    0.36    0.09 
   4   2  -9    0.35    0.08 
   3   2  -9    2.29    0.40 
   3   2  -9    2.37    0.18 
   3   2  -9    2.75    0.20 
   3   2  -9    2.54    0.21 
   3   2  -9    2.85    0.19 
  -3  -2   9    2.35    0.20 
  -3  -2   9    2.51    0.38 
   2   2  -9   18.12    0.81 
   2   2  -9   16.55    0.78 
   2   2  -9   17.45    0.80 
   2   2  -9   17.32    0.80 
   2   2  -9   15.82    1.02 
  -2  -2   9   17.38    1.00 
  -2  -2   9   15.81    0.78 
   1   2  -9   18.14    1.03 
  -1  -2   9   17.59    0.84 
  -1  -2   9   20.07    1.02 
   0   2  -9    1.03    0.21 
   0   2  -9    0.67    0.10 
   0  -2   9    0.82    0.17 
  -1   2  -9   22.10    1.01 
   1  -2   9   20.60    1.10 
   1  -2   9   21.59    1.07 
  -2   2  -9   13.08    0.63 
  -2   2  -9   11.86    0.55 
   2  -2   9   11.73    0.69 
  -3   2  -9    7.93    0.35 
  -3   2  -9    7.88    0.45 
  -3   2  -9    6.69    0.37 
   3  -2   9    7.69    0.42 
   3  -2   9    6.52    0.43 
   3  -2   9    8.15    0.49 
   3  -2   9    7.37    0.38 
   3  -2   9    5.93    0.50 
   3  -2   9    7.05    0.37 
   3  -2   9    7.46    0.38 
  -4   2  -9    0.97    0.09 
   4  -2   9    0.97    0.15 
   4  -2   9    0.92    0.11 
   4  -2   9    0.99    0.16 
   4  -2   9    0.70    0.10 
   4  -2   9    1.13    0.20 
  -5   2  -9   23.30    0.97 
  -5   2  -9   21.14    0.99 
   5  -2   9   20.54    1.06 
   5  -2   9   20.58    1.02 
   5  -2   9   20.84    0.98 
   5  -2   9   22.15    1.03 
   5  -2   9   21.12    0.98 
   5   1  -9    1.93    0.14 
   5   1  -9    2.03    0.16 
   5   1  -9    1.86    0.15 
   4   1  -9    0.41    0.10 
   4   1  -9    0.50    0.12 
   4   1  -9    0.57    0.09 
   4   1  -9    0.62    0.10 
   3   1  -9    2.01    0.17 
   3   1  -9    1.67    0.17 
   3   1  -9    1.70    0.14 
   3   1  -9    1.27    0.16 
   3   1  -9    1.34    0.35 
   3   1  -9    1.69    0.15 
  -3  -1   9    1.11    0.16 
  -3  -1   9    1.48    0.35 
   2   1  -9    8.30    0.63 
  -2  -1   9    8.93    0.44 
   1   1  -9   20.20    1.11 
  -1  -1   9   21.87    1.12 
   0   1  -9    0.11    0.10 
   0   1  -9    0.19    0.07 
   0  -1   9    0.13    0.09 
   0  -1   9    0.20    0.10 
  -1   1  -9    4.85    0.28 
  -1   1  -9    5.17    0.34 
   1  -1   9    4.49    0.34 
   1  -1   9    5.36    0.36 
  -2   1  -9   15.12    0.68 
  -2   1  -9   15.43    0.75 
   2  -1   9   14.28    0.82 
  -3   1  -9    4.05    0.26 
  -3   1  -9    4.94    0.33 
  -3   1  -9    5.14    0.24 
   3  -1   9    4.25    0.38 
   3  -1   9    3.70    0.37 
   3  -1   9    4.73    0.33 
   3  -1   9    4.46    0.26 
   3  -1   9    4.92    0.27 
   3  -1   9    5.32    0.37 
   3  -1   9    4.80    0.31 
  -4   1  -9    6.85    0.33 
   4  -1   9    6.68    0.47 
   4  -1   9    6.80    0.41 
   4  -1   9    6.45    0.35 
   4  -1   9    6.93    0.36 
   4  -1   9    6.47    0.42 
  -5   1  -9    2.73    0.16 
   5  -1   9    3.07    0.23 
   5  -1   9    2.68    0.18 
   5  -1   9    2.58    0.19 
   5  -1   9    3.22    0.29 
   5  -1   9    2.84    0.24 
   6  -1   9    0.04    0.04 
   6  -1   9    0.06    0.06 
   6  -1   9    0.05    0.06 
   5   0  -9    2.99    0.20 
   5   0  -9    3.12    0.20 
   5   0  -9    2.82    0.18 
   4   0  -9   35.43    1.67 
   4   0  -9   37.10    1.68 
   4   0  -9   35.05    1.70 
   4   0  -9   36.83    1.71 
   4   0  -9   37.64    1.70 
  -4   0   9   42.30    1.79 
   3   0  -9   69.87    2.97 
   3   0  -9   65.29    2.96 
   3   0  -9   66.17    2.99 
   3   0  -9   71.98    3.01 
   3   0  -9   69.80    2.99 
  -3   0   9   64.40    3.31 
  -3   0   9   62.79    2.97 
   2   0  -9    0.68    0.21 
  -2   0   9    0.73    0.10 
  -2   0   9    1.17    0.29 
   1   0  -9   68.79    3.09 
  -1   0   9   64.96    3.11 
  -1   0   9   65.74    3.05 
   0   0  -9   93.73    4.23 
   0   0   9   92.93    4.23 
   0   0   9   95.17    4.20 
  -1   0  -9   36.63    1.68 
  -1   0  -9   34.52    1.61 
   1   0   9   34.31    1.69 
   1   0   9   37.21    1.68 
  -2   0  -9   44.75    2.04 
  -2   0  -9   49.15    2.11 
   2   0   9   45.19    2.18 
  -3   0  -9   18.41    0.81 
  -3   0  -9   17.92    0.90 
   3   0   9   16.69    0.83 
   3   0   9   15.22    0.90 
   3   0   9   18.66    0.91 
   3   0   9   18.21    0.98 
   3   0   9   19.20    0.94 
   3   0   9   19.01    0.83 
   3   0   9   16.63    0.86 
  -4   0  -9    2.52    0.16 
  -4   0  -9    2.16    0.19 
   4   0   9    2.63    0.25 
   4   0   9    2.66    0.18 
   4   0   9    2.50    0.23 
   4   0   9    2.54    0.18 
   4   0   9    2.07    0.32 
   4   0   9    2.62    0.29 
   5   0   9    1.34    0.13 
   5   0   9    1.49    0.13 
   5   0   9    1.24    0.21 
   5   0   9    1.58    0.17 
   5   0   9    1.28    0.17 
  -6   0  -9    0.36    0.07 
   6   0   9    0.21    0.07 
   6   0   9    0.21    0.05 
   6   0   9    0.31    0.08 
   6   0   9    0.29    0.12 
   5  -1  -9    0.40    0.08 
   5  -1  -9    0.38    0.08 
   5  -1  -9    0.41    0.07 
   5  -1  -9    0.39    0.08 
  -5   1   9    0.37    0.10 
   4  -1  -9    0.24    0.12 
   4  -1  -9    0.12    0.09 
   4  -1  -9    0.08    0.07 
   4  -1  -9    0.10    0.08 
   4  -1  -9    0.42    0.09 
  -4   1   9    0.04    0.09 
   3  -1  -9    0.19    0.21 
   3  -1  -9    0.27    0.08 
   3  -1  -9    0.19    0.08 
   3  -1  -9    0.17    0.09 
   3  -1  -9    0.28    0.26 
   3  -1  -9    0.26    0.07 
   3  -1  -9    0.16    0.09 
  -3   1   9    0.12    0.08 
  -3   1   9   -0.04    0.24 
   2  -1  -9   79.72    3.78 
   2  -1  -9   84.94    3.76 
  -2   1   9   77.22    3.55 
  -2   1   9   82.32    3.73 
  -2   1   9   79.69    3.81 
   1  -1  -9   12.20    0.70 
  -1   1   9   11.03    0.69 
  -1   1   9   11.86    0.73 
   0  -1  -9   80.51    3.64 
   0   1   9   81.43    3.64 
   0   1   9   79.46    3.63 
  -1  -1  -9  284.62   12.66 
  -1  -1  -9  285.87   12.55 
   1   1   9  293.89   12.65 
  -2  -1  -9   17.24    0.95 
  -2  -1  -9   18.07    0.85 
   2   1   9   16.88    0.93 
  -3  -1  -9   17.56    0.79 
  -3  -1  -9   18.74    0.88 
   3   1   9   16.74    0.80 
   3   1   9   17.50    0.85 
   3   1   9   15.80    0.94 
   3   1   9   17.49    0.88 
   3   1   9   18.37    0.91 
   3   1   9   17.52    0.81 
   3   1   9   15.61    0.88 
  -4  -1  -9   40.79    1.81 
   4   1   9   37.38    1.92 
   4   1   9   40.67    1.89 
   4   1   9   41.97    1.84 
   4   1   9   42.58    1.97 
   4   1   9   40.68    1.83 
   4   1   9   41.77    1.93 
  -5  -1  -9    0.08    0.04 
   5   1   9    0.06    0.07 
   5   1   9    0.05    0.06 
   5   1   9    0.20    0.11 
   5   1   9    0.17    0.09 
   5   1   9    0.15    0.13 
  -6  -1  -9    0.79    0.08 
   6   1   9    0.92    0.08 
   6   1   9    0.66    0.11 
   6   1   9    0.66    0.15 
   6   1   9    0.86    0.12 
   5  -2  -9    1.16    0.12 
   5  -2  -9    1.16    0.12 
   5  -2  -9    1.13    0.11 
   5  -2  -9    1.09    0.12 
  -5   2   9    1.09    0.16 
   4  -2  -9    1.45    0.13 
   4  -2  -9    1.74    0.14 
   4  -2  -9    1.79    0.18 
   4  -2  -9    1.67    0.15 
   4  -2  -9    1.65    0.16 
  -4   2   9    1.77    0.18 
   3  -2  -9   26.22    1.22 
   3  -2  -9   25.19    1.20 
   3  -2  -9   28.33    1.53 
   3  -2  -9   25.77    1.24 
   3  -2  -9   28.26    1.25 
   3  -2  -9   26.80    1.26 
   3  -2  -9   28.17    1.22 
  -3   2   9   26.82    1.23 
  -3   2   9   25.74    1.61 
   2  -2  -9    0.21    0.19 
   2  -2  -9    0.00    0.07 
   2  -2  -9    0.16    0.14 
  -2   2   9    0.00    0.06 
  -2   2   9    0.32    0.18 
  -2   2   9   -0.02    0.15 
   1  -2  -9   22.41    1.13 
   1  -2  -9   22.32    1.15 
  -1   2   9   21.96    1.18 
  -1   2   9   21.06    1.15 
   0  -2  -9   64.10    3.02 
   0   2   9   67.79    3.03 
   0   2   9   65.31    3.01 
  -1  -2  -9   11.52    0.56 
  -1  -2  -9   11.78    0.69 
   1   2   9   11.28    0.65 
  -2  -2  -9    0.58    0.17 
  -2  -2  -9    0.61    0.11 
   2   2   9    0.69    0.16 
  -3  -2  -9    0.68    0.08 
  -3  -2  -9    0.82    0.14 
   3   2   9    0.62    0.09 
   3   2   9    0.70    0.18 
   3   2   9    0.56    0.15 
   3   2   9    0.71    0.17 
   3   2   9    0.66    0.16 
   3   2   9    0.54    0.12 
  -4  -2  -9   23.64    1.11 
   4   2   9   25.88    1.26 
   4   2   9   24.55    1.13 
   4   2   9   24.44    1.12 
   4   2   9   23.90    1.22 
   4   2   9   24.59    1.19 
   4   2   9   25.27    1.23 
  -5  -2  -9    0.40    0.07 
   5   2   9    0.42    0.12 
   5   2   9    0.26    0.19 
   5   2   9    0.28    0.14 
   5   2   9    0.33    0.07 
   5   2   9    0.21    0.11 
  -6  -2  -9    3.75    0.20 
   6   2   9    3.97    0.30 
   6   2   9    4.13    0.26 
   6   2   9    4.16    0.26 
   6   2   9    4.01    0.21 
   5  -3  -9    8.69    0.41 
   5  -3  -9    8.29    0.41 
   5  -3  -9    8.55    0.43 
  -5   3   9    8.20    0.43 
   4  -3  -9    4.50    0.29 
   4  -3  -9    4.61    0.26 
   4  -3  -9    4.47    0.28 
   4  -3  -9    4.75    0.26 
   4  -3  -9    4.34    0.24 
  -4   3   9    4.41    0.28 
   3  -3  -9    0.29    0.08 
   3  -3  -9    0.24    0.08 
   3  -3  -9    0.22    0.10 
   3  -3  -9    0.28    0.08 
   3  -3  -9    0.36    0.06 
   3  -3  -9    0.14    0.10 
  -3   3   9    0.31    0.08 
   2  -3  -9    1.67    0.15 
   2  -3  -9    2.13    0.17 
   2  -3  -9    2.12    0.17 
   2  -3  -9    1.78    0.28 
   2  -3  -9    2.14    0.33 
   2  -3  -9    1.89    0.15 
   2  -3  -9    1.58    0.12 
   2  -3  -9    1.80    0.13 
  -2   3   9    1.83    0.16 
  -2   3   9    2.28    0.36 
   1  -3  -9   69.40    3.22 
   1  -3  -9   73.18    3.21 
  -1   3   9   67.56    3.08 
  -1   3   9   68.42    3.24 
   0  -3  -9  146.54    6.46 
   0  -3  -9  144.02    6.54 
   0   3   9  144.83    6.53 
   0   3   9  148.04    6.49 
  -1  -3  -9   10.06    0.63 
  -1  -3  -9    9.79    0.49 
   1   3   9   10.33    0.61 
  -2  -3  -9  161.18    6.90 
  -2  -3  -9  157.24    7.02 
   2   3   9  153.09    7.02 
  -3  -3  -9    0.91    0.09 
  -3  -3  -9    1.23    0.16 
   3   3   9    0.88    0.17 
   3   3   9    1.05    0.12 
   3   3   9    1.17    0.19 
   3   3   9    1.09    0.19 
   3   3   9    1.22    0.23 
   3   3   9    1.08    0.16 
  -4  -3  -9    0.69    0.09 
   4   3   9    0.53    0.09 
   4   3   9    0.57    0.16 
   4   3   9    0.70    0.18 
   4   3   9    0.59    0.17 
   4   3   9    0.75    0.14 
  -5  -3  -9    0.73    0.09 
   5   3   9    0.64    0.15 
   5   3   9    0.55    0.18 
   5   3   9    0.52    0.16 
   5   3   9    0.71    0.09 
   5   3   9    0.52    0.13 
  -6  -3  -9    4.14    0.22 
   6   3   9    4.79    0.23 
   6   3   9    3.90    0.27 
   6   3   9    4.74    0.28 
   6   3   9    4.01    0.31 
   5  -4  -9    1.50    0.11 
   5  -4  -9    1.37    0.13 
   5  -4  -9    1.49    0.10 
   5  -4  -9    1.44    0.12 
  -5   4   9    1.55    0.20 
   4  -4  -9    2.20    0.16 
   4  -4  -9    1.96    0.17 
   4  -4  -9    2.29    0.19 
   4  -4  -9    2.21    0.15 
   4  -4  -9    1.90    0.14 
  -4   4   9    2.12    0.19 
   3  -4  -9    4.99    0.30 
   3  -4  -9    5.05    0.32 
   3  -4  -9    4.34    0.32 
   3  -4  -9    5.19    0.28 
   3  -4  -9    4.84    0.26 
   3  -4  -9    5.21    0.27 
  -3   4   9    5.10    0.30 
   2  -4  -9   56.64    2.66 
   2  -4  -9   56.01    2.45 
   2  -4  -9   54.80    2.47 
   2  -4  -9   56.43    2.49 
   2  -4  -9   55.74    2.49 
   2  -4  -9   54.28    2.44 
   2  -4  -9   55.12    2.45 
   2  -4  -9   54.61    2.69 
  -2   4   9   56.27    2.47 
  -2   4   9   55.10    2.68 
   1  -4  -9    0.52    0.15 
   1  -4  -9    0.50    0.17 
  -1   4   9    0.39    0.18 
  -1   4   9    0.26    0.07 
   0  -4  -9   53.49    2.39 
   0  -4  -9   51.06    2.49 
   0   4   9   49.29    2.47 
   0   4   9   53.78    2.43 
  -1  -4  -9    2.50    0.16 
  -1  -4  -9    2.71    0.29 
   1   4   9    2.63    0.27 
   1   4   9    2.03    0.20 
  -2  -4  -9   26.53    1.16 
  -2  -4  -9   25.28    1.29 
  -2  -4  -9   23.08    1.10 
   2   4   9   24.90    1.24 
   2   4   9   24.41    1.28 
  -3  -4  -9   12.89    0.63 
  -3  -4  -9   11.76    0.54 
  -3  -4  -9   11.46    0.72 
   3   4   9   11.38    0.64 
   3   4   9   11.87    0.64 
   3   4   9   11.93    0.61 
   3   4   9   11.81    0.63 
   3   4   9   12.18    0.74 
   3   4   9   10.92    0.70 
   3   4   9   10.70    0.56 
  -4  -4  -9    0.48    0.07 
   4   4   9    0.56    0.17 
   4   4   9    0.45    0.15 
   4   4   9    0.68    0.17 
   4   4   9    0.52    0.13 
   4   4   9    0.52    0.09 
  -5  -4  -9    0.06    0.06 
   5   4   9    0.05    0.06 
   5   4   9    0.06    0.10 
   5   4   9    0.19    0.15 
   5   4   9    0.05    0.09 
   5   4   9    0.06    0.13 
  -6  -4  -9    0.53    0.08 
   6   4   9    0.48    0.14 
   6   4   9    0.40    0.10 
   6   4   9    0.52    0.10 
   5  -5  -9    4.65    0.24 
   5  -5  -9    4.72    0.24 
   4  -5  -9   17.83    0.81 
   4  -5  -9   16.59    0.82 
   4  -5  -9   16.44    0.78 
   4  -5  -9   16.46    0.77 
   4  -5  -9   16.96    0.78 
  -4   5   9   16.87    0.81 
   3  -5  -9   11.56    0.59 
   3  -5  -9   11.46    0.56 
   3  -5  -9   11.76    0.60 
   3  -5  -9   12.01    0.56 
   3  -5  -9   11.22    0.54 
  -3   5   9   11.56    0.59 
   2  -5  -9   95.34    4.22 
   2  -5  -9   94.26    4.18 
   2  -5  -9   94.77    4.17 
   2  -5  -9  100.73    4.22 
   2  -5  -9   99.17    4.41 
   2  -5  -9   95.54    4.20 
   2  -5  -9   98.09    4.18 
  -2   5   9   93.28    4.44 
  -2   5   9   97.99    4.21 
  -2   5   9   84.54    4.24 
   1  -5  -9  190.49    7.95 
   1  -5  -9  176.36    7.99 
  -1   5   9  178.32    8.03 
  -1   5   9  170.42    7.82 
   0  -5  -9    0.56    0.20 
   0   5   9    0.30    0.17 
  -1  -5  -9  159.07    7.22 
   1   5   9  163.57    7.21 
  -2  -5  -9   38.06    1.79 
  -2  -5  -9   34.66    1.58 
  -2  -5  -9   35.65    1.64 
   2   5   9   34.81    1.76 
   2   5   9   35.22    1.71 
  -3  -5  -9    0.60    0.13 
  -3  -5  -9    0.60    0.07 
  -3  -5  -9    0.74    0.22 
   3   5   9    0.66    0.21 
   3   5   9    0.48    0.13 
   3   5   9    0.51    0.14 
   3   5   9    0.59    0.18 
   3   5   9    0.71    0.17 
   3   5   9    0.54    0.13 
   3   5   9    0.55    0.09 
  -4  -5  -9    1.84    0.13 
   4   5   9    1.73    0.24 
   4   5   9    2.12    0.25 
   4   5   9    1.74    0.21 
   4   5   9    1.75    0.15 
   4   5   9    2.03    0.25 
  -5  -5  -9   16.25    0.76 
   5   5   9   16.68    0.91 
   5   5   9   17.08    0.78 
   5   5   9   16.82    0.87 
   5   5   9   16.33    0.85 
   5   5   9   16.15    0.87 
  -6  -5  -9    5.37    0.27 
   6   5   9    5.67    0.33 
   6   5   9    5.67    0.38 
   6   5   9    5.69    0.33 
   6   5   9    5.03    0.37 
   4  -6  -9    0.21    0.05 
   4  -6  -9    0.09    0.07 
   4  -6  -9    0.07    0.05 
   4  -6  -9    0.10    0.07 
   4  -6  -9    0.09    0.06 
  -4   6   9    0.11    0.08 
   3  -6  -9    3.55    0.21 
   3  -6  -9    3.68    0.21 
   3  -6  -9    3.66    0.22 
   3  -6  -9    3.56    0.25 
   3  -6  -9    3.90    0.25 
  -3   6   9    2.72    0.30 
  -3   6   9    3.84    0.25 
   2  -6  -9   26.55    1.19 
   2  -6  -9   25.55    1.13 
   2  -6  -9   25.06    1.13 
   2  -6  -9   24.51    1.16 
   2  -6  -9   26.37    1.37 
   2  -6  -9   24.27    1.14 
   2  -6  -9   25.54    1.17 
  -2   6   9   22.96    1.22 
  -2   6   9   24.08    1.45 
  -2   6   9   26.43    1.18 
   1  -6  -9   18.59    1.04 
   1  -6  -9   18.04    0.85 
   1  -6  -9   18.28    0.82 
   1  -6  -9   18.23    0.86 
   1  -6  -9   17.34    0.84 
   1  -6  -9   18.22    0.87 
   1  -6  -9   19.84    0.99 
  -1   6   9   17.90    0.86 
  -1   6   9   16.77    0.91 
  -1   6   9   18.17    1.08 
   0  -6  -9    2.10    0.31 
   0   6   9    2.06    0.35 
  -1  -6  -9   93.70    4.22 
   1   6   9   88.90    4.19 
  -2  -6  -9   64.68    2.99 
  -2  -6  -9   70.37    3.21 
   2   6   9   65.78    3.18 
   2   6   9   71.88    3.14 
  -3  -6  -9    4.10    0.30 
  -3  -6  -9    4.35    0.21 
  -3  -6  -9    4.24    0.42 
   3   6   9    4.02    0.31 
   3   6   9    3.82    0.38 
   3   6   9    3.90    0.29 
   3   6   9    3.05    0.31 
   3   6   9    3.68    0.24 
   3   6   9    3.73    0.37 
   3   6   9    3.69    0.29 
  -4  -6  -9    0.05    0.04 
   4   6   9    0.06    0.10 
   4   6   9   -0.03    0.11 
   4   6   9    0.23    0.13 
   4   6   9    0.08    0.12 
  -5  -6  -9    8.61    0.42 
   5   6   9    9.05    0.51 
   5   6   9    8.94    0.53 
   5   6   9    7.87    0.51 
   5   6   9    8.55    0.55 
  -6  -6  -9   11.40    0.53 
   6   6   9   10.77    0.62 
   6   6   9   13.17    0.60 
   6   6   9   11.29    0.61 
   6   6   9   11.18    0.58 
   4  -7  -9    0.06    0.06 
   4  -7  -9    0.08    0.05 
   4  -7  -9    0.06    0.04 
   4  -7  -9    0.00    0.06 
   4  -7  -9    0.02    0.06 
  -4   7   9    0.02    0.10 
  -4   7   9    0.03    0.08 
   3  -7  -9   20.07    0.94 
   3  -7  -9   20.90    0.98 
   3  -7  -9   22.00    0.94 
   3  -7  -9   20.42    0.98 
   3  -7  -9   21.40    0.95 
  -3   7   9   21.68    0.99 
  -3   7   9   17.29    1.01 
   2  -7  -9    3.39    0.21 
   2  -7  -9    3.03    0.19 
   2  -7  -9    3.64    0.20 
   2  -7  -9    3.19    0.23 
   2  -7  -9    3.45    0.24 
  -2   7   9    3.35    0.25 
  -2   7   9    2.77    0.29 
   1  -7  -9    6.90    0.34 
   1  -7  -9    6.93    0.37 
   1  -7  -9    6.75    0.37 
   1  -7  -9    7.12    0.38 
  -1   7   9    6.41    0.38 
  -1   7   9    6.66    0.62 
  -1   7   9    6.58    0.44 
   0  -7  -9   98.25    4.45 
   0  -7  -9   93.98    4.16 
   0  -7  -9   97.49    4.19 
   0  -7  -9   98.66    4.19 
   0   7   9   92.17    4.20 
   0   7   9   91.80    4.25 
   0   7   9   93.27    4.43 
  -1  -7  -9    0.19    0.16 
  -1  -7  -9    0.20    0.07 
   1   7   9    0.17    0.17 
   1   7   9    0.29    0.15 
  -2  -7  -9    0.25    0.07 
  -2  -7  -9    0.25    0.16 
  -2  -7  -9    0.13    0.05 
   2   7   9    0.15    0.14 
   2   7   9    0.11    0.14 
   2   7   9    0.12    0.10 
   2   7   9    0.11    0.14 
   2   7   9    0.30    0.19 
  -3  -7  -9    3.63    0.41 
  -3  -7  -9    3.54    0.20 
  -3  -7  -9    3.15    0.21 
   3   7   9    3.27    0.31 
   3   7   9    3.28    0.28 
   3   7   9    2.99    0.24 
   3   7   9    3.70    0.39 
   3   7   9    3.79    0.27 
   3   7   9    3.60    0.39 
   3   7   9    3.58    0.29 
  -4  -7  -9    1.30    0.11 
   4   7   9    1.32    0.19 
   4   7   9    1.48    0.22 
   4   7   9    1.49    0.21 
   4   7   9    1.29    0.21 
  -5  -7  -9    5.73    0.30 
   5   7   9    5.26    0.37 
   5   7   9    6.01    0.39 
   5   7   9    5.64    0.40 
   5   7   9    5.95    0.41 
   6   7   9    1.06    0.15 
   6   7   9    0.98    0.14 
   6   7   9    0.94    0.16 
   6   7   9    1.10    0.16 
   4  -8  -9   14.63    0.66 
   4  -8  -9   14.23    0.68 
   4  -8  -9   13.35    0.66 
   4  -8  -9   15.18    0.66 
  -4   8   9   14.95    0.70 
   3  -8  -9   20.10    0.97 
   3  -8  -9   19.42    0.93 
   3  -8  -9   20.84    0.93 
   3  -8  -9   21.08    0.98 
   3  -8  -9   21.51    0.94 
  -3   8   9   19.12    1.02 
  -3   8   9   21.07    0.98 
   2  -8  -9   29.74    1.36 
   2  -8  -9   28.97    1.31 
   2  -8  -9   29.51    1.31 
   2  -8  -9   28.81    1.34 
  -2   8   9   29.29    1.36 
  -2   8   9   28.01    1.41 
   1  -8  -9   12.47    0.57 
   1  -8  -9   12.54    0.61 
   1  -8  -9   12.88    0.60 
   1  -8  -9   12.20    0.60 
  -1   8   9   12.75    0.69 
  -1   8   9   10.57    0.61 
  -1   8   9   11.62    0.63 
   0  -8  -9  148.66    6.27 
   0  -8  -9  136.92    6.53 
   0  -8  -9  153.67    6.27 
   0   8   9  136.16    6.53 
   0   8   9  136.96    6.28 
   0   8   9  144.32    6.34 
  -1  -8  -9   38.00    1.83 
  -1  -8  -9   33.34    1.56 
  -1  -8  -9   36.63    1.57 
   1   8   9   32.64    1.77 
   1   8   9   35.31    1.65 
   1   8   9   30.67    1.57 
   1   8   9   36.19    1.59 
  -2  -8  -9   10.60    0.49 
  -2  -8  -9   10.63    0.73 
  -2  -8  -9   10.18    0.51 
   2   8   9   10.34    0.61 
   2   8   9    9.86    0.69 
   2   8   9    9.98    0.55 
  -3  -8  -9   43.48    1.83 
  -3  -8  -9   41.31    1.84 
   3   8   9   41.84    1.91 
   3   8   9   42.65    1.96 
   3   8   9   39.44    1.89 
   3   8   9   39.15    1.90 
   3   8   9   40.10    1.87 
  -4  -8  -9    6.78    0.34 
   4   8   9    6.48    0.42 
   4   8   9    6.54    0.45 
   4   8   9    6.66    0.43 
   4   8   9    6.45    0.44 
  -5  -8  -9    0.85    0.10 
   5   8   9    0.80    0.14 
   5   8   9    0.63    0.16 
   5   8   9    0.64    0.15 
   5   8   9    0.68    0.16 
   6   8   9    2.19    0.18 
   6   8   9    2.21    0.22 
   6   8   9    1.80    0.21 
   3  -9  -9    0.21    0.05 
   3  -9  -9    0.21    0.07 
   3  -9  -9    0.11    0.07 
   3  -9  -9    0.13    0.06 
   3  -9  -9    0.20    0.08 
  -3   9   9    0.07    0.10 
  -3   9   9    0.10    0.11 
  -3   9   9    0.08    0.13 
   2  -9  -9   21.66    1.03 
   2  -9  -9   21.84    0.99 
   2  -9  -9   22.76    1.04 
  -2   9   9   20.33    1.04 
  -2   9   9   23.29    1.07 
  -2   9   9   21.39    1.10 
   1  -9  -9    8.33    0.40 
   1  -9  -9    7.73    0.42 
   1  -9  -9    9.17    0.45 
   1  -9  -9    7.86    0.43 
  -1   9   9    7.91    0.47 
  -1   9   9    7.69    0.51 
   0  -9  -9    0.07    0.09 
   0  -9  -9    0.15    0.07 
   0   9   9    0.10    0.12 
   0   9   9   -0.02    0.35 
   0   9   9    0.02    0.12 
   0   9   9    0.26    0.16 
  -1  -9  -9   26.22    1.18 
  -1  -9  -9   24.99    1.46 
  -1  -9  -9   26.69    1.18 
   1   9   9   22.73    1.39 
   1   9   9   26.97    1.21 
   1   9   9   25.78    1.28 
  -2  -9  -9   20.32    0.94 
  -2  -9  -9   20.01    0.92 
   2   9   9   19.85    1.04 
   2   9   9   20.80    0.99 
  -3  -9  -9   16.73    0.77 
  -3  -9  -9   15.85    0.78 
   3   9   9   17.34    0.84 
   3   9   9   16.14    0.84 
   3   9   9   17.03    0.84 
   3   9   9   16.08    0.89 
  -4  -9  -9    2.23    0.18 
  -4  -9  -9    2.80    0.17 
   4   9   9    2.88    0.25 
   4   9   9    2.24    0.28 
   4   9   9    2.76    0.26 
   4   9   9    2.22    0.25 
  -5  -9  -9    3.07    0.18 
   5   9   9    2.87    0.26 
   5   9   9    3.03    0.24 
   5   9   9    2.90    0.26 
   5   9   9    2.58    0.25 
   3 -10  -9    4.33    0.24 
   3 -10  -9    4.13    0.22 
   3 -10  -9    4.52    0.25 
  -3  10   9    4.19    0.28 
  -3  10   9    4.27    0.31 
   2 -10  -9    0.22    0.06 
   2 -10  -9    0.18    0.08 
   2 -10  -9    0.16    0.08 
  -2  10   9    0.23    0.13 
  -2  10   9    0.22    0.14 
   1 -10  -9    0.34    0.18 
   1 -10  -9    0.06    0.08 
   1 -10  -9    0.02    0.06 
  -1  10   9    0.03    0.12 
  -1  10   9    0.12    0.14 
   0 -10  -9   50.79    2.22 
   0 -10  -9   48.16    2.22 
   0  10   9   49.43    2.31 
   0  10   9   49.08    2.23 
  -1 -10  -9    1.95    0.18 
  -1 -10  -9    1.84    0.16 
   1  10   9    1.98    0.20 
   1  10   9    1.92    0.27 
  -2 -10  -9    2.41    0.18 
   2  10   9    1.76    0.27 
   2  10   9    2.19    0.21 
  -3 -10  -9   22.05    0.97 
  -3 -10  -9   20.93    0.98 
   3  10   9   21.25    1.04 
   3  10   9   21.24    1.09 
   3  10   9   19.64    1.02 
   3  10   9   21.01    1.04 
  -4 -10  -9   13.51    0.64 
  -4 -10  -9   13.86    0.63 
   4  10   9   13.49    0.73 
   4  10   9   13.55    0.71 
   4  10   9   12.59    0.71 
   4  10   9   13.23    0.71 
  -5 -10  -9    0.04    0.05 
   5  10   9    0.03    0.09 
   5  10   9    0.07    0.08 
   5  10   9    0.15    0.11 
   2 -11  -9    4.48    0.27 
   2 -11  -9    4.84    0.27 
  -2  11   9    4.54    0.34 
  -2  11   9    4.34    0.29 
   1 -11  -9    9.99    0.49 
   1 -11  -9    7.79    0.54 
  -1  11   9    9.37    0.56 
   0 -11  -9   17.55    0.83 
   0 -11  -9   16.06    0.82 
   0  11   9   17.63    0.84 
   0  11   9   17.29    0.91 
  -1 -11  -9   21.04    1.01 
  -1 -11  -9   21.91    1.01 
   1  11   9   21.85    1.04 
   1  11   9   21.31    1.10 
  -2 -11  -9   23.09    1.19 
  -2 -11  -9   28.38    1.21 
   2  11   9   26.52    1.30 
   2  11   9   26.08    1.24 
  -3 -11  -9    2.18    0.16 
  -3 -11  -9    2.34    0.18 
   3  11   9    2.09    0.23 
   3  11   9    2.31    0.28 
   3  11   9    2.51    0.22 
  -4 -11  -9    0.86    0.10 
  -4 -11  -9    0.86    0.12 
   4  11   9    0.77    0.15 
   4  11   9    0.63    0.15 
   4  11   9    0.82    0.14 
   4  11   9    0.87    0.17 
  -5 -11  -9    0.05    0.06 
   5  11   9    0.03    0.08 
   5  11   9    0.15    0.11 
   5  11   9    0.07    0.09 
   2 -12  -9    8.79    0.44 
   2 -12  -9    8.40    0.43 
  -2  12   9    9.36    0.50 
   1 -12  -9    2.84    0.20 
  -1  12   9    2.63    0.27 
   0 -12  -9   10.80    0.59 
   0 -12  -9   12.86    0.61 
   0  12   9   12.34    0.69 
   0  12   9   12.38    0.62 
  -1 -12  -9   16.17    0.78 
  -1 -12  -9   16.09    0.78 
   1  12   9   16.73    0.87 
   1  12   9   15.86    0.80 
  -2 -12  -9   -0.01    0.06 
  -2 -12  -9    0.04    0.08 
   2  12   9    0.00    0.08 
   2  12   9    0.07    0.14 
  -3 -12  -9    5.86    0.33 
   3  12   9    5.61    0.39 
   3  12   9    6.22    0.37 
   3  12   9    5.91    0.40 
  -4 -12  -9    0.30    0.08 
  -4 -12  -9    0.26    0.06 
   4  12   9    0.25    0.10 
   4  12   9    0.41    0.14 
   4  12   9    0.42    0.11 
   1 -13  -9   39.18    1.82 
  -1  13   9   41.91    1.88 
   0 -13  -9    2.31    0.17 
   0  13   9    2.09    0.18 
   0  13   9    2.17    0.24 
  -1 -13  -9   44.96    2.09 
  -1 -13  -9   46.88    2.09 
   1  13   9   46.43    2.11 
   1  13   9   48.42    2.17 
  -2 -13  -9   23.32    1.16 
  -2 -13  -9   26.23    1.17 
   2  13   9   26.13    1.24 
   2  13   9   26.29    1.21 
  -3 -13  -9    0.14    0.07 
   3  13   9    0.20    0.16 
   3  13   9    0.11    0.09 
  -4 -13  -9    1.84    0.14 
   4  13   9    1.51    0.17 
   4  13   9    1.88    0.17 
   0 -14  -9    4.80    0.27 
   0  14   9    4.78    0.30 
   0  14   9    5.00    0.33 
  -1 -14  -9    5.90    0.31 
  -1 -14  -9    5.44    0.31 
   1  14   9    6.17    0.38 
   1  14   9    5.66    0.33 
  -2 -14  -9    2.65    0.18 
  -2 -14  -9    2.63    0.19 
   2  14   9    3.07    0.21 
   2  14   9    2.59    0.25 
  -3 -14  -9    0.39    0.08 
   3  14   9    0.43    0.09 
   2  11 -10    8.98    0.42 
  -2 -11  10    7.63    0.41 
   1  11 -10    4.06    0.25 
   1  11 -10    4.70    0.26 
  -1 -11  10    4.63    0.25 
   0  11 -10    0.33    0.07 
   0 -11  10    0.41    0.07 
  -1  11 -10    8.00    0.38 
   1 -11  10    7.42    0.36 
   1 -11  10    7.60    0.38 
   3  10 -10    7.20    0.36 
   3  10 -10    8.03    0.39 
  -3 -10  10    6.97    0.37 
   2  10 -10    0.65    0.09 
   2  10 -10    0.63    0.10 
  -2 -10  10    0.41    0.07 
  -2 -10  10    0.61    0.09 
   1  10 -10   11.61    0.56 
   1  10 -10    9.69    0.54 
  -1 -10  10   11.78    0.56 
   0  10 -10    9.12    0.47 
   0 -10  10    9.00    0.45 
   0 -10  10    9.39    0.47 
  -1  10 -10    3.56    0.21 
   1 -10  10    3.15    0.21 
   1 -10  10    3.40    0.20 
  -2  10 -10    2.44    0.16 
   2 -10  10    2.59    0.15 
   4   9 -10    2.42    0.23 
   4   9 -10    2.08    0.14 
   4   9 -10    2.32    0.14 
   3   9 -10    0.12    0.06 
   3   9 -10    0.14    0.05 
   3   9 -10    0.20    0.09 
  -3  -9  10    0.06    0.04 
  -3  -9  10    0.20    0.08 
   2   9 -10    1.05    0.12 
   2   9 -10    1.13    0.15 
  -2  -9  10    1.28    0.14 
   1   9 -10    5.17    0.30 
   1   9 -10    4.88    0.29 
  -1  -9  10    4.81    0.30 
  -1  -9  10    4.68    0.27 
   0   9 -10    1.33    0.18 
   0   9 -10    1.31    0.14 
   0  -9  10    1.32    0.15 
   0  -9  10    1.30    0.14 
  -1   9 -10    0.22    0.08 
   1  -9  10    0.14    0.07 
   1  -9  10    0.25    0.07 
  -2   9 -10    5.84    0.32 
   2  -9  10    5.96    0.31 
  -3   9 -10    0.12    0.06 
   3  -9  10    0.11    0.04 
   4   8 -10   -0.03    0.05 
   4   8 -10    0.05    0.06 
   4   8 -10    0.01    0.04 
   4   8 -10   -0.03    0.07 
  -4  -8  10    0.06    0.06 
  -4  -8  10    0.02    0.04 
   3   8 -10    5.60    0.33 
   3   8 -10    5.58    0.31 
   3   8 -10    5.25    0.31 
   3   8 -10    5.60    0.31 
  -3  -8  10    5.47    0.32 
  -3  -8  10    5.50    0.28 
   2   8 -10   11.48    0.57 
   2   8 -10   11.64    0.59 
   2   8 -10   12.00    0.59 
   2   8 -10   10.44    0.57 
  -2  -8  10   12.14    0.59 
  -2  -8  10   11.38    0.55 
   1   8 -10    0.31    0.10 
   1   8 -10    0.22    0.08 
   1   8 -10    0.26    0.09 
  -1  -8  10    0.20    0.08 
  -1  -8  10    0.21    0.08 
   0   8 -10    2.49    0.22 
   0   8 -10    2.71    0.20 
   0  -8  10    2.83    0.19 
   0  -8  10    2.74    0.21 
  -1   8 -10   12.72    0.62 
   1  -8  10   12.22    0.62 
   1  -8  10   12.37    0.60 
  -2   8 -10    5.57    0.31 
   2  -8  10    5.32    0.30 
  -3   8 -10    1.79    0.14 
  -3   8 -10    1.75    0.14 
   3  -8  10    1.70    0.13 
   4   7 -10    0.38    0.07 
   4   7 -10    0.29    0.10 
   4   7 -10    0.20    0.07 
   4   7 -10    0.32    0.07 
  -4  -7  10    0.26    0.05 
  -4  -7  10    0.17    0.07 
   3   7 -10    2.66    0.21 
   3   7 -10    2.91    0.22 
   3   7 -10    2.97    0.21 
   3   7 -10    2.91    0.20 
  -3  -7  10    2.77    0.18 
   2   7 -10   18.87    0.89 
   2   7 -10   18.58    0.87 
   2   7 -10   18.02    0.89 
   2   7 -10   18.30    0.87 
  -2  -7  10   18.99    0.85 
  -2  -7  10   17.08    0.84 
   1   7 -10    2.72    0.21 
   1   7 -10    2.78    0.22 
   1   7 -10    2.79    0.23 
   1   7 -10    2.46    0.20 
  -1  -7  10    2.72    0.19 
  -1  -7  10    2.69    0.18 
  -1  -7  10    3.06    0.22 
   0   7 -10   21.63    1.03 
   0   7 -10   22.33    1.04 
   0  -7  10   22.11    1.05 
   0  -7  10   22.23    1.02 
  -1   7 -10   26.19    1.24 
  -1   7 -10   26.62    1.24 
   1  -7  10   27.14    1.23 
   1  -7  10   27.39    1.25 
  -2   7 -10    0.04    0.07 
   2  -7  10    0.03    0.10 
   2  -7  10    0.12    0.07 
  -3   7 -10    2.69    0.18 
  -3   7 -10    2.42    0.18 
   3  -7  10    2.37    0.19 
   3  -7  10    2.62    0.17 
  -4   7 -10    0.92    0.10 
  -4   7 -10    1.09    0.10 
   4  -7  10    1.04    0.10 
   4  -7  10    1.03    0.09 
   5   6 -10    0.38    0.08 
   4   6 -10    0.08    0.05 
   4   6 -10    0.10    0.07 
   4   6 -10    0.11    0.10 
   4   6 -10    0.15    0.07 
  -4  -6  10    0.08    0.05 
   3   6 -10   22.22    1.08 
   3   6 -10   23.26    1.08 
   3   6 -10   24.15    1.08 
   3   6 -10   21.64    1.04 
   3   6 -10   23.59    1.10 
  -3  -6  10   24.51    1.05 
  -3  -6  10   21.87    1.04 
   2   6 -10    3.96    0.27 
   2   6 -10    3.83    0.26 
   2   6 -10    3.91    0.26 
   2   6 -10    3.83    0.25 
  -2  -6  10    3.57    0.22 
  -2  -6  10    3.44    0.22 
   1   6 -10   20.92    0.99 
   1   6 -10   20.83    1.00 
   1   6 -10   22.27    1.02 
  -1  -6  10   21.75    0.97 
  -1  -6  10   20.43    0.97 
   0   6 -10    1.30    0.16 
   0   6 -10    1.16    0.20 
   0   6 -10    1.28    0.14 
   0  -6  10    1.27    0.32 
   0  -6  10    1.58    0.16 
   0  -6  10    1.48    0.14 
  -1   6 -10    2.99    0.20 
  -1   6 -10    3.05    0.22 
   1  -6  10    2.52    0.22 
   1  -6  10    2.89    0.20 
  -2   6 -10    0.07    0.07 
   2  -6  10    0.13    0.06 
   2  -6  10    0.06    0.09 
  -3   6 -10    0.44    0.09 
  -3   6 -10    0.39    0.09 
   3  -6  10    0.33    0.08 
   3  -6  10    0.29    0.09 
   3  -6  10    0.41    0.09 
  -4   6 -10    1.59    0.13 
  -4   6 -10    1.84    0.14 
   4  -6  10    1.60    0.14 
   4  -6  10    1.76    0.14 
   4  -6  10    1.65    0.12 
   5   5 -10    0.00    0.04 
   5   5 -10    0.07    0.06 
   5   5 -10    0.03    0.05 
   4   5 -10   -0.01    0.06 
   4   5 -10    0.01    0.06 
   4   5 -10    0.03    0.05 
  -4  -5  10    0.02    0.05 
   3   5 -10   22.31    1.07 
   3   5 -10   24.08    1.13 
   3   5 -10   24.33    1.11 
   3   5 -10   23.91    1.12 
   3   5 -10   24.42    1.11 
  -3  -5  10   22.57    1.07 
  -3  -5  10   24.05    1.07 
   2   5 -10   14.27    0.70 
   2   5 -10   13.71    0.66 
   2   5 -10   13.81    0.69 
   2   5 -10   14.36    0.71 
   2   5 -10   14.34    0.70 
  -2  -5  10   14.67    0.66 
  -2  -5  10   13.97    0.66 
   1   5 -10    2.58    0.20 
   1   5 -10    2.06    0.37 
   1   5 -10    2.52    0.20 
   1   5 -10    2.15    0.18 
  -1  -5  10    2.37    0.31 
  -1  -5  10    2.24    0.16 
  -1  -5  10    2.34    0.15 
   0   5 -10   20.50    0.95 
   0   5 -10   21.74    0.98 
   0   5 -10   19.16    0.95 
   0  -5  10   21.19    1.17 
   0  -5  10   19.72    0.94 
   0  -5  10   20.67    0.97 
  -1   5 -10   23.16    1.15 
  -1   5 -10   25.01    1.09 
  -1   5 -10   24.70    1.09 
   1  -5  10   23.30    1.10 
   1  -5  10   22.96    1.31 
   1  -5  10   22.49    1.10 
   1  -5  10   23.08    1.08 
  -2   5 -10    0.43    0.11 
  -2   5 -10    0.15    0.07 
   2  -5  10    0.07    0.09 
   2  -5  10    0.26    0.08 
  -3   5 -10    1.49    0.14 
  -3   5 -10    1.18    0.13 
   3  -5  10    1.31    0.16 
   3  -5  10    1.36    0.15 
   3  -5  10    1.20    0.13 
  -4   5 -10   12.68    0.61 
  -4   5 -10   12.90    0.63 
   4  -5  10   12.60    0.63 
   4  -5  10   12.77    0.61 
   4  -5  10   14.35    0.65 
   4  -5  10   12.83    0.61 
   5   4 -10    0.33    0.07 
   5   4 -10    0.41    0.07 
   5   4 -10    0.40    0.08 
   4   4 -10    0.00    0.05 
   4   4 -10    0.05    0.07 
   4   4 -10    0.11    0.06 
   4   4 -10    0.06    0.07 
  -4  -4  10    0.08    0.05 
   3   4 -10    7.04    0.39 
   3   4 -10    6.46    0.35 
   3   4 -10    7.41    0.39 
   3   4 -10    6.91    0.38 
   3   4 -10    6.48    0.40 
  -3  -4  10    6.77    0.35 
   2   4 -10    2.30    0.18 
   2   4 -10    2.31    0.21 
   2   4 -10    2.25    0.19 
   2   4 -10    2.17    0.16 
   2   4 -10    2.52    0.20 
  -2  -4  10    2.43    0.16 
  -2  -4  10    2.80    0.36 
   1   4 -10   10.86    0.54 
   1   4 -10   10.60    0.54 
   1   4 -10   11.58    0.55 
   1   4 -10    9.69    0.53 
   1   4 -10   11.53    0.52 
   1   4 -10    9.82    0.74 
  -1  -4  10   11.32    0.71 
  -1  -4  10   11.02    0.51 
  -1  -4  10   11.00    0.52 
   0   4 -10    6.19    0.33 
   0   4 -10    6.16    0.38 
   0   4 -10    6.37    0.37 
   0  -4  10    6.10    0.32 
   0  -4  10    6.11    0.48 
  -1   4 -10    1.02    0.11 
  -1   4 -10    0.99    0.13 
  -1   4 -10    1.10    0.15 
   1  -4  10    1.00    0.23 
   1  -4  10    0.83    0.13 
   1  -4  10    0.97    0.11 
  -2   4 -10    9.15    0.48 
  -2   4 -10   10.52    0.49 
  -2   4 -10   10.01    0.55 
   2  -4  10    9.60    0.48 
   2  -4  10    9.62    0.56 
   2  -4  10    9.36    0.50 
  -3   4 -10    0.08    0.06 
  -3   4 -10    0.06    0.05 
   3  -4  10    0.05    0.07 
   3  -4  10    0.00    0.10 
   3  -4  10   -0.01    0.07 
   3  -4  10   -0.01    0.07 
   3  -4  10    0.05    0.06 
  -4   4 -10    0.09    0.06 
  -4   4 -10    0.07    0.05 
   4  -4  10    0.04    0.06 
   4  -4  10    0.07    0.06 
   4  -4  10    0.05    0.07 
   4  -4  10    0.06    0.06 
   4  -4  10    0.06    0.08 
  -5   4 -10    1.24    0.11 
  -5   4 -10    0.97    0.10 
   5  -4  10    1.07    0.12 
   5  -4  10    1.25    0.09 
   5  -4  10    1.42    0.12 
   5  -4  10    1.00    0.11 
   5   3 -10   15.43    0.76 
   5   3 -10   16.14    0.76 
   5   3 -10   17.07    0.76 
  -5  -3  10   16.55    0.73 
   4   3 -10    9.32    0.49 
   4   3 -10    8.95    0.45 
   4   3 -10    9.28    0.49 
   4   3 -10    9.60    0.48 
  -4  -3  10    9.59    0.45 
   3   3 -10    0.96    0.14 
   3   3 -10    0.91    0.12 
   3   3 -10    0.65    0.12 
   3   3 -10    0.78    0.10 
  -3  -3  10    0.71    0.11 
   2   3 -10   33.98    1.46 
   2   3 -10   31.63    1.45 
   2   3 -10   31.06    1.46 
   2   3 -10   30.92    1.42 
   2   3 -10   32.70    1.45 
  -2  -3  10   31.98    1.67 
  -2  -3  10   30.33    1.42 
   1   3 -10   67.15    2.86 
   1   3 -10   60.12    3.03 
   1   3 -10   62.05    2.79 
  -1  -3  10   67.01    3.00 
  -1  -3  10   60.56    2.78 
   0   3 -10    5.41    0.33 
   0   3 -10    5.98    0.46 
   0  -3  10    4.96    0.27 
   0  -3  10    5.91    0.44 
  -1   3 -10   14.83    0.74 
   1  -3  10   14.72    0.85 
  -2   3 -10    2.12    0.15 
  -2   3 -10    1.76    0.12 
  -2   3 -10    1.72    0.15 
  -2   3 -10    1.89    0.20 
   2  -3  10    1.90    0.18 
   2  -3  10    1.82    0.15 
   2  -3  10    2.37    0.24 
  -3   3 -10    0.64    0.08 
  -3   3 -10    0.87    0.12 
   3  -3  10    0.54    0.11 
   3  -3  10    1.07    0.19 
   3  -3  10    0.50    0.08 
   3  -3  10    0.50    0.09 
   3  -3  10    0.63    0.11 
   3  -3  10    0.50    0.21 
  -4   3 -10    0.13    0.05 
  -4   3 -10    0.14    0.07 
   4  -3  10    0.17    0.08 
   4  -3  10    0.24    0.13 
   4  -3  10    0.04    0.09 
   4  -3  10    0.10    0.07 
   4  -3  10    0.14    0.07 
   4  -3  10    0.10    0.07 
  -5   3 -10    0.91    0.10 
  -5   3 -10    0.79    0.10 
   5  -3  10    0.87    0.12 
   5  -3  10    0.85    0.11 
   5  -3  10    0.82    0.11 
   5  -3  10    0.87    0.09 
   5   2 -10    1.37    0.12 
   5   2 -10    1.79    0.16 
   5   2 -10    1.60    0.14 
   5   2 -10    1.85    0.14 
  -5  -2  10    1.68    0.13 
   4   2 -10    7.98    0.40 
   4   2 -10    8.17    0.43 
   4   2 -10    8.05    0.42 
   4   2 -10    8.04    0.43 
  -4  -2  10    7.86    0.41 
   3   2 -10   21.87    1.03 
   3   2 -10   23.07    1.05 
   3   2 -10   22.41    1.01 
   3   2 -10   21.95    1.04 
  -3  -2  10   20.93    1.01 
   2   2 -10    0.20    0.08 
   2   2 -10    0.09    0.17 
   2   2 -10    0.07    0.08 
   2   2 -10    0.18    0.08 
   2   2 -10    0.19    0.07 
   2   2 -10    0.12    0.06 
   2   2 -10    0.13    0.11 
  -2  -2  10    0.00    0.13 
  -2  -2  10    0.27    0.17 
  -2  -2  10    0.13    0.06 
   1   2 -10   56.63    2.75 
  -1  -2  10   60.44    2.73 
  -1  -2  10   55.01    2.52 
   0   2 -10   14.53    0.74 
   0   2 -10   15.60    0.86 
   0  -2  10   15.78    0.85 
  -1   2 -10    0.49    0.10 
   1  -2  10    0.59    0.16 
  -2   2 -10   86.53    3.82 
  -2   2 -10   88.78    3.80 
  -2   2 -10   90.05    3.89 
   2  -2  10   88.68    3.82 
   2  -2  10   84.00    3.90 
   2  -2  10   82.86    3.84 
   2  -2  10   91.49    3.91 
   2  -2  10   83.98    3.96 
  -3   2 -10   21.98    0.95 
  -3   2 -10   19.79    0.96 
  -3   2 -10   21.25    1.08 
   3  -2  10   20.80    0.96 
   3  -2  10   22.09    1.02 
   3  -2  10   17.81    1.12 
   3  -2  10   20.81    1.02 
   3  -2  10   19.97    0.98 
   3  -2  10   24.02    1.09 
   3  -2  10   22.05    0.99 
  -4   2 -10    2.86    0.16 
   4  -2  10    3.06    0.21 
   4  -2  10    2.72    0.23 
   4  -2  10    2.90    0.23 
   4  -2  10    2.89    0.29 
   4  -2  10    2.49    0.19 
  -5   2 -10    1.92    0.13 
  -5   2 -10    2.04    0.15 
   5  -2  10    1.93    0.14 
   5  -2  10    1.90    0.16 
   5  -2  10    1.87    0.16 
   5  -2  10    2.00    0.21 
   5  -2  10    1.98    0.17 
   5   1 -10    0.33    0.07 
   5   1 -10    0.26    0.06 
   5   1 -10    0.30    0.08 
  -5  -1  10    0.28    0.07 
   4   1 -10    9.27    0.44 
   4   1 -10    9.52    0.47 
   4   1 -10    8.59    0.47 
   4   1 -10    8.71    0.47 
  -4  -1  10    8.39    0.45 
   3   1 -10    4.90    0.30 
   3   1 -10    4.19    0.28 
   3   1 -10    5.31    0.28 
   3   1 -10    5.42    0.31 
   3   1 -10    5.23    0.29 
  -3  -1  10    4.72    0.29 
   2   1 -10    0.11    0.07 
   2   1 -10    0.35    0.19 
   2   1 -10    0.14    0.08 
   2   1 -10    0.11    0.06 
   2   1 -10    0.18    0.08 
   2   1 -10    0.13    0.08 
  -2  -1  10    0.25    0.08 
  -2  -1  10    0.31    0.18 
   1   1 -10    0.29    0.15 
  -1  -1  10    0.12    0.05 
  -1  -1  10    0.15    0.12 
   0   1 -10    6.34    0.44 
   0  -1  10    7.17    0.45 
   0  -1  10    5.47    0.45 
  -1   1 -10    1.23    0.19 
  -1   1 -10    0.82    0.11 
   1  -1  10    0.72    0.16 
   1  -1  10    0.69    0.15 
  -2   1 -10   10.74    0.53 
   2  -1  10    8.64    0.59 
  -3   1 -10    1.13    0.09 
  -3   1 -10    1.43    0.19 
  -3   1 -10    0.89    0.13 
   3  -1  10    1.38    0.20 
   3  -1  10    1.17    0.16 
   3  -1  10    1.07    0.23 
   3  -1  10    1.47    0.22 
   3  -1  10    1.16    0.14 
   3  -1  10    0.85    0.12 
  -4   1 -10    0.56    0.07 
   4  -1  10    0.50    0.12 
   4  -1  10    0.42    0.14 
   4  -1  10    0.34    0.11 
   4  -1  10    0.43    0.09 
   4  -1  10    0.39    0.08 
  -5   1 -10    4.43    0.23 
   5  -1  10    4.71    0.30 
   5  -1  10    4.60    0.34 
   5  -1  10    4.46    0.29 
   5  -1  10    4.52    0.26 
   5  -1  10    4.22    0.25 
   5   0 -10    0.33    0.07 
   5   0 -10    0.28    0.07 
   5   0 -10    0.26    0.06 
  -5   0  10    0.28    0.08 
   4   0 -10    0.35    0.11 
   4   0 -10    0.21    0.09 
   4   0 -10    0.32    0.08 
   4   0 -10    0.30    0.09 
   4   0 -10    0.44    0.09 
  -4   0  10    0.23    0.09 
   3   0 -10    0.47    0.11 
   3   0 -10    0.55    0.11 
   3   0 -10    0.50    0.09 
   3   0 -10    0.46    0.10 
   3   0 -10    0.39    0.08 
  -3   0  10    0.35    0.10 
   2   0 -10   24.46    1.08 
   2   0 -10   25.44    1.11 
   2   0 -10   24.58    1.09 
   2   0 -10   24.39    1.09 
   2   0 -10   21.78    1.07 
   2   0 -10   22.07    1.31 
  -2   0  10   24.70    1.36 
  -2   0  10   21.80    1.09 
   1   0 -10   59.51    2.87 
  -1   0  10   57.41    2.71 
  -1   0  10   67.75    2.92 
   0   0 -10   33.20    1.65 
   0   0  10   35.77    1.63 
   0   0  10   34.23    1.65 
  -1   0 -10   83.34    3.63 
  -1   0 -10   83.22    3.72 
   1   0  10   83.83    3.72 
   1   0  10   78.46    3.72 
  -2   0 -10   10.35    0.51 
  -2   0 -10    9.49    0.44 
   2   0  10    8.39    0.57 
  -3   0 -10    8.40    0.37 
  -3   0 -10    8.63    0.47 
  -3   0 -10    7.67    0.40 
   3   0  10    6.98    0.53 
   3   0  10    8.04    0.44 
   3   0  10    6.97    0.48 
   3   0  10    7.50    0.40 
   3   0  10    6.99    0.46 
   3   0  10    7.77    0.50 
   3   0  10    7.36    0.40 
  -4   0 -10    5.24    0.32 
  -4   0 -10    6.17    0.29 
   4   0  10    6.12    0.33 
   4   0  10    5.60    0.32 
   4   0  10    6.11    0.43 
   4   0  10    4.81    0.42 
   4   0  10    5.73    0.36 
   4   0  10    6.09    0.39 
  -5   0 -10    5.95    0.30 
   5   0  10    5.77    0.38 
   5   0  10    6.76    0.38 
   5   0  10    6.27    0.33 
   5   0  10    6.28    0.42 
   5   0  10    6.04    0.33 
  -6   0 -10    1.77    0.14 
   6   0  10    1.96    0.14 
   6   0  10    1.73    0.12 
   6   0  10    1.81    0.15 
   6   0  10    1.78    0.22 
   5  -1 -10    0.10    0.06 
   5  -1 -10    0.12    0.06 
   5  -1 -10    0.11    0.05 
   5  -1 -10    0.06    0.07 
  -5   1  10    0.08    0.08 
   4  -1 -10    0.07    0.08 
   4  -1 -10    0.10    0.07 
   4  -1 -10    0.00    0.10 
   4  -1 -10    0.09    0.07 
   4  -1 -10    0.03    0.07 
  -4   1  10    0.12    0.09 
   3  -1 -10    1.03    0.12 
   3  -1 -10    0.83    0.12 
   3  -1 -10    0.73    0.12 
   3  -1 -10    0.95    0.11 
   3  -1 -10    0.90    0.13 
  -3   1  10    0.63    0.11 
   2  -1 -10   24.03    1.06 
   2  -1 -10   22.88    1.29 
   2  -1 -10   23.39    1.05 
   2  -1 -10   25.52    1.09 
   2  -1 -10   23.62    1.07 
   2  -1 -10   21.38    1.05 
  -2   1  10   21.84    1.07 
  -2   1  10   21.72    1.31 
   1  -1 -10   24.95    1.26 
  -1   1  10   24.94    1.31 
  -1   1  10   23.05    1.11 
  -1   1  10   24.01    1.26 
   0  -1 -10    2.97    0.27 
   0   1  10    3.37    0.28 
   0   1  10    2.37    0.24 
  -1  -1 -10   68.79    3.09 
  -1  -1 -10   62.83    2.97 
   1   1  10   70.30    3.08 
  -2  -1 -10   20.46    0.95 
  -2  -1 -10   18.69    0.88 
   2   1  10   19.67    1.05 
  -3  -1 -10   18.12    0.88 
  -3  -1 -10   18.82    0.79 
   3   1  10   15.99    0.89 
   3   1  10   17.77    0.88 
   3   1  10   15.91    0.81 
   3   1  10   17.95    0.91 
   3   1  10   17.99    0.82 
   3   1  10   17.64    0.85 
   3   1  10   14.70    0.95 
  -4  -1 -10    0.04    0.09 
  -4  -1 -10    0.09    0.05 
   4   1  10    0.06    0.11 
   4   1  10    0.10    0.09 
   4   1  10    0.20    0.08 
   4   1  10   -0.04    0.17 
   4   1  10    0.12    0.14 
   4   1  10    0.08    0.06 
  -5  -1 -10    1.06    0.10 
   5   1  10    1.24    0.12 
   5   1  10    1.39    0.16 
   5   1  10    1.05    0.17 
   5   1  10    1.06    0.13 
   5   1  10    1.07    0.19 
   6   1  10    3.94    0.23 
   6   1  10    3.30    0.26 
   6   1  10    3.44    0.23 
   6   1  10    3.80    0.20 
   5  -2 -10    7.48    0.37 
   5  -2 -10    6.83    0.37 
   5  -2 -10    7.39    0.39 
   5  -2 -10    8.03    0.38 
  -5   2  10    8.17    0.40 
   4  -2 -10    1.27    0.14 
   4  -2 -10    1.17    0.19 
   4  -2 -10    1.37    0.13 
   4  -2 -10    1.41    0.16 
   4  -2 -10    1.30    0.13 
  -4   2  10    1.21    0.17 
   3  -2 -10   30.22    1.41 
   3  -2 -10   33.00    1.43 
   3  -2 -10   31.75    1.43 
   3  -2 -10   32.17    1.47 
   3  -2 -10   32.46    1.46 
   3  -2 -10   30.28    1.45 
  -3   2  10   31.89    1.45 
   2  -2 -10   47.31    2.32 
   2  -2 -10   53.56    2.35 
   2  -2 -10   53.18    2.34 
   2  -2 -10   55.90    2.58 
   2  -2 -10   53.14    2.34 
   2  -2 -10   53.47    2.60 
   2  -2 -10   54.86    2.37 
   2  -2 -10   53.06    2.36 
  -2   2  10   50.37    2.56 
  -2   2  10   54.19    2.64 
  -2   2  10   52.26    2.36 
   1  -2 -10    7.07    0.48 
   1  -2 -10    7.25    0.48 
  -1   2  10    5.87    0.35 
  -1   2  10    6.71    0.52 
  -1   2  10    6.74    0.52 
   0  -2 -10   64.39    3.06 
   0   2  10   65.91    3.04 
   0   2  10   68.66    3.07 
  -1  -2 -10  100.12    4.46 
  -1  -2 -10  100.10    4.62 
   1   2  10  104.68    4.58 
  -2  -2 -10    3.03    0.22 
  -2  -2 -10    3.00    0.33 
  -2  -2 -10    2.91    0.17 
   2   2  10    2.92    0.29 
  -3  -2 -10    3.19    0.25 
  -3  -2 -10    2.99    0.17 
   3   2  10    3.00    0.29 
   3   2  10    2.83    0.31 
   3   2  10    2.69    0.21 
   3   2  10    2.96    0.26 
   3   2  10    2.79    0.29 
   3   2  10    2.42    0.18 
   3   2  10    2.66    0.23 
  -4  -2 -10   16.27    0.75 
   4   2  10   16.39    0.77 
   4   2  10   15.82    0.77 
   4   2  10   17.10    0.87 
   4   2  10   15.42    0.87 
   4   2  10   15.62    0.82 
   4   2  10   17.22    0.90 
  -5  -2 -10    7.51    0.37 
  -5  -2 -10    6.62    0.39 
   5   2  10    7.09    0.49 
   5   2  10    7.75    0.46 
   5   2  10    7.82    0.44 
   5   2  10    8.20    0.51 
   5   2  10    7.66    0.39 
  -6  -2 -10    4.41    0.22 
   6   2  10    4.54    0.27 
   6   2  10    4.50    0.27 
   6   2  10    4.70    0.23 
   6   2  10    4.13    0.30 
   5  -3 -10    1.15    0.12 
   5  -3 -10    1.26    0.11 
   5  -3 -10    1.38    0.10 
   5  -3 -10    1.13    0.15 
   4  -3 -10    0.16    0.07 
   4  -3 -10    0.09    0.05 
   4  -3 -10    0.10    0.07 
   4  -3 -10    0.13    0.07 
   4  -3 -10    0.03    0.08 
  -4   3  10    0.05    0.08 
   3  -3 -10   43.63    1.93 
   3  -3 -10   43.82    1.96 
   3  -3 -10   43.16    1.93 
   3  -3 -10   40.62    1.91 
   3  -3 -10   43.22    1.95 
   3  -3 -10   43.51    1.97 
  -3   3  10   44.14    1.96 
   2  -3 -10   40.96    1.95 
   2  -3 -10   37.15    1.71 
   2  -3 -10   40.18    1.75 
   2  -3 -10   38.41    1.71 
   2  -3 -10   35.28    1.70 
   2  -3 -10   38.73    1.74 
   2  -3 -10   38.07    1.97 
   2  -3 -10   39.38    1.73 
  -2   3  10   39.21    1.74 
  -2   3  10   38.00    1.97 
  -2   3  10   36.51    1.99 
   1  -3 -10    0.91    0.21 
   1  -3 -10    0.74    0.19 
  -1   3  10    0.80    0.23 
  -1   3  10    0.71    0.11 
  -1   3  10    0.99    0.25 
   0  -3 -10   89.08    4.11 
   0   3  10   93.46    4.11 
   0   3  10   86.48    4.07 
  -1  -3 -10    1.95    0.28 
   1   3  10    2.28    0.25 
  -2  -3 -10    0.04    0.07 
  -2  -3 -10   -0.05    0.13 
  -2  -3 -10    0.03    0.04 
   2   3  10    0.06    0.10 
  -3  -3 -10    1.28    0.17 
  -3  -3 -10    1.08    0.10 
   3   3  10    1.09    0.16 
   3   3  10    1.37    0.26 
   3   3  10    1.10    0.13 
   3   3  10    1.32    0.20 
   3   3  10    1.14    0.20 
   3   3  10    0.93    0.18 
  -4  -3 -10    9.99    0.48 
   4   3  10    9.74    0.61 
   4   3  10    9.95    0.60 
   4   3  10   10.20    0.50 
   4   3  10   10.29    0.56 
   4   3  10    9.25    0.58 
  -5  -3 -10   17.81    0.83 
   5   3  10   18.36    0.91 
   5   3  10   18.04    0.93 
   5   3  10   17.88    0.97 
   5   3  10   19.38    0.85 
   5   3  10   17.14    0.94 
   6   3  10    0.07    0.07 
   6   3  10   -0.01    0.10 
   6   3  10    0.12    0.07 
   6   3  10    0.15    0.05 
   5  -4 -10    0.08    0.05 
   5  -4 -10   -0.03    0.04 
   5  -4 -10    0.00    0.05 
   4  -4 -10    6.16    0.34 
   4  -4 -10    5.74    0.35 
   4  -4 -10    5.93    0.30 
   4  -4 -10    6.22    0.32 
   4  -4 -10    5.89    0.32 
  -4   4  10    6.07    0.35 
   3  -4 -10    2.43    0.19 
   3  -4 -10    2.38    0.17 
   3  -4 -10    2.25    0.21 
   3  -4 -10    2.01    0.15 
   3  -4 -10    2.37    0.21 
   3  -4 -10    2.38    0.18 
  -3   4  10    2.39    0.20 
   2  -4 -10    5.31    0.52 
   2  -4 -10    5.42    0.29 
   2  -4 -10    5.20    0.27 
   2  -4 -10    5.22    0.31 
   2  -4 -10    5.30    0.31 
   2  -4 -10    5.25    0.48 
   2  -4 -10    5.48    0.29 
   2  -4 -10    5.66    0.33 
  -2   4  10    5.39    0.32 
  -2   4  10    5.20    0.54 
   1  -4 -10    4.39    0.39 
   1  -4 -10    4.31    0.37 
  -1   4  10    3.64    0.25 
  -1   4  10    3.90    0.42 
   0  -4 -10   26.77    1.42 
   0   4  10   27.82    1.42 
  -1  -4 -10    5.96    0.48 
   1   4  10    5.98    0.44 
  -2  -4 -10    4.60    0.42 
  -2  -4 -10    5.01    0.30 
  -2  -4 -10    4.62    0.24 
   2   4  10    5.13    0.41 
  -3  -4 -10    0.66    0.08 
  -3  -4 -10    0.88    0.17 
   3   4  10    0.69    0.16 
   3   4  10    0.64    0.13 
   3   4  10    0.79    0.21 
   3   4  10    0.64    0.10 
   3   4  10    0.77    0.17 
   3   4  10    0.82    0.17 
  -4  -4 -10    0.02    0.05 
   4   4  10    0.08    0.12 
   4   4  10    0.04    0.06 
   4   4  10    0.01    0.12 
   4   4  10    0.04    0.09 
   4   4  10    0.04    0.13 
  -5  -4 -10    1.84    0.14 
   5   4  10    1.51    0.21 
   5   4  10    1.79    0.19 
   5   4  10    1.75    0.14 
   5   4  10    1.58    0.25 
   5   4  10    1.80    0.26 
  -6  -4 -10    2.58    0.15 
   6   4  10    2.51    0.19 
   6   4  10    2.58    0.20 
   6   4  10    2.57    0.24 
   4  -5 -10   41.71    1.83 
   4  -5 -10   43.08    1.85 
   4  -5 -10   39.99    1.86 
   4  -5 -10   39.69    1.81 
   4  -5 -10   39.97    1.83 
  -4   5  10   41.74    1.86 
   3  -5 -10   39.97    1.84 
   3  -5 -10   40.50    1.81 
   3  -5 -10   40.92    1.79 
   3  -5 -10   40.38    1.85 
   3  -5 -10   40.24    1.80 
  -3   5  10   39.94    1.84 
   2  -5 -10   22.43    1.03 
   2  -5 -10   23.47    1.08 
   2  -5 -10   23.45    1.04 
   2  -5 -10   23.05    1.08 
   2  -5 -10   23.57    1.28 
   2  -5 -10   22.12    1.04 
   2  -5 -10   22.11    1.06 
  -2   5  10   22.20    1.33 
  -2   5  10   23.23    1.08 
   1  -5 -10  171.82    7.46 
   1  -5 -10  171.82    7.44 
   1  -5 -10  169.28    7.64 
   1  -5 -10  172.57    7.42 
   1  -5 -10  179.56    7.61 
   1  -5 -10  171.45    7.43 
  -1   5  10  160.51    7.46 
  -1   5  10  169.04    7.47 
  -1   5  10  166.45    7.70 
   0  -5 -10   17.60    1.02 
   0   5  10   16.77    1.00 
  -1  -5 -10    9.82    0.68 
   1   5  10   10.66    0.66 
  -2  -5 -10   45.71    2.03 
  -2  -5 -10   47.54    2.22 
  -2  -5 -10   43.44    1.98 
   2   5  10   42.52    2.11 
   2   5  10   44.68    2.17 
  -3  -5 -10   11.69    0.78 
  -3  -5 -10   12.34    0.55 
  -3  -5 -10   12.20    0.64 
   3   5  10   11.57    0.75 
   3   5  10   12.28    0.66 
   3   5  10   11.21    0.62 
   3   5  10   10.96    0.57 
   3   5  10   11.24    0.75 
   3   5  10   12.06    0.65 
   3   5  10   11.23    0.64 
  -4  -5 -10    2.26    0.15 
   4   5  10    2.10    0.22 
   4   5  10    2.28    0.26 
   4   5  10    2.37    0.28 
   4   5  10    2.27    0.28 
   4   5  10    2.30    0.17 
  -5  -5 -10    1.09    0.12 
   5   5  10    1.00    0.11 
   5   5  10    0.97    0.16 
   5   5  10    0.91    0.19 
   5   5  10    1.02    0.20 
   5   5  10    1.31    0.20 
  -6  -5 -10   10.81    0.49 
  -6  -5 -10   10.29    0.51 
   6   5  10   10.78    0.54 
   6   5  10   10.33    0.57 
   6   5  10   10.87    0.54 
   6   5  10   10.52    0.58 
   4  -6 -10    0.03    0.05 
   4  -6 -10    0.06    0.07 
   4  -6 -10    0.03    0.06 
   4  -6 -10    0.05    0.06 
   4  -6 -10    0.09    0.05 
  -4   6  10    0.02    0.08 
  -4   6  10    0.07    0.10 
   3  -6 -10    4.10    0.25 
   3  -6 -10    4.07    0.24 
   3  -6 -10    3.94    0.28 
   3  -6 -10    4.06    0.23 
   3  -6 -10    4.23    0.26 
  -3   6  10    4.16    0.28 
   2  -6 -10    1.78    0.15 
   2  -6 -10    1.74    0.17 
   2  -6 -10    1.85    0.18 
   2  -6 -10    1.80    0.17 
   2  -6 -10    1.52    0.12 
   2  -6 -10    1.39    0.14 
  -2   6  10    1.56    0.24 
  -2   6  10    1.71    0.18 
   1  -6 -10    5.52    0.33 
   1  -6 -10    5.87    0.30 
   1  -6 -10    5.59    0.32 
   1  -6 -10    5.99    0.33 
   1  -6 -10    6.02    0.51 
   1  -6 -10    5.94    0.32 
  -1   6  10    6.11    0.35 
  -1   6  10    5.06    0.39 
  -1   6  10    5.76    0.57 
  -1   6  10    5.82    0.37 
   0  -6 -10   36.98    1.89 
   0  -6 -10   36.42    1.65 
   0   6  10   35.42    1.67 
   0   6  10   37.48    1.89 
  -1  -6 -10    1.68    0.28 
   1   6  10    1.53    0.28 
  -2  -6 -10   43.59    2.06 
  -2  -6 -10   41.48    1.86 
  -2  -6 -10   40.26    1.80 
  -2  -6 -10   40.10    1.84 
   2   6  10   36.13    1.82 
   2   6  10   40.89    1.89 
   2   6  10   41.52    1.97 
   2   6  10   41.70    2.01 
  -3  -6 -10   26.31    1.14 
  -3  -6 -10   25.82    1.23 
  -3  -6 -10   23.53    1.38 
   3   6  10   24.05    1.35 
   3   6  10   25.03    1.35 
   3   6  10   26.84    1.23 
   3   6  10   25.20    1.23 
   3   6  10   24.61    1.24 
   3   6  10   26.18    1.22 
   3   6  10   24.18    1.15 
  -4  -6 -10    7.78    0.40 
   4   6  10    8.33    0.51 
   4   6  10    8.32    0.49 
   4   6  10    7.44    0.50 
   4   6  10    8.23    0.52 
   4   6  10    8.22    0.41 
  -5  -6 -10    0.12    0.06 
   5   6  10    0.09    0.13 
   5   6  10    0.03    0.09 
   5   6  10    0.09    0.14 
   5   6  10    0.02    0.11 
  -6  -6 -10   13.33    0.61 
   6   6  10   12.78    0.67 
   6   6  10   12.17    0.67 
   6   6  10   12.74    0.64 
   6   6  10   14.04    0.65 
   4  -7 -10    2.02    0.15 
   4  -7 -10    2.03    0.16 
   4  -7 -10    1.97    0.13 
   4  -7 -10    1.99    0.12 
   4  -7 -10    1.95    0.14 
  -4   7  10    1.94    0.19 
  -4   7  10    1.94    0.18 
   3  -7 -10    1.86    0.16 
   3  -7 -10    2.06    0.13 
   3  -7 -10    1.66    0.14 
   3  -7 -10    1.79    0.16 
   3  -7 -10    1.86    0.18 
  -3   7  10    1.41    0.24 
  -3   7  10    1.65    0.19 
   2  -7 -10    6.13    0.34 
   2  -7 -10    5.93    0.31 
   2  -7 -10    5.62    0.34 
   2  -7 -10    5.44    0.30 
   2  -7 -10    5.22    0.32 
   2  -7 -10    6.03    0.30 
  -2   7  10    5.68    0.35 
  -2   7  10    4.55    0.39 
   1  -7 -10    0.70    0.11 
   1  -7 -10    0.78    0.12 
   1  -7 -10    0.95    0.10 
   1  -7 -10    0.61    0.11 
   1  -7 -10    0.83    0.12 
  -1   7  10    0.79    0.19 
  -1   7  10    0.64    0.12 
  -1   7  10    0.84    0.16 
  -1   7  10    0.75    0.33 
   0  -7 -10    0.90    0.13 
   0  -7 -10    1.52    0.33 
   0  -7 -10    1.26    0.15 
   0   7  10    1.29    0.31 
   0   7  10    1.56    0.24 
   0   7  10    1.10    0.16 
  -1  -7 -10    1.10    0.28 
  -1  -7 -10    1.05    0.13 
   1   7  10    0.81    0.23 
   1   7  10    0.78    0.13 
   1   7  10    1.14    0.19 
  -2  -7 -10   11.74    0.56 
  -2  -7 -10   11.67    0.54 
  -2  -7 -10   12.63    0.80 
   2   7  10   11.06    0.60 
   2   7  10   10.26    0.61 
   2   7  10   12.24    0.65 
   2   7  10   11.74    0.75 
   2   7  10   10.09    0.56 
  -3  -7 -10   13.32    0.66 
  -3  -7 -10   13.99    0.91 
  -3  -7 -10   14.50    0.65 
  -3  -7 -10   13.78    0.74 
   3   7  10   13.61    0.72 
   3   7  10   14.48    0.76 
   3   7  10   13.48    0.86 
   3   7  10   13.62    0.73 
   3   7  10   13.94    0.87 
   3   7  10   12.63    0.66 
   3   7  10   14.00    0.73 
  -4  -7 -10    1.02    0.11 
   4   7  10    1.06    0.20 
   4   7  10    1.15    0.20 
   4   7  10    1.15    0.20 
   4   7  10    1.15    0.18 
  -5  -7 -10   13.25    0.62 
   5   7  10   12.89    0.69 
   5   7  10   13.09    0.74 
   5   7  10   13.24    0.72 
   5   7  10   13.93    0.72 
   6   7  10    8.24    0.41 
   6   7  10    7.31    0.40 
   6   7  10    7.20    0.43 
   6   7  10    7.37    0.44 
   4  -8 -10    0.82    0.10 
   4  -8 -10    0.88    0.07 
  -4   8  10    0.94    0.12 
   3  -8 -10   11.27    0.52 
   3  -8 -10   10.77    0.54 
   3  -8 -10   10.74    0.55 
   3  -8 -10   11.40    0.51 
   3  -8 -10   10.55    0.51 
  -3   8  10    8.81    0.58 
  -3   8  10   10.78    0.56 
  -3   8  10   11.59    0.58 
   2  -8 -10   29.46    1.31 
   2  -8 -10   27.05    1.29 
   2  -8 -10   29.54    1.25 
   2  -8 -10   27.52    1.26 
  -2   8  10   28.45    1.32 
  -2   8  10   26.91    1.30 
  -2   8  10   25.31    1.34 
   1  -8 -10   14.72    0.70 
   1  -8 -10   13.66    0.68 
   1  -8 -10   14.51    0.65 
   1  -8 -10   13.30    0.67 
  -1   8  10   13.50    0.71 
  -1   8  10   13.52    0.76 
   0  -8 -10   16.18    0.75 
   0  -8 -10   15.59    0.75 
   0  -8 -10   14.83    1.01 
   0   8  10   16.29    0.84 
   0   8  10   14.74    0.76 
   0   8  10   15.77    1.02 
  -1  -8 -10   12.21    0.64 
  -1  -8 -10   14.52    0.93 
  -1  -8 -10   14.97    0.66 
   1   8  10   12.25    0.67 
   1   8  10   12.10    0.65 
   1   8  10   13.41    0.86 
   1   8  10   14.38    0.74 
  -2  -8 -10   13.77    0.92 
  -2  -8 -10   14.08    0.64 
  -2  -8 -10   14.18    0.67 
   2   8  10   13.97    0.75 
   2   8  10   13.38    0.87 
   2   8  10   14.79    0.71 
   2   8  10   12.28    0.72 
  -3  -8 -10    0.14    0.05 
  -3  -8 -10    0.07    0.08 
   3   8  10    0.12    0.12 
   3   8  10    0.15    0.10 
   3   8  10    0.29    0.14 
   3   8  10    0.33    0.14 
  -4  -8 -10    0.07    0.05 
   4   8  10    0.15    0.13 
   4   8  10    0.08    0.13 
   4   8  10    0.17    0.10 
   4   8  10    0.04    0.11 
  -5  -8 -10    0.71    0.09 
   5   8  10    0.55    0.15 
   5   8  10    0.58    0.14 
   5   8  10    0.71    0.16 
   5   8  10    0.74    0.13 
   6   8  10    2.00    0.20 
   6   8  10    2.35    0.18 
   3  -9 -10    2.21    0.13 
   3  -9 -10    2.00    0.15 
   3  -9 -10    1.89    0.15 
   3  -9 -10    1.80    0.16 
  -3   9  10    1.83    0.23 
  -3   9  10    1.70    0.20 
  -3   9  10    1.80    0.19 
   2  -9 -10    1.46    0.16 
   2  -9 -10    1.51    0.15 
   2  -9 -10    1.37    0.12 
  -2   9  10    1.47    0.19 
  -2   9  10    1.52    0.23 
   1  -9 -10   33.62    1.47 
   1  -9 -10   29.84    1.43 
   1  -9 -10   31.61    1.41 
   1  -9 -10   32.04    1.52 
  -1   9  10   31.15    1.53 
  -1   9  10   30.76    1.47 
   0  -9 -10    2.88    0.22 
   0  -9 -10    2.48    0.20 
   0   9  10    2.87    0.29 
   0   9  10    2.34    0.23 
  -1  -9 -10   40.65    1.89 
  -1  -9 -10   44.41    1.90 
   1   9  10   38.26    1.88 
   1   9  10   44.53    1.92 
   1   9  10   41.98    1.98 
  -2  -9 -10    0.49    0.10 
  -2  -9 -10    0.33    0.07 
   2   9  10    0.22    0.11 
   2   9  10    0.21    0.15 
  -3  -9 -10    1.01    0.13 
  -3  -9 -10    0.95    0.10 
   3   9  10    0.90    0.15 
   3   9  10    0.88    0.19 
   3   9  10    0.91    0.17 
   3   9  10    0.89    0.17 
  -4  -9 -10    1.69    0.13 
  -4  -9 -10    1.42    0.15 
   4   9  10    1.66    0.19 
   4   9  10    1.41    0.24 
   4   9  10    1.30    0.20 
   4   9  10    1.54    0.22 
  -5  -9 -10    0.90    0.10 
   5   9  10    0.99    0.16 
   5   9  10    0.90    0.14 
   5   9  10    0.68    0.15 
   5   9  10    0.79    0.16 
   3 -10 -10   31.90    1.45 
   3 -10 -10   32.42    1.46 
  -3  10  10   30.65    1.50 
  -3  10  10   34.89    1.47 
   2 -10 -10   41.15    1.97 
   2 -10 -10   45.52    1.98 
  -2  10  10   45.36    1.99 
  -2  10  10   42.94    2.04 
   1 -10 -10    0.20    0.08 
   1 -10 -10    0.22    0.09 
  -1  10  10    0.07    0.12 
  -1  10  10    0.01    0.14 
   0 -10 -10   92.50    4.06 
   0 -10 -10   92.33    4.05 
   0  10  10   92.95    4.15 
   0  10  10   88.70    4.05 
  -1 -10 -10   52.43    2.49 
  -1 -10 -10   58.29    2.51 
   1  10  10   55.78    2.52 
   1  10  10   57.12    2.59 
  -2 -10 -10    0.57    0.11 
   2  10  10    0.63    0.13 
   2  10  10    0.32    0.16 
  -3 -10 -10    7.82    0.39 
  -3 -10 -10    7.98    0.41 
   3  10  10    7.17    0.47 
   3  10  10    8.71    0.52 
   3  10  10    7.24    0.46 
   3  10  10    7.87    0.46 
  -4 -10 -10   12.06    0.56 
  -4 -10 -10   11.97    0.58 
   4  10  10   11.24    0.64 
   4  10  10   11.57    0.64 
   4  10  10   12.66    0.67 
   4  10  10   11.38    0.63 
  -5 -10 -10    5.87    0.30 
   5  10  10    5.86    0.36 
   5  10  10    5.75    0.37 
   5  10  10    5.84    0.37 
   5  10  10    5.70    0.34 
   2 -11 -10    5.06    0.28 
   2 -11 -10    4.66    0.27 
  -2  11  10    4.67    0.34 
  -2  11  10    4.62    0.29 
   1 -11 -10    0.14    0.07 
  -1  11  10    0.11    0.11 
  -1  11  10    0.00    0.13 
   0 -11 -10    7.54    0.41 
   0 -11 -10    7.92    0.42 
   0  11  10    7.72    0.50 
  -1 -11 -10    0.77    0.12 
  -1 -11 -10    0.79    0.12 
   1  11  10    1.00    0.15 
   1  11  10    0.74    0.18 
  -2 -11 -10    1.77    0.17 
   2  11  10    1.48    0.18 
   2  11  10    1.90    0.25 
  -3 -11 -10    1.30    0.15 
  -3 -11 -10    1.11    0.12 
   3  11  10    1.38    0.17 
   3  11  10    1.02    0.18 
  -4 -11 -10    3.01    0.18 
  -4 -11 -10    2.88    0.20 
   4  11  10    2.73    0.26 
   4  11  10    2.55    0.24 
   4  11  10    3.04    0.27 
   4  11  10    3.29    0.24 
   5  11  10    7.87    0.43 
   5  11  10    8.13    0.41 
   5  11  10    6.93    0.42 
   2 -12 -10    7.06    0.36 
  -2  12  10    7.55    0.42 
   1 -12 -10   13.10    0.65 
  -1  12  10   13.47    0.71 
   0 -12 -10    5.69    0.33 
   0 -12 -10    6.35    0.35 
   0  12  10    6.37    0.42 
  -1 -12 -10   14.74    0.76 
  -1 -12 -10   16.39    0.76 
   1  12  10   16.15    0.84 
   1  12  10   15.88    0.78 
  -2 -12 -10    1.92    0.17 
   2  12  10    1.73    0.24 
   2  12  10    1.72    0.19 
  -3 -12 -10    0.27    0.08 
   3  12  10    0.26    0.14 
   3  12  10    0.16    0.09 
  -4 -12 -10    0.13    0.07 
   4  12  10    0.06    0.10 
   4  12  10    0.12    0.12 
   4  12  10    0.21    0.09 
   1 -13 -10   30.21    1.39 
  -1  13  10   31.58    1.44 
   0 -13 -10   13.39    0.66 
   0  13  10   13.98    0.72 
  -1 -13 -10    6.08    0.34 
  -1 -13 -10    6.21    0.34 
   1  13  10    6.44    0.36 
   1  13  10    6.34    0.41 
  -2 -13 -10    9.80    0.57 
  -2 -13 -10   11.46    0.55 
   2  13  10   11.48    0.61 
   2  13  10   10.93    0.57 
  -3 -13 -10    5.43    0.30 
   3  13  10    5.23    0.35 
   3  13  10    5.22    0.32 
  -4 -13 -10    1.55    0.13 
   4  13  10    1.90    0.16 
   0 -14 -10   14.84    0.71 
   0  14  10   15.28    0.75 
  -1 -14 -10    0.12    0.06 
  -1 -14 -10    0.13    0.08 
   1  14  10    0.13    0.12 
   1  14  10    0.09    0.09 
  -2 -14 -10    1.54    0.14 
   2  14  10    1.60    0.15 
   2  14  10    1.51    0.20 
  -3 -14 -10    1.59    0.14 
   3  14  10    1.87    0.16 
  -2 -11  11    1.67    0.12 
   1  11 -11    1.64    0.22 
  -1 -11  11    1.18    0.11 
   0  11 -11    0.37    0.07 
   0 -11  11    0.55    0.08 
  -3 -10  11   17.65    0.82 
   2  10 -11    0.09    0.05 
   2  10 -11    0.08    0.07 
  -2 -10  11    0.09    0.05 
  -2 -10  11    0.14    0.06 
   1  10 -11   10.42    0.57 
   1  10 -11   13.46    0.59 
  -1 -10  11   12.16    0.58 
   0  10 -11   12.70    0.63 
   0 -10  11   14.15    0.62 
   0 -10  11   13.23    0.64 
  -1  10 -11    0.35    0.07 
   1 -10  11    0.28    0.07 
   1 -10  11    0.23    0.05 
  -2  10 -11    1.99    0.13 
   2 -10  11    1.94    0.12 
   3   9 -11    1.20    0.12 
   3   9 -11    1.26    0.11 
   3   9 -11    1.43    0.14 
  -3  -9  11    1.05    0.11 
   2   9 -11    7.92    0.43 
   2   9 -11    8.46    0.41 
  -2  -9  11    8.12    0.42 
   1   9 -11    0.87    0.13 
   1   9 -11    0.64    0.11 
  -1  -9  11    0.61    0.10 
  -1  -9  11    0.60    0.09 
   0   9 -11    3.10    0.22 
   0   9 -11    2.91    0.20 
   0  -9  11    2.99    0.19 
   0  -9  11    2.96    0.21 
  -1   9 -11    1.29    0.13 
   1  -9  11    1.35    0.12 
   1  -9  11    1.10    0.12 
  -2   9 -11    2.26    0.16 
   2  -9  11    2.02    0.14 
   4   8 -11    5.26    0.26 
   4   8 -11    4.66    0.26 
  -4  -8  11    5.11    0.26 
   3   8 -11    4.78    0.27 
   3   8 -11    4.43    0.28 
   3   8 -11    5.15    0.29 
   3   8 -11    4.57    0.27 
  -3  -8  11    5.34    0.28 
   2   8 -11    7.30    0.39 
   2   8 -11    7.23    0.38 
   2   8 -11    7.30    0.39 
  -2  -8  11    6.94    0.36 
  -2  -8  11    6.67    0.35 
  -2  -8  11    7.09    0.39 
   1   8 -11    6.72    0.36 
   1   8 -11    5.56    0.35 
  -1  -8  11    6.61    0.34 
  -1  -8  11    6.63    0.36 
   0   8 -11    0.14    0.07 
   0   8 -11    0.10    0.09 
   0  -8  11    0.23    0.08 
   0  -8  11    0.17    0.07 
  -1   8 -11    0.86    0.12 
   1  -8  11    0.96    0.12 
   1  -8  11    0.90    0.12 
  -2   8 -11    5.11    0.29 
   2  -8  11    5.12    0.28 
  -3   8 -11   11.11    0.55 
   3  -8  11   11.98    0.54 
   4   7 -11    1.95    0.15 
   4   7 -11    2.19    0.14 
   4   7 -11    2.16    0.15 
  -4  -7  11    2.24    0.16 
  -4  -7  11    2.13    0.13 
   3   7 -11    4.36    0.28 
   3   7 -11    4.63    0.27 
   3   7 -11    5.04    0.30 
   3   7 -11    4.41    0.27 
  -3  -7  11    4.94    0.25 
   2   7 -11    9.49    0.49 
   2   7 -11    9.82    0.51 
   2   7 -11    9.18    0.49 
   2   7 -11   10.04    0.51 
  -2  -7  11    9.34    0.47 
  -2  -7  11    9.28    0.46 
  -2  -7  11   10.33    0.51 
   1   7 -11    6.37    0.37 
   1   7 -11    6.36    0.37 
  -1  -7  11    6.42    0.34 
  -1  -7  11    6.51    0.37 
   0   7 -11    3.32    0.23 
   0   7 -11    3.01    0.22 
   0  -7  11    3.53    0.21 
   0  -7  11    3.30    0.23 
  -1   7 -11   11.01    0.55 
  -1   7 -11   10.82    0.56 
   1  -7  11   11.57    0.57 
   1  -7  11   11.13    0.55 
  -2   7 -11    0.65    0.10 
   2  -7  11    0.45    0.08 
  -3   7 -11    0.95    0.11 
  -3   7 -11    0.89    0.12 
   3  -7  11    1.02    0.11 
   3  -7  11    0.75    0.10 
  -4   7 -11    1.26    0.15 
   4   6 -11    0.93    0.11 
   4   6 -11    0.80    0.11 
   4   6 -11    0.96    0.10 
  -4  -6  11    0.70    0.09 
   3   6 -11    2.94    0.23 
   3   6 -11    3.11    0.22 
   3   6 -11    3.34    0.22 
   3   6 -11    3.27    0.22 
  -3  -6  11    2.90    0.19 
  -3  -6  11    3.56    0.19 
   2   6 -11    0.32    0.10 
   2   6 -11    0.21    0.07 
   2   6 -11    0.32    0.10 
   2   6 -11    0.27    0.09 
  -2  -6  11    0.36    0.08 
  -2  -6  11    0.23    0.06 
   1   6 -11    4.08    0.27 
   1   6 -11    4.04    0.26 
  -1  -6  11    3.87    0.23 
  -1  -6  11    3.71    0.26 
  -1  -6  11    3.42    0.22 
   0   6 -11    4.83    0.28 
   0   6 -11    4.56    0.28 
   0  -6  11    4.54    0.29 
   0  -6  11    4.51    0.26 
  -1   6 -11    0.05    0.07 
  -1   6 -11    0.11    0.09 
   1  -6  11    0.09    0.07 
   1  -6  11    0.13    0.09 
  -2   6 -11    0.04    0.07 
   2  -6  11    0.06    0.09 
   2  -6  11    0.06    0.06 
  -3   6 -11    0.21    0.07 
  -3   6 -11    0.14    0.08 
   3  -6  11    0.15    0.07 
   3  -6  11    0.16    0.08 
   3  -6  11    0.13    0.07 
  -4   6 -11    0.53    0.08 
  -4   6 -11    0.59    0.08 
   4  -6  11    0.43    0.07 
   4  -6  11    0.43    0.06 
   4   5 -11    4.14    0.26 
   4   5 -11    4.29    0.25 
   4   5 -11    4.13    0.25 
  -4  -5  11    4.61    0.23 
   3   5 -11   12.37    0.61 
   3   5 -11   12.06    0.62 
   3   5 -11   11.82    0.60 
   3   5 -11   11.36    0.57 
   3   5 -11   11.64    0.60 
  -3  -5  11   12.11    0.57 
  -3  -5  11   12.75    0.57 
   2   5 -11   93.66    4.25 
   2   5 -11   96.09    4.28 
   2   5 -11   94.99    4.29 
   2   5 -11  101.26    4.29 
   2   5 -11   98.30    4.28 
  -2  -5  11   95.17    4.25 
  -2  -5  11   98.98    4.25 
   1   5 -11   15.24    0.73 
   1   5 -11   15.31    0.73 
   1   5 -11   13.89    0.72 
  -1  -5  11   14.65    0.69 
  -1  -5  11   15.25    0.69 
   0   5 -11   12.75    0.59 
   0   5 -11   11.01    0.56 
   0   5 -11   11.67    0.56 
   0   5 -11   10.39    0.62 
   0  -5  11   11.54    0.57 
   0  -5  11   11.41    0.55 
   0  -5  11   10.62    0.75 
  -1   5 -11   44.66    2.00 
  -1   5 -11   45.27    2.01 
   1  -5  11   44.11    2.02 
   1  -5  11   45.19    2.00 
  -2   5 -11   28.26    1.29 
  -2   5 -11   28.95    1.30 
   2  -5  11   28.54    1.29 
   2  -5  11   27.56    1.31 
  -3   5 -11    0.17    0.07 
   3  -5  11    0.15    0.09 
   3  -5  11    0.19    0.06 
   3  -5  11    0.14    0.08 
  -4   5 -11    2.41    0.17 
  -4   5 -11    2.59    0.17 
   4  -5  11    2.53    0.16 
   4  -5  11    2.45    0.17 
   4  -5  11    2.36    0.18 
   5   4 -11    0.32    0.06 
   5   4 -11    0.28    0.07 
   4   4 -11    0.02    0.06 
   4   4 -11    0.07    0.05 
   4   4 -11    0.03    0.06 
   4   4 -11    0.07    0.07 
  -4  -4  11    0.04    0.05 
   3   4 -11    0.28    0.12 
   3   4 -11    0.50    0.10 
   3   4 -11    0.34    0.08 
   3   4 -11    0.31    0.07 
   3   4 -11    0.49    0.10 
  -3  -4  11    0.34    0.07 
   2   4 -11    3.00    0.23 
   2   4 -11    2.74    0.18 
   2   4 -11    3.02    0.22 
   2   4 -11    2.95    0.22 
   2   4 -11    2.88    0.21 
  -2  -4  11    3.08    0.18 
   1   4 -11    0.62    0.12 
   1   4 -11    0.77    0.10 
   1   4 -11    0.52    0.23 
   1   4 -11    0.60    0.10 
   1   4 -11    0.91    0.12 
   1   4 -11    0.69    0.11 
  -1  -4  11    0.70    0.09 
  -1  -4  11    0.86    0.22 
  -1  -4  11    0.82    0.09 
   0   4 -11    0.38    0.10 
   0   4 -11    0.38    0.17 
   0   4 -11    0.46    0.09 
   0  -4  11    0.22    0.11 
   0  -4  11    0.34    0.16 
   0  -4  11    0.47    0.08 
  -1   4 -11    2.11    0.21 
  -1   4 -11    2.00    0.16 
  -1   4 -11    2.08    0.16 
   1  -4  11    1.95    0.30 
   1  -4  11    1.77    0.20 
   1  -4  11    2.02    0.15 
  -2   4 -11    0.12    0.08 
  -2   4 -11    0.06    0.06 
   2  -4  11    0.03    0.09 
   2  -4  11    0.30    0.08 
  -3   4 -11    0.74    0.11 
  -3   4 -11    0.50    0.08 
   3  -4  11    0.60    0.11 
   3  -4  11    0.45    0.14 
   3  -4  11    0.59    0.09 
   3  -4  11    0.55    0.10 
   3  -4  11    0.44    0.10 
  -4   4 -11    0.03    0.05 
  -4   4 -11    0.02    0.06 
   4  -4  11   -0.02    0.06 
   4  -4  11    0.06    0.07 
   4  -4  11    0.10    0.06 
   4  -4  11    0.05    0.06 
  -5   4 -11    4.07    0.23 
  -5   4 -11    4.39    0.23 
   5  -4  11    4.68    0.24 
   5  -4  11    4.09    0.23 
   5   3 -11    0.04    0.05 
   5   3 -11    0.03    0.04 
   5   3 -11    0.08    0.07 
   4   3 -11    4.72    0.29 
   4   3 -11    4.68    0.27 
   4   3 -11    4.69    0.28 
   4   3 -11    4.64    0.25 
  -4  -3  11    4.89    0.25 
   3   3 -11   14.16    0.70 
   3   3 -11   14.33    0.70 
   3   3 -11   14.58    0.72 
   3   3 -11   14.28    0.68 
  -3  -3  11   14.47    0.67 
   2   3 -11    0.18    0.09 
   2   3 -11    0.27    0.07 
   2   3 -11    0.24    0.08 
   2   3 -11    0.20    0.20 
   2   3 -11    0.19    0.07 
   2   3 -11    0.18    0.11 
  -2  -3  11    0.41    0.20 
  -2  -3  11    0.24    0.06 
   1   3 -11   14.14    0.91 
   1   3 -11   15.54    0.71 
   1   3 -11   14.59    0.70 
   1   3 -11   15.70    0.69 
   1   3 -11   13.15    0.69 
   1   3 -11   14.69    0.70 
  -1  -3  11   16.39    0.90 
  -1  -3  11   12.87    0.69 
  -1  -3  11   15.47    0.68 
   0   3 -11    0.62    0.24 
   0   3 -11    0.89    0.12 
   0  -3  11    0.85    0.12 
   0  -3  11    1.04    0.13 
   0  -3  11    1.04    0.11 
   0  -3  11    0.89    0.20 
  -1   3 -11    0.02    0.06 
  -1   3 -11   -0.03    0.06 
  -1   3 -11    0.02    0.09 
   1  -3  11    0.01    0.12 
   1  -3  11   -0.10    0.08 
   1  -3  11    0.04    0.06 
  -2   3 -11    0.12    0.07 
  -2   3 -11    0.15    0.11 
  -2   3 -11    0.07    0.06 
   2  -3  11    0.13    0.07 
   2  -3  11    0.12    0.09 
   2  -3  11    0.12    0.11 
  -3   3 -11    0.08    0.07 
  -3   3 -11    0.04    0.04 
  -3   3 -11   -0.01    0.07 
   3  -3  11    0.05    0.11 
   3  -3  11    0.07    0.08 
   3  -3  11    0.08    0.07 
   3  -3  11    0.08    0.07 
   3  -3  11    0.05    0.08 
  -4   3 -11    7.43    0.35 
  -4   3 -11    6.62    0.37 
   4  -3  11    6.94    0.37 
   4  -3  11    7.63    0.45 
   4  -3  11    6.70    0.39 
   4  -3  11    6.66    0.38 
   4  -3  11    6.54    0.35 
   4  -3  11    7.66    0.40 
  -5   3 -11    2.49    0.16 
  -5   3 -11    2.54    0.16 
   5  -3  11    2.42    0.17 
   5  -3  11    2.44    0.17 
   5  -3  11    2.71    0.15 
   5  -3  11    2.90    0.18 
   5   2 -11    0.02    0.05 
   5   2 -11    0.03    0.06 
   5   2 -11   -0.01    0.07 
   5   2 -11   -0.02    0.05 
   4   2 -11    8.70    0.46 
   4   2 -11    8.75    0.45 
   4   2 -11    8.64    0.44 
   4   2 -11    8.36    0.42 
  -4  -2  11    8.50    0.42 
   3   2 -11   34.20    1.54 
   3   2 -11   33.54    1.51 
   3   2 -11   32.96    1.53 
   3   2 -11   35.12    1.55 
  -3  -2  11   32.45    1.51 
   2   2 -11   16.24    0.76 
   2   2 -11   16.57    0.77 
   2   2 -11   16.02    0.76 
   2   2 -11   15.41    0.77 
   2   2 -11   14.20    0.73 
   2   2 -11   16.45    0.74 
  -2  -2  11   16.89    0.99 
  -2  -2  11   16.47    0.74 
  -2  -2  11   14.42    0.76 
   1   2 -11   26.88    1.18 
   1   2 -11   26.16    1.19 
   1   2 -11   26.15    1.16 
   1   2 -11   23.63    1.37 
   1   2 -11   25.16    1.17 
  -1  -2  11   26.67    1.36 
  -1  -2  11   25.57    1.16 
  -1  -2  11   25.22    1.21 
   0   2 -11  115.08    4.98 
   0  -2  11  113.97    4.97 
   0  -2  11   99.76    4.78 
  -1   2 -11    0.27    0.07 
  -1   2 -11    0.34    0.10 
   1  -2  11    0.23    0.09 
   1  -2  11    0.30    0.14 
  -2   2 -11    3.47    0.18 
  -2   2 -11    3.34    0.20 
  -2   2 -11    3.24    0.25 
   2  -2  11    3.62    0.23 
   2  -2  11    3.38    0.30 
   2  -2  11    3.29    0.33 
   2  -2  11    3.24    0.21 
   2  -2  11    2.76    0.21 
  -3   2 -11   14.66    0.73 
  -3   2 -11   16.77    0.72 
   3  -2  11   15.17    0.77 
   3  -2  11   14.86    0.75 
   3  -2  11   15.05    0.73 
   3  -2  11   17.30    0.85 
   3  -2  11   15.81    0.76 
  -4   2 -11    6.05    0.30 
   4  -2  11    5.79    0.36 
   4  -2  11    6.20    0.36 
   4  -2  11    6.48    0.42 
   4  -2  11    5.89    0.34 
   4  -2  11    5.75    0.33 
  -5   2 -11    1.46    0.12 
  -5   2 -11    1.49    0.13 
   5  -2  11    1.71    0.19 
   5  -2  11    1.55    0.14 
   5  -2  11    1.86    0.15 
   5  -2  11    1.58    0.12 
   5  -2  11    1.54    0.15 
   5   1 -11    0.02    0.06 
   5   1 -11    0.01    0.05 
   5   1 -11    0.06    0.05 
   4   1 -11   22.08    1.00 
   4   1 -11   21.35    1.02 
   4   1 -11   21.56    1.03 
   4   1 -11   22.19    1.02 
  -4  -1  11   22.09    1.00 
   3   1 -11   15.12    0.69 
   3   1 -11   14.78    0.71 
   3   1 -11   14.78    0.71 
   3   1 -11   13.64    0.69 
   3   1 -11   14.90    0.73 
  -3  -1  11   14.43    0.70 
   2   1 -11    0.42    0.10 
   2   1 -11    0.31    0.20 
   2   1 -11    0.72    0.11 
   2   1 -11    0.55    0.10 
   2   1 -11    0.53    0.09 
   2   1 -11    0.30    0.09 
  -2  -1  11    0.48    0.09 
  -2  -1  11    0.64    0.22 
   1   1 -11    5.18    0.45 
   1   1 -11    6.06    0.31 
  -1  -1  11    6.54    0.48 
  -1  -1  11    5.66    0.30 
   0   1 -11    1.05    0.21 
   0  -1  11    0.59    0.09 
   0  -1  11    0.80    0.18 
  -1   1 -11    1.00    0.13 
   1  -1  11    0.81    0.17 
   1  -1  11    0.94    0.17 
  -2   1 -11   -0.01    0.03 
  -2   1 -11    0.16    0.07 
  -2   1 -11    0.00    0.08 
   2  -1  11   -0.01    0.11 
   2  -1  11    0.04    0.07 
   2  -1  11    0.04    0.08 
   2  -1  11   -0.02    0.07 
   2  -1  11    0.04    0.12 
  -3   1 -11    3.24    0.36 
  -3   1 -11    3.27    0.17 
  -3   1 -11    2.74    0.20 
   3  -1  11    2.42    0.33 
   3  -1  11    2.63    0.20 
   3  -1  11    3.29    0.23 
   3  -1  11    3.83    0.31 
   3  -1  11    2.65    0.23 
   3  -1  11    3.21    0.26 
  -4   1 -11    1.24    0.14 
  -4   1 -11    1.50    0.11 
   4  -1  11    1.63    0.18 
   4  -1  11    1.65    0.16 
   4  -1  11    1.48    0.14 
   4  -1  11    1.52    0.17 
   4  -1  11    1.74    0.23 
  -5   1 -11    8.82    0.46 
  -5   1 -11    9.51    0.43 
   5  -1  11    8.77    0.45 
   5  -1  11    8.96    0.45 
   5  -1  11    9.35    0.52 
   5  -1  11    8.67    0.48 
   5  -1  11    9.37    0.48 
   5   0 -11    0.42    0.08 
   5   0 -11    0.33    0.07 
   5   0 -11    0.41    0.06 
   4   0 -11   11.05    0.58 
   4   0 -11   12.82    0.59 
   4   0 -11   12.12    0.62 
   4   0 -11   12.44    0.61 
   4   0 -11   12.96    0.61 
  -4   0  11   12.02    0.60 
   3   0 -11    1.63    0.17 
   3   0 -11    1.65    0.15 
   3   0 -11    1.60    0.16 
   3   0 -11    1.63    0.15 
   3   0 -11    1.47    0.16 
  -3   0  11    1.38    0.16 
   2   0 -11   48.75    2.09 
   2   0 -11   48.44    2.08 
   2   0 -11   41.20    2.32 
   2   0 -11   45.86    2.09 
   2   0 -11   50.23    2.11 
   2   0 -11   43.53    2.07 
  -2   0  11   49.69    2.38 
  -2   0  11   45.80    2.09 
   1   0 -11   35.18    1.82 
  -1   0  11   35.40    1.64 
  -1   0  11   39.33    1.84 
   0   0 -11    8.01    0.51 
   0   0  11    7.20    0.47 
   0   0  11    7.80    0.50 
  -1   0 -11    0.16    0.08 
  -1   0 -11    0.40    0.15 
   1   0  11    0.23    0.11 
  -2   0 -11   23.85    1.02 
  -2   0 -11   23.23    1.04 
  -2   0 -11   24.12    1.10 
   2   0  11   21.87    1.05 
   2   0  11   23.09    1.19 
   2   0  11   21.55    1.06 
   2   0  11   21.85    1.12 
  -3   0 -11   12.93    0.63 
  -3   0 -11   12.96    0.70 
  -3   0 -11   13.43    0.60 
   3   0  11   13.05    0.64 
   3   0  11   13.35    0.73 
   3   0  11   13.89    0.73 
   3   0  11   12.30    0.80 
   3   0  11   12.84    0.66 
   3   0  11   13.24    0.69 
   3   0  11   12.26    0.63 
  -4   0 -11   27.57    1.31 
  -4   0 -11   30.05    1.29 
   4   0  11   28.26    1.38 
   4   0  11   30.14    1.44 
   4   0  11   30.21    1.36 
   4   0  11   27.98    1.32 
   4   0  11   27.71    1.32 
  -5   0 -11    0.30    0.05 
   5   0  11    0.27    0.09 
   5   0  11    0.31    0.13 
   5   0  11    0.31    0.07 
   5   0  11    0.36    0.09 
   5   0  11    0.29    0.09 
   5  -1 -11    0.87    0.09 
   5  -1 -11    0.69    0.10 
   5  -1 -11    0.66    0.08 
   4  -1 -11   11.31    0.55 
   4  -1 -11   12.01    0.59 
   4  -1 -11   10.46    0.55 
   4  -1 -11   12.10    0.57 
   4  -1 -11   11.86    0.58 
  -4   1  11   10.81    0.57 
   3  -1 -11    3.39    0.25 
   3  -1 -11    3.21    0.22 
   3  -1 -11    3.68    0.23 
   3  -1 -11    3.30    0.23 
   3  -1 -11    3.58    0.22 
  -3   1  11    3.09    0.24 
   2  -1 -11    0.21    0.07 
   2  -1 -11    0.06    0.09 
   2  -1 -11    0.06    0.17 
   2  -1 -11    0.18    0.07 
   2  -1 -11    0.12    0.07 
   2  -1 -11    0.15    0.07 
  -2   1  11    0.01    0.21 
  -2   1  11    0.03    0.08 
  -1   1  11  106.39    4.89 
  -1   1  11  114.78    4.96 
  -1   1  11  102.38    4.73 
   0  -1 -11    2.34    0.26 
   0   1  11    2.20    0.25 
   0   1  11    2.33    0.25 
  -1  -1 -11   15.68    0.80 
  -1  -1 -11   17.64    0.91 
   1   1  11   17.41    0.90 
  -2  -1 -11    2.59    0.15 
  -2  -1 -11    2.96    0.22 
   2   1  11    2.66    0.29 
  -3  -1 -11    0.92    0.17 
  -3  -1 -11    0.92    0.09 
  -3  -1 -11    1.01    0.14 
   3   1  11    0.93    0.15 
   3   1  11    0.81    0.22 
   3   1  11    0.84    0.11 
   3   1  11    0.70    0.15 
   3   1  11    1.05    0.20 
   3   1  11    0.72    0.12 
   3   1  11    1.08    0.20 
  -4  -1 -11    3.95    0.21 
  -4  -1 -11    3.81    0.24 
   4   1  11    3.12    0.34 
   4   1  11    3.41    0.29 
   4   1  11    3.63    0.34 
   4   1  11    3.44    0.24 
   4   1  11    3.49    0.27 
   4   1  11    3.57    0.23 
   5   1  11    0.07    0.08 
   5   1  11    0.13    0.12 
   5   1  11    0.07    0.08 
   5   1  11    0.14    0.08 
   5   1  11    0.18    0.06 
  -6  -1 -11    4.38    0.24 
   6   1  11    4.63    0.25 
   6   1  11    4.87    0.23 
   6   1  11    4.56    0.26 
   6   1  11    4.18    0.28 
   5  -2 -11    4.47    0.28 
   5  -2 -11    4.61    0.26 
   5  -2 -11    4.73    0.24 
   5  -2 -11    4.86    0.27 
   4  -2 -11    1.28    0.15 
   4  -2 -11    1.58    0.13 
   4  -2 -11    1.40    0.14 
   4  -2 -11    1.15    0.15 
   4  -2 -11    1.48    0.14 
  -4   2  11    1.51    0.17 
   3  -2 -11   33.64    1.62 
   3  -2 -11   37.89    1.67 
   3  -2 -11   37.38    1.64 
   3  -2 -11   38.00    1.68 
   3  -2 -11   37.58    1.66 
   3  -2 -11   36.53    1.64 
  -3   2  11   35.63    1.67 
  -3   2  11   34.68    1.73 
   2  -2 -11   46.08    1.98 
   2  -2 -11   40.37    1.94 
   2  -2 -11   45.81    1.96 
   2  -2 -11   46.42    1.99 
   2  -2 -11   44.07    1.96 
   2  -2 -11   42.99    2.22 
   2  -2 -11   45.63    1.97 
  -2   2  11   40.03    1.99 
  -2   2  11   43.49    2.27 
  -2   2  11   44.43    1.99 
   1  -2 -11    1.32    0.24 
  -1   2  11    1.17    0.14 
  -1   2  11    0.98    0.26 
  -1   2  11    1.23    0.28 
   0  -2 -11   59.05    2.75 
   0   2  11   57.03    2.72 
   0   2  11   60.42    2.75 
  -1  -2 -11    0.76    0.19 
   1   2  11    0.72    0.16 
  -2  -2 -11    8.93    0.61 
  -2  -2 -11    8.51    0.47 
  -2  -2 -11    8.36    0.41 
   2   2  11    9.02    0.58 
  -3  -2 -11    0.29    0.06 
  -3  -2 -11    0.25    0.12 
   3   2  11    0.17    0.14 
   3   2  11    0.27    0.12 
   3   2  11    0.29    0.11 
   3   2  11    0.34    0.08 
   3   2  11    0.20    0.10 
   3   2  11    0.31    0.15 
   3   2  11    0.12    0.15 
  -4  -2 -11    0.88    0.11 
   4   2  11    0.75    0.16 
   4   2  11    0.76    0.12 
   4   2  11    0.78    0.14 
   4   2  11    0.92    0.12 
   4   2  11    1.02    0.21 
   4   2  11    0.60    0.19 
  -5  -2 -11    8.25    0.39 
  -5  -2 -11    7.32    0.41 
   5   2  11    8.76    0.48 
   5   2  11    8.53    0.52 
   5   2  11    7.82    0.45 
   5   2  11    8.04    0.41 
   5   2  11    7.43    0.50 
   6   2  11    0.09    0.10 
   6   2  11    0.01    0.07 
   6   2  11    0.04    0.06 
   6   2  11    0.01    0.05 
   5  -3 -11    2.68    0.15 
   5  -3 -11    2.83    0.19 
   4  -3 -11   19.95    0.88 
   4  -3 -11   19.06    0.89 
   4  -3 -11   17.35    0.84 
   4  -3 -11   18.79    0.86 
   4  -3 -11   19.11    0.86 
  -4   3  11   18.53    0.89 
  -4   3  11   16.54    0.96 
   3  -3 -11   25.13    1.16 
   3  -3 -11   25.41    1.17 
   3  -3 -11   25.31    1.15 
   3  -3 -11   22.31    1.11 
   3  -3 -11   24.92    1.14 
   3  -3 -11   25.75    1.14 
  -3   3  11   23.62    1.18 
  -3   3  11   25.19    1.17 
   2  -3 -11   68.50    3.30 
   2  -3 -11   80.86    3.36 
   2  -3 -11   75.47    3.57 
   2  -3 -11   79.04    3.34 
   2  -3 -11   75.09    3.32 
   2  -3 -11   77.12    3.33 
   2  -3 -11   76.82    3.60 
   2  -3 -11   76.98    3.32 
  -2   3  11   75.90    3.36 
  -2   3  11   69.04    3.61 
  -2   3  11   76.31    3.35 
  -2   3  11   71.33    3.60 
   1  -3 -11   39.49    1.97 
   1  -3 -11   39.19    1.78 
   1  -3 -11   39.05    1.78 
   1  -3 -11   41.71    1.96 
  -1   3  11   41.87    2.03 
  -1   3  11   39.44    2.01 
  -1   3  11   38.04    1.80 
   0  -3 -11   21.32    1.16 
   0   3  11   22.47    1.18 
  -1  -3 -11   73.06    3.44 
   1   3  11   73.76    3.38 
  -2  -3 -11   15.07    0.71 
  -2  -3 -11   14.00    0.64 
  -2  -3 -11   13.19    0.86 
   2   3  11   13.12    0.80 
  -3  -3 -11    0.32    0.13 
  -3  -3 -11    0.27    0.06 
   3   3  11    0.19    0.13 
   3   3  11    0.31    0.08 
   3   3  11    0.36    0.13 
   3   3  11    0.55    0.20 
   3   3  11    0.25    0.11 
   3   3  11    0.34    0.11 
   3   3  11    0.45    0.15 
  -4  -3 -11    9.14    0.45 
   4   3  11    9.15    0.58 
   4   3  11    8.44    0.56 
   4   3  11    9.33    0.52 
   4   3  11    8.63    0.46 
   4   3  11    9.43    0.55 
  -5  -3 -11   26.78    1.18 
  -5  -3 -11   25.62    1.20 
   5   3  11   27.11    1.20 
   5   3  11   26.07    1.29 
   5   3  11   26.13    1.25 
   5   3  11   26.15    1.31 
   5   3  11   25.54    1.27 
   6   3  11    6.57    0.36 
   6   3  11    6.52    0.35 
   6   3  11    6.31    0.38 
   6   3  11    6.55    0.32 
   4  -4 -11    1.27    0.14 
   4  -4 -11    1.26    0.12 
   4  -4 -11    1.45    0.14 
   4  -4 -11    1.24    0.11 
   4  -4 -11    1.41    0.13 
  -4   4  11    1.07    0.17 
  -4   4  11    1.15    0.16 
   3  -4 -11    2.83    0.19 
   3  -4 -11    2.38    0.22 
   3  -4 -11    2.98    0.17 
   3  -4 -11    2.88    0.21 
   3  -4 -11    3.05    0.20 
   3  -4 -11    2.21    0.21 
  -3   4  11    2.56    0.22 
   2  -4 -11    4.42    0.30 
   2  -4 -11    4.36    0.51 
   2  -4 -11    4.75    0.24 
   2  -4 -11    4.39    0.49 
   2  -4 -11    4.52    0.28 
   2  -4 -11    4.69    0.26 
   2  -4 -11    4.36    0.27 
   2  -4 -11    4.77    0.27 
  -2   4  11    4.51    0.30 
  -2   4  11    4.69    0.55 
  -2   4  11    3.93    0.56 
  -2   4  11    4.29    0.32 
   1  -4 -11    7.83    0.38 
   1  -4 -11    7.00    0.36 
   1  -4 -11    7.24    0.38 
   1  -4 -11    7.49    0.54 
   1  -4 -11    7.54    0.55 
   1  -4 -11    7.70    0.40 
  -1   4  11    7.19    0.62 
  -1   4  11    6.67    0.42 
  -1   4  11    7.89    0.60 
  -1   4  11    6.91    0.40 
   0  -4 -11    0.70    0.20 
   0   4  11    0.59    0.22 
  -1  -4 -11    3.00    0.36 
   1   4  11    3.37    0.32 
  -2  -4 -11    1.68    0.30 
  -2  -4 -11    1.30    0.11 
  -2  -4 -11    1.22    0.15 
   2   4  11    1.15    0.14 
   2   4  11    1.60    0.28 
  -3  -4 -11    0.14    0.11 
  -3  -4 -11    0.10    0.05 
   3   4  11    0.17    0.13 
   3   4  11    0.17    0.08 
   3   4  11    0.13    0.13 
   3   4  11    0.21    0.10 
   3   4  11    0.33    0.18 
   3   4  11    0.45    0.14 
  -4  -4 -11    1.68    0.14 
   4   4  11    1.72    0.20 
   4   4  11    2.06    0.27 
   4   4  11    1.82    0.26 
   4   4  11    1.61    0.15 
   4   4  11    1.83    0.23 
  -5  -4 -11    0.42    0.08 
   5   4  11    0.44    0.08 
   5   4  11    0.30    0.12 
   5   4  11    0.57    0.12 
   5   4  11    0.35    0.17 
   5   4  11    0.28    0.15 
   6   4  11    6.93    0.36 
   6   4  11    6.53    0.36 
   6   4  11    6.20    0.39 
   4  -5 -11    9.87    0.46 
   4  -5 -11    9.72    0.48 
   4  -5 -11    9.52    0.49 
   4  -5 -11    9.53    0.45 
   4  -5 -11    9.29    0.46 
  -4   5  11    8.89    0.50 
  -4   5  11    9.48    0.49 
   3  -5 -11   11.86    0.59 
   3  -5 -11   11.89    0.55 
   3  -5 -11   11.92    0.57 
   3  -5 -11   11.24    0.60 
   3  -5 -11   11.72    0.56 
   3  -5 -11   10.85    0.58 
  -3   5  11   11.30    0.62 
  -3   5  11   12.15    0.61 
   2  -5 -11    0.20    0.06 
   2  -5 -11    0.03    0.07 
   2  -5 -11    0.11    0.09 
   2  -5 -11    0.04    0.07 
   2  -5 -11    0.02    0.08 
   2  -5 -11    0.08    0.07 
  -2   5  11    0.01    0.08 
  -2   5  11    0.06    0.11 
   1  -5 -11   18.49    0.84 
   1  -5 -11   17.99    1.05 
   1  -5 -11   18.71    0.85 
   1  -5 -11   18.07    0.83 
   1  -5 -11   19.97    0.93 
   1  -5 -11   17.77    0.87 
  -1   5  11   17.69    1.12 
  -1   5  11   17.20    0.87 
  -1   5  11   17.52    0.89 
   0  -5 -11    4.61    0.44 
   0  -5 -11    4.09    0.25 
   0   5  11    3.62    0.27 
   0   5  11    4.50    0.43 
  -1  -5 -11    0.31    0.19 
   1   5  11    0.17    0.13 
  -2  -5 -11    0.21    0.18 
  -2  -5 -11    0.27    0.06 
   2   5  11    0.26    0.09 
   2   5  11    0.36    0.15 
   2   5  11    0.25    0.15 
   2   5  11    0.33    0.12 
  -3  -5 -11    2.16    0.23 
  -3  -5 -11    2.23    0.14 
  -3  -5 -11    1.51    0.34 
   3   5  11    1.74    0.24 
   3   5  11    2.37    0.25 
   3   5  11    1.87    0.21 
   3   5  11    2.04    0.26 
   3   5  11    1.87    0.33 
   3   5  11    1.78    0.17 
  -4  -5 -11   12.42    0.60 
   4   5  11   12.51    0.62 
   4   5  11   13.50    0.74 
   4   5  11   12.56    0.71 
   4   5  11   12.91    0.71 
   4   5  11   12.21    0.67 
  -5  -5 -11   20.20    0.92 
   5   5  11   19.62    0.99 
   5   5  11   19.77    1.05 
   5   5  11   20.47    1.03 
   5   5  11   20.21    1.02 
   5   5  11   20.60    0.93 
  -6  -5 -11    0.34    0.08 
   6   5  11    0.23    0.08 
   6   5  11    0.45    0.09 
   6   5  11    0.19    0.14 
   6   5  11    0.32    0.11 
   4  -6 -11    0.48    0.07 
   4  -6 -11    0.55    0.08 
   4  -6 -11    0.62    0.09 
   4  -6 -11    0.59    0.07 
   4  -6 -11    0.47    0.09 
  -4   6  11    0.53    0.12 
  -4   6  11    0.42    0.10 
   3  -6 -11   17.64    0.81 
   3  -6 -11   16.58    0.82 
   3  -6 -11   16.21    0.78 
   3  -6 -11   16.24    0.77 
   3  -6 -11   16.48    0.78 
  -3   6  11   16.90    0.82 
  -3   6  11   16.58    0.83 
   2  -6 -11   36.53    1.70 
   2  -6 -11   36.86    1.67 
   2  -6 -11   38.93    1.71 
   2  -6 -11   37.27    1.66 
   2  -6 -11   37.72    1.65 
   2  -6 -11   34.84    1.67 
  -2   6  11   38.08    1.73 
  -2   6  11   36.43    1.71 
   1  -6 -11   12.72    0.59 
   1  -6 -11   12.47    0.61 
   1  -6 -11   12.45    0.81 
   1  -6 -11   12.14    0.60 
   1  -6 -11   13.79    0.63 
  -1   6  11   11.97    0.90 
  -1   6  11   12.74    0.63 
  -1   6  11   12.48    0.65 
  -1   6  11   10.88    0.68 
   0  -6 -11   43.82    2.02 
   0  -6 -11   44.08    2.26 
   0  -6 -11   47.65    2.02 
   0   6  11   45.33    2.03 
   0   6  11   45.82    2.26 
   0   6  11   43.03    2.08 
  -1  -6 -11    6.56    0.55 
  -1  -6 -11    5.98    0.33 
   1   6  11    5.93    0.34 
   1   6  11    6.03    0.49 
   1   6  11    6.00    0.40 
  -2  -6 -11    0.37    0.21 
  -2  -6 -11    0.29    0.09 
  -2  -6 -11    0.42    0.07 
   2   6  11    0.16    0.14 
   2   6  11    0.48    0.14 
   2   6  11    0.27    0.12 
   2   6  11    0.48    0.19 
  -3  -6 -11    6.06    0.60 
  -3  -6 -11    7.06    0.34 
  -3  -6 -11    6.75    0.43 
   3   6  11    7.35    0.46 
   3   6  11    6.86    0.44 
   3   6  11    6.36    0.43 
   3   6  11    6.82    0.41 
   3   6  11    6.61    0.37 
   3   6  11    6.21    0.54 
  -4  -6 -11    4.67    0.26 
   4   6  11    4.60    0.36 
   4   6  11    4.40    0.27 
   4   6  11    4.91    0.38 
   4   6  11    4.67    0.38 
   4   6  11    4.78    0.33 
  -5  -6 -11    3.97    0.23 
   5   6  11    3.50    0.27 
   5   6  11    3.95    0.33 
   5   6  11    3.70    0.33 
   5   6  11    4.16    0.31 
  -6  -6 -11    0.26    0.08 
   6   6  11    0.25    0.08 
   6   6  11    0.30    0.09 
   6   6  11    0.16    0.12 
   6   6  11    0.29    0.11 
   4  -7 -11   24.44    1.14 
   4  -7 -11   26.20    1.15 
   4  -7 -11   24.73    1.16 
   4  -7 -11   26.31    1.14 
  -4   7  11   26.04    1.17 
   3  -7 -11   11.59    0.62 
   3  -7 -11   13.30    0.58 
   3  -7 -11   11.68    0.58 
   3  -7 -11   13.06    0.62 
   3  -7 -11   12.55    0.59 
  -3   7  11   12.06    0.64 
  -3   7  11   11.73    0.63 
   2  -7 -11    0.58    0.12 
   2  -7 -11    0.57    0.09 
   2  -7 -11    0.45    0.08 
   2  -7 -11    0.42    0.10 
   2  -7 -11    0.52    0.10 
   2  -7 -11    0.51    0.10 
  -2   7  11    0.53    0.15 
  -2   7  11    0.49    0.12 
  -2   7  11    0.37    0.17 
   1  -7 -11   58.57    2.58 
   1  -7 -11   56.43    2.55 
   1  -7 -11   57.81    2.54 
   1  -7 -11   62.05    2.53 
  -1   7  11   57.52    2.59 
  -1   7  11   53.56    2.63 
  -1   7  11   54.93    2.57 
   0  -7 -11    0.49    0.10 
   0  -7 -11    0.60    0.27 
   0  -7 -11    0.39    0.09 
   0   7  11    0.39    0.25 
   0   7  11    0.39    0.12 
   0   7  11    0.63    0.18 
  -1  -7 -11    2.67    0.40 
  -1  -7 -11    2.79    0.20 
   1   7  11    2.62    0.27 
   1   7  11    2.41    0.20 
   1   7  11    3.00    0.36 
  -2  -7 -11    6.10    0.57 
  -2  -7 -11    6.50    0.32 
  -2  -7 -11    6.39    0.35 
   2   7  11    7.02    0.43 
   2   7  11    6.86    0.53 
   2   7  11    6.04    0.35 
   2   7  11    5.45    0.41 
   2   7  11    6.01    0.38 
  -3  -7 -11   27.98    1.20 
   3   7  11   24.06    1.21 
   3   7  11   26.61    1.29 
   3   7  11   28.03    1.31 
   3   7  11   25.43    1.27 
   3   7  11   26.52    1.29 
  -4  -7 -11    3.11    0.20 
   4   7  11    3.42    0.32 
   4   7  11    3.42    0.31 
   4   7  11    3.18    0.27 
   4   7  11    3.75    0.31 
  -5  -7 -11    6.51    0.32 
   5   7  11    6.28    0.42 
   5   7  11    6.46    0.41 
   5   7  11    5.95    0.38 
   5   7  11    5.82    0.42 
   6   7  11    3.90    0.27 
   6   7  11    3.82    0.23 
   3  -8 -11    1.83    0.12 
   3  -8 -11    1.65    0.16 
   3  -8 -11    1.69    0.15 
   3  -8 -11    1.45    0.13 
   3  -8 -11    1.88    0.15 
  -3   8  11    1.76    0.20 
  -3   8  11    1.34    0.23 
  -3   8  11    1.85    0.19 
   2  -8 -11    0.02    0.08 
   2  -8 -11    0.06    0.08 
   2  -8 -11    0.12    0.06 
   2  -8 -11    0.07    0.09 
   2  -8 -11    0.12    0.07 
  -2   8  11    0.22    0.13 
  -2   8  11    0.14    0.10 
  -2   8  11    0.12    0.15 
   1  -8 -11   62.36    2.80 
   1  -8 -11   61.35    2.78 
   1  -8 -11   63.93    2.75 
  -1   8  11   62.03    2.87 
  -1   8  11   62.55    2.81 
   0  -8 -11   32.87    1.45 
   0  -8 -11   28.16    1.71 
   0  -8 -11   32.69    1.44 
   0   8  11   31.63    1.52 
   0   8  11   31.47    1.45 
  -1  -8 -11    1.49    0.38 
  -1  -8 -11    1.65    0.16 
   1   8  11    1.34    0.16 
   1   8  11    1.55    0.23 
   1   8  11    1.24    0.30 
  -2  -8 -11    0.65    0.11 
  -2  -8 -11    0.48    0.07 
   2   8  11    0.56    0.13 
   2   8  11    0.39    0.11 
   2   8  11    0.64    0.26 
   2   8  11    0.55    0.16 
  -3  -8 -11   18.31    0.81 
  -3  -8 -11   17.01    0.83 
   3   8  11   17.17    0.90 
   3   8  11   17.82    0.89 
   3   8  11   17.64    0.91 
   3   8  11   17.34    0.92 
  -4  -8 -11    5.28    0.29 
   4   8  11    5.38    0.39 
   4   8  11    5.75    0.40 
   4   8  11    5.55    0.39 
   4   8  11    5.56    0.37 
  -5  -8 -11    1.75    0.13 
   5   8  11    1.80    0.21 
   5   8  11    1.75    0.23 
   5   8  11    1.47    0.16 
   5   8  11    1.44    0.22 
   3  -9 -11   18.70    0.84 
   3  -9 -11   18.56    0.86 
   3  -9 -11   18.67    0.87 
  -3   9  11   16.69    0.90 
  -3   9  11   19.90    0.88 
   2  -9 -11    2.21    0.14 
   2  -9 -11    1.90    0.17 
   2  -9 -11    1.55    0.17 
  -2   9  11    1.88    0.21 
  -2   9  11    1.51    0.24 
   1  -9 -11   12.39    0.64 
   1  -9 -11   13.81    0.67 
  -1   9  11   13.28    0.68 
  -1   9  11   13.66    0.75 
   0  -9 -11    1.77    0.17 
   0  -9 -11    2.25    0.19 
   0   9  11    1.80    0.20 
   0   9  11    1.86    0.26 
  -1  -9 -11    4.21    0.26 
  -1  -9 -11    3.97    0.26 
   1   9  11    3.74    0.26 
   1   9  11    3.73    0.34 
  -2  -9 -11    1.05    0.14 
   2   9  11    1.15    0.17 
   2   9  11    0.96    0.19 
  -3  -9 -11    5.68    0.30 
  -3  -9 -11    5.44    0.32 
   3   9  11    5.57    0.40 
   3   9  11    5.75    0.40 
   3   9  11    5.25    0.44 
   3   9  11    5.92    0.37 
  -4  -9 -11    1.39    0.12 
   4   9  11    1.49    0.22 
   4   9  11    1.08    0.19 
   4   9  11    1.16    0.20 
   4   9  11    1.48    0.18 
  -5  -9 -11    0.02    0.05 
   5   9  11    0.00    0.07 
   5   9  11   -0.01    0.11 
   5   9  11   -0.02    0.10 
   5   9  11    0.01    0.10 
   3 -10 -11    9.17    0.48 
   3 -10 -11    8.17    0.42 
  -3  10  11    9.35    0.44 
   2 -10 -11   41.22    1.82 
   2 -10 -11   38.23    1.81 
  -2  10  11   42.38    1.82 
  -2  10  11   38.75    1.87 
   1 -10 -11    3.70    0.24 
   1 -10 -11    2.96    0.21 
  -1  10  11    3.14    0.25 
  -1  10  11    3.24    0.31 
   0 -10 -11    8.25    0.42 
   0 -10 -11    7.39    0.42 
   0  10  11    8.60    0.52 
   0  10  11    6.89    0.42 
  -1 -10 -11    6.88    0.36 
  -1 -10 -11    5.36    0.34 
   1  10  11    6.67    0.44 
   1  10  11    5.61    0.37 
  -2 -10 -11    0.92    0.13 
   2  10  11    0.82    0.15 
   2  10  11    0.89    0.19 
  -3 -10 -11    5.07    0.30 
  -3 -10 -11    4.76    0.27 
   3  10  11    5.29    0.49 
   3  10  11    5.13    0.34 
   3  10  11    5.22    0.38 
  -4 -10 -11    3.02    0.18 
  -4 -10 -11    2.55    0.20 
   4  10  11    2.75    0.26 
   4  10  11    2.54    0.27 
   4  10  11    2.88    0.27 
   4  10  11    2.68    0.23 
  -5 -10 -11    8.08    0.38 
   5  10  11    7.65    0.46 
   5  10  11    8.26    0.44 
   5  10  11    7.60    0.45 
   5  10  11    7.85    0.43 
   2 -11 -11    4.65    0.34 
   2 -11 -11    5.19    0.28 
  -2  11  11    5.05    0.29 
  -2  11  11    5.40    0.35 
   1 -11 -11   26.06    1.18 
  -1  11  11   24.87    1.16 
  -1  11  11   24.99    1.24 
   0 -11 -11    1.45    0.15 
   0 -11 -11    1.64    0.16 
   0  11  11    1.78    0.24 
  -1 -11 -11    7.33    0.41 
  -1 -11 -11    7.97    0.42 
   1  11  11    7.69    0.49 
   1  11  11    7.48    0.43 
  -2 -11 -11    8.12    0.44 
   2  11  11    8.71    0.48 
   2  11  11    8.20    0.51 
  -3 -11 -11    6.81    0.37 
   3  11  11    7.33    0.41 
   3  11  11    6.34    0.44 
  -4 -11 -11    2.72    0.17 
  -4 -11 -11    2.52    0.19 
   4  11  11    2.14    0.24 
   4  11  11    3.06    0.22 
   4  11  11    2.77    0.27 
   4  11  11    2.77    0.25 
   5  11  11    5.28    0.37 
   5  11  11    6.60    0.34 
   5  11  11    6.27    0.37 
   1 -12 -11    2.73    0.19 
  -1  12  11    2.73    0.25 
   0 -12 -11    0.43    0.09 
   0 -12 -11    0.53    0.10 
   0  12  11    0.42    0.14 
  -1 -12 -11    1.84    0.17 
  -1 -12 -11    2.13    0.18 
   1  12  11    1.92    0.19 
   1  12  11    2.29    0.24 
  -2 -12 -11    1.18    0.14 
   2  12  11    1.02    0.18 
   2  12  11    1.00    0.16 
  -3 -12 -11    0.08    0.07 
   3  12  11    0.03    0.12 
   3  12  11    0.06    0.08 
  -4 -12 -11    0.28    0.08 
   4  12  11    0.33    0.09 
   4  12  11    0.36    0.12 
   1 -13 -11    4.15    0.23 
  -1  13  11    3.71    0.27 
   0 -13 -11    7.53    0.39 
   0 -13 -11    6.96    0.37 
   0  13  11    8.06    0.44 
  -1 -13 -11    5.93    0.33 
  -1 -13 -11    5.89    0.33 
   1  13  11    6.41    0.39 
   1  13  11    6.44    0.36 
  -2 -13 -11    0.42    0.09 
   2  13  11    0.37    0.12 
   2  13  11    0.46    0.10 
  -3 -13 -11    0.12    0.07 
   3  13  11    0.05    0.12 
   3  13  11    0.11    0.08 
   4  13  11    4.92    0.28 
   0  14  11    5.72    0.36 
  -1 -14 -11    5.94    0.32 
  -1 -14 -11    6.60    0.33 
   1  14  11    6.47    0.37 
  -2 -14 -11    0.20    0.08 
   2  14  11    0.21    0.08 
   2  14  11    0.13    0.11 
  -3 -14 -11    0.00    0.07 
   2  10 -12    7.49    0.35 
  -2 -10  12    6.14    0.34 
   1  10 -12    0.11    0.07 
  -1 -10  12    0.12    0.06 
   0  10 -12    0.49    0.08 
   0 -10  12    0.40    0.06 
   0 -10  12    0.60    0.08 
  -1  10 -12    0.61    0.09 
   1 -10  12    0.70    0.08 
   3   9 -12    0.02    0.04 
   3   9 -12    0.04    0.07 
  -3  -9  12    0.03    0.04 
  -3  -9  12    0.07    0.05 
   2   9 -12    3.80    0.22 
   2   9 -12    4.32    0.24 
  -2  -9  12    3.86    0.23 
   1   9 -12    2.90    0.20 
  -1  -9  12    2.72    0.19 
  -1  -9  12    2.74    0.17 
   0   9 -12    9.39    0.48 
   0   9 -12   10.18    0.48 
   0  -9  12    9.98    0.47 
   0  -9  12    9.14    0.48 
  -1   9 -12    0.01    0.06 
   1  -9  12    0.06    0.06 
   1  -9  12    0.04    0.05 
  -2   9 -12    0.06    0.05 
   2  -9  12    0.09    0.05 
   3   8 -12   13.77    0.65 
   3   8 -12   13.71    0.64 
   3   8 -12   12.34    0.63 
  -3  -8  12   14.36    0.65 
   2   8 -12    4.34    0.26 
   2   8 -12    4.91    0.29 
  -2  -8  12    5.15    0.28 
  -2  -8  12    4.93    0.26 
   1   8 -12    1.19    0.14 
  -1  -8  12    1.04    0.12 
  -1  -8  12    1.01    0.13 
   0   8 -12   24.26    1.10 
   0   8 -12   22.01    1.09 
   0  -8  12   23.79    1.10 
   0  -8  12   25.15    1.09 
  -1   8 -12   10.74    0.54 
  -1   8 -12   10.77    0.53 
   1  -8  12   11.46    0.52 
   1  -8  12    9.92    0.52 
  -2   8 -12    1.72    0.14 
   2  -8  12    1.81    0.13 
  -3   8 -12   11.81    0.56 
   4   7 -12    3.80    0.21 
   4   7 -12    3.76    0.21 
   4   7 -12    3.67    0.21 
  -4  -7  12    3.74    0.21 
   3   7 -12    1.69    0.13 
   3   7 -12    1.66    0.16 
   3   7 -12    1.55    0.14 
   3   7 -12    1.57    0.15 
  -3  -7  12    1.47    0.11 
  -3  -7  12    1.64    0.14 
   2   7 -12    0.10    0.08 
   2   7 -12    0.00    0.05 
   2   7 -12    0.03    0.07 
   2   7 -12   -0.02    0.08 
  -2  -7  12    0.00    0.05 
  -2  -7  12    0.06    0.07 
  -2  -7  12    0.01    0.06 
   1   7 -12   15.08    0.71 
   1   7 -12   14.88    0.72 
  -1  -7  12   14.19    0.68 
  -1  -7  12   13.76    0.70 
   0   7 -12    1.40    0.15 
   0   7 -12    1.24    0.14 
   0  -7  12    1.19    0.14 
   0  -7  12    1.35    0.13 
  -1   7 -12    1.11    0.14 
  -1   7 -12    0.97    0.12 
   1  -7  12    0.94    0.11 
   1  -7  12    0.69    0.11 
  -2   7 -12    0.44    0.09 
   2  -7  12    0.34    0.07 
  -3   7 -12    0.06    0.05 
   3  -7  12   -0.01    0.07 
   3  -7  12    0.04    0.05 
   4   6 -12    0.03    0.04 
   4   6 -12    0.01    0.05 
   4   6 -12    0.03    0.05 
  -4  -6  12    0.04    0.04 
   3   6 -12    0.06    0.06 
   3   6 -12    0.08    0.08 
   3   6 -12    0.08    0.06 
   3   6 -12    0.01    0.05 
  -3  -6  12    0.01    0.05 
  -3  -6  12    0.07    0.06 
   2   6 -12   11.61    0.61 
   2   6 -12   12.16    0.60 
   2   6 -12   11.56    0.60 
   2   6 -12   12.66    0.62 
  -2  -6  12   13.48    0.58 
  -2  -6  12   11.97    0.58 
   1   6 -12    1.81    0.17 
   1   6 -12    1.82    0.17 
  -1  -6  12    1.56    0.14 
  -1  -6  12    1.65    0.17 
   0   6 -12    3.72    0.25 
   0   6 -12    4.13    0.25 
   0  -6  12    3.85    0.25 
   0  -6  12    4.20    0.24 
  -1   6 -12    0.93    0.13 
  -1   6 -12    0.88    0.12 
   1  -6  12    1.13    0.12 
   1  -6  12    0.65    0.11 
  -2   6 -12    0.05    0.06 
  -2   6 -12   -0.07    0.11 
   2  -6  12    0.08    0.09 
   2  -6  12    0.05    0.06 
  -3   6 -12    0.05    0.06 
   3  -6  12    0.09    0.07 
   3  -6  12    0.07    0.06 
  -4   6 -12    0.18    0.06 
   4  -6  12    0.15    0.05 
   4  -6  12    0.09    0.05 
   4   5 -12   22.84    1.03 
   4   5 -12   21.93    1.03 
   4   5 -12   21.07    1.03 
  -4  -5  12   24.10    1.01 
   3   5 -12    0.09    0.06 
   3   5 -12    0.04    0.09 
   3   5 -12    0.05    0.05 
   3   5 -12    0.08    0.07 
   3   5 -12    0.10    0.07 
  -3  -5  12    0.07    0.05 
  -3  -5  12    0.06    0.06 
   2   5 -12   49.53    2.27 
   2   5 -12   51.60    2.29 
   2   5 -12   50.50    2.31 
   2   5 -12   50.28    2.29 
   2   5 -12   54.26    2.31 
  -2  -5  12   51.43    2.27 
  -2  -5  12   51.32    2.27 
   1   5 -12   64.52    2.85 
   1   5 -12   64.31    2.86 
  -1  -5  12   64.94    2.82 
  -1  -5  12   62.03    2.82 
   0   5 -12    0.29    0.08 
   0   5 -12    0.13    0.09 
   0  -5  12    0.20    0.07 
   0  -5  12    0.25    0.09 
  -1   5 -12   10.36    0.52 
  -1   5 -12   10.01    0.52 
   1  -5  12   10.61    0.54 
   1  -5  12   11.02    0.52 
  -2   5 -12   14.10    0.69 
  -2   5 -12   14.65    0.70 
   2  -5  12   14.36    0.71 
   2  -5  12   14.67    0.69 
  -3   5 -12    6.15    0.34 
   3  -5  12    6.16    0.35 
   3  -5  12    6.26    0.33 
  -4   5 -12    0.72    0.10 
  -4   5 -12    0.61    0.09 
   4  -5  12    0.46    0.08 
   4  -5  12    0.43    0.06 
   4  -5  12    0.66    0.09 
   4   4 -12    0.11    0.07 
   4   4 -12    0.11    0.06 
   4   4 -12    0.16    0.06 
   4   4 -12    0.11    0.07 
  -4  -4  12    0.16    0.06 
  -4  -4  12    0.14    0.05 
   3   4 -12    7.36    0.38 
   3   4 -12    7.74    0.42 
   3   4 -12    7.78    0.41 
   3   4 -12    7.67    0.41 
   3   4 -12    7.32    0.42 
  -3  -4  12    8.13    0.38 
  -3  -4  12    7.62    0.38 
   2   4 -12    3.61    0.25 
   2   4 -12    3.89    0.27 
   2   4 -12    4.17    0.23 
   2   4 -12    3.89    0.27 
   2   4 -12    3.48    0.25 
  -2  -4  12    4.47    0.23 
  -2  -4  12    4.14    0.23 
   1   4 -12   11.25    0.58 
   1   4 -12   11.54    0.55 
   1   4 -12   11.76    0.57 
   1   4 -12   11.36    0.60 
  -1  -4  12   11.23    0.54 
  -1  -4  12   11.50    0.55 
   0   4 -12    1.41    0.17 
   0   4 -12    1.41    0.14 
   0  -4  12    0.98    0.14 
   0  -4  12    1.38    0.13 
   0  -4  12    1.26    0.15 
   0  -4  12    1.42    0.26 
  -1   4 -12    1.03    0.19 
  -1   4 -12    0.93    0.12 
  -1   4 -12    1.11    0.13 
   1  -4  12    1.24    0.12 
   1  -4  12    1.43    0.28 
   1  -4  12    1.00    0.14 
  -2   4 -12    0.27    0.08 
  -2   4 -12    0.15    0.08 
   2  -4  12    0.21    0.07 
   2  -4  12    0.08    0.09 
  -3   4 -12    1.67    0.15 
   3  -4  12    1.36    0.17 
   3  -4  12    1.64    0.14 
   3  -4  12    1.57    0.16 
  -4   4 -12    0.46    0.08 
   4  -4  12    0.51    0.09 
   4  -4  12    0.33    0.06 
   4  -4  12    0.37    0.07 
   4  -4  12    0.35    0.08 
   4   3 -12    0.22    0.06 
   4   3 -12    0.10    0.06 
   4   3 -12    0.15    0.07 
   4   3 -12    0.13    0.06 
  -4  -3  12    0.18    0.05 
   3   3 -12    1.55    0.15 
   3   3 -12    1.24    0.15 
   3   3 -12    1.38    0.14 
   3   3 -12    1.35    0.13 
  -3  -3  12    1.42    0.12 
   2   3 -12   18.45    0.88 
   2   3 -12   19.18    0.89 
   2   3 -12   17.87    0.88 
   2   3 -12   18.25    0.89 
   2   3 -12   18.90    0.86 
  -2  -3  12   19.10    0.86 
   1   3 -12    0.88    0.10 
   1   3 -12    0.45    0.22 
   1   3 -12    0.70    0.11 
   1   3 -12    0.67    0.11 
   1   3 -12    0.71    0.12 
  -1  -3  12    0.57    0.11 
  -1  -3  12    0.88    0.10 
  -1  -3  12    0.93    0.23 
  -1  -3  12    0.79    0.09 
   0   3 -12    0.18    0.07 
   0   3 -12    0.15    0.09 
   0  -3  12    0.10    0.09 
   0  -3  12    0.15    0.13 
   0  -3  12    0.16    0.06 
  -1   3 -12    0.61    0.09 
  -1   3 -12    0.56    0.14 
  -1   3 -12    0.55    0.09 
   1  -3  12    0.72    0.21 
   1  -3  12    0.70    0.11 
   1  -3  12    0.65    0.09 
  -2   3 -12   15.55    0.73 
  -2   3 -12   15.81    0.74 
   2  -3  12   16.51    0.82 
   2  -3  12   14.90    0.76 
   2  -3  12   15.20    0.73 
  -3   3 -12    3.38    0.21 
  -3   3 -12    3.19    0.22 
  -3   3 -12    3.94    0.24 
   3  -3  12    3.72    0.23 
   3  -3  12    3.86    0.25 
   3  -3  12    3.49    0.23 
   3  -3  12    3.67    0.26 
   3  -3  12    4.42    0.32 
  -4   3 -12    6.47    0.35 
  -4   3 -12    6.48    0.33 
   4  -3  12    6.39    0.34 
   4  -3  12    6.48    0.36 
   4  -3  12    6.95    0.37 
   4  -3  12    7.23    0.43 
  -5   3 -12    9.81    0.49 
   5  -3  12   11.08    0.50 
   5   2 -12    5.06    0.29 
   4   2 -12    0.30    0.07 
   4   2 -12    0.35    0.07 
   4   2 -12    0.22    0.08 
   4   2 -12    0.23    0.08 
  -4  -2  12    0.31    0.06 
   3   2 -12   18.76    0.89 
   3   2 -12   20.29    0.92 
   3   2 -12   18.99    0.91 
   3   2 -12   19.46    0.93 
  -3  -2  12   19.05    0.89 
   2   2 -12   58.51    2.47 
   2   2 -12   56.73    2.48 
   2   2 -12   59.16    2.50 
   2   2 -12   50.17    2.46 
   2   2 -12   55.88    2.49 
   2   2 -12   53.88    2.48 
  -2  -2  12   52.09    2.48 
  -2  -2  12   58.55    2.47 
   1   2 -12    1.36    0.15 
   1   2 -12    1.05    0.26 
   1   2 -12    1.35    0.12 
   1   2 -12    0.99    0.13 
   1   2 -12    1.39    0.14 
   1   2 -12    1.29    0.14 
  -1  -2  12    1.30    0.11 
  -1  -2  12    1.32    0.15 
  -1  -2  12    1.50    0.29 
   0   2 -12   19.97    0.89 
   0   2 -12   19.40    1.08 
   0   2 -12   19.39    0.89 
   0  -2  12   19.35    0.88 
   0  -2  12   19.44    1.06 
   0  -2  12   18.84    0.90 
  -1   2 -12    3.40    0.21 
  -1   2 -12    3.42    0.26 
   1  -2  12    3.49    0.24 
   1  -2  12    3.51    0.21 
  -2   2 -12    4.89    0.27 
  -2   2 -12    4.77    0.26 
  -2   2 -12    4.71    0.33 
   2  -2  12    4.79    0.35 
   2  -2  12    4.66    0.27 
   2  -2  12    4.56    0.29 
   2  -2  12    4.11    0.27 
  -3   2 -12    0.47    0.09 
  -3   2 -12    0.28    0.06 
   3  -2  12    0.33    0.08 
   3  -2  12    0.44    0.11 
   3  -2  12    0.21    0.09 
   3  -2  12    0.43    0.15 
   3  -2  12    0.33    0.08 
  -4   2 -12    0.13    0.07 
  -4   2 -12    0.06    0.05 
   4  -2  12    0.06    0.06 
   4  -2  12    0.22    0.09 
   4  -2  12    0.08    0.11 
   4  -2  12    0.06    0.07 
   4  -2  12    0.11    0.08 
  -5   2 -12    6.27    0.30 
  -5   2 -12    5.82    0.32 
   5  -2  12    6.11    0.32 
   5  -2  12    6.66    0.33 
   5  -2  12    6.37    0.37 
   5  -2  12    6.45    0.31 
   5  -2  12    5.62    0.32 
   5   1 -12    0.10    0.06 
   5   1 -12    0.07    0.05 
   4   1 -12   40.95    1.80 
   4   1 -12   40.96    1.82 
   4   1 -12   39.45    1.81 
   4   1 -12   39.70    1.83 
  -4  -1  12   40.59    1.80 
   3   1 -12   20.20    0.94 
   3   1 -12   19.75    0.92 
   3   1 -12   19.45    0.92 
   3   1 -12   18.72    0.89 
   3   1 -12   20.58    0.90 
  -3  -1  12   17.32    0.92 
  -3  -1  12   19.65    0.90 
   2   1 -12   34.39    1.65 
   2   1 -12   37.54    1.65 
   2   1 -12   39.01    1.69 
   2   1 -12   37.10    1.67 
   2   1 -12   37.80    1.67 
  -2  -1  12   34.97    1.68 
  -2  -1  12   36.57    1.92 
  -2  -1  12   37.26    1.66 
   1   1 -12   12.49    0.61 
   1   1 -12   12.23    0.59 
   1   1 -12   10.72    0.59 
   1   1 -12   12.65    0.60 
   1   1 -12   11.56    0.77 
   1   1 -12   11.43    0.59 
   1   1 -12   13.27    0.59 
  -1  -1  12   12.47    0.61 
  -1  -1  12   13.87    0.80 
  -1  -1  12   13.00    0.59 
   0   1 -12    4.19    0.38 
   0   1 -12    4.07    0.23 
   0   1 -12    4.23    0.23 
   0  -1  12    3.40    0.21 
   0  -1  12    4.00    0.22 
   0  -1  12    4.18    0.35 
   0  -1  12    3.87    0.24 
  -1   1 -12    5.76    0.43 
  -1   1 -12    6.22    0.31 
   1  -1  12    5.98    0.33 
   1  -1  12    5.47    0.30 
  -2   1 -12    0.71    0.08 
  -2   1 -12    0.82    0.10 
  -2   1 -12    0.88    0.15 
   2  -1  12    0.77    0.12 
   2  -1  12    0.73    0.10 
   2  -1  12    0.69    0.16 
   2  -1  12    0.78    0.10 
   2  -1  12    0.54    0.17 
  -3   1 -12    0.29    0.08 
   3  -1  12    0.33    0.13 
   3  -1  12    0.33    0.10 
   3  -1  12    0.17    0.08 
   3  -1  12    0.28    0.10 
  -4   1 -12    0.03    0.04 
  -4   1 -12    0.06    0.07 
   4  -1  12    0.06    0.12 
   4  -1  12    0.06    0.08 
   4  -1  12    0.01    0.07 
   4  -1  12    0.06    0.06 
   4  -1  12    0.02    0.08 
  -5   1 -12    1.71    0.14 
  -5   1 -12    1.70    0.12 
   5  -1  12    1.75    0.15 
   5  -1  12    1.89    0.13 
   5  -1  12    1.62    0.16 
   5  -1  12    1.76    0.19 
   5  -1  12    1.69    0.14 
   5   0 -12    7.23    0.36 
   4   0 -12    8.98    0.47 
   4   0 -12    9.87    0.51 
   4   0 -12    9.67    0.47 
   4   0 -12   10.36    0.50 
   4   0 -12    9.65    0.49 
  -4   0  12    9.89    0.48 
   3   0 -12   22.93    1.13 
   3   0 -12   25.41    1.15 
   3   0 -12   25.50    1.15 
   3   0 -12   25.57    1.13 
   3   0 -12   24.85    1.17 
  -3   0  12   24.10    1.14 
   2   0 -12   40.88    1.95 
   2   0 -12   43.55    1.96 
   2   0 -12   44.54    1.95 
   2   0 -12   45.11    1.97 
   2   0 -12   44.62    1.98 
  -2   0  12   43.61    1.96 
  -2   0  12   43.69    2.23 
   1   0 -12   66.80    2.95 
   1   0 -12   60.61    2.95 
   1   0 -12   66.28    2.96 
   1   0 -12   70.36    2.94 
   1   0 -12   63.47    3.15 
   1   0 -12   65.24    2.94 
  -1   0  12   71.59    3.17 
  -1   0  12   68.27    2.94 
  -1   0  12   67.96    2.97 
   0   0 -12   85.10    3.96 
   0   0  12   87.93    3.95 
  -1   0 -12    7.50    0.38 
  -1   0 -12    6.98    0.49 
   1   0  12    7.03    0.47 
   1   0  12    7.16    0.38 
  -2   0 -12    0.10    0.10 
  -2   0 -12    0.09    0.07 
   2   0  12    0.12    0.08 
   2   0  12    0.18    0.13 
   2   0  12    0.19    0.07 
   2   0  12    0.06    0.13 
  -3   0 -12   41.28    1.75 
  -3   0 -12   39.64    1.77 
   3   0  12   38.09    1.79 
   3   0  12   38.29    1.79 
   3   0  12   38.91    1.81 
   3   0  12   39.52    1.83 
   3   0  12   40.95    1.88 
  -4   0 -12   33.92    1.56 
  -4   0 -12   35.86    1.54 
   4   0  12   33.49    1.58 
   4   0  12   34.20    1.61 
   4   0  12   34.55    1.59 
   4   0  12   36.79    1.69 
   4   0  12   34.52    1.62 
  -5   0 -12    3.23    0.18 
   5   0  12    3.15    0.21 
   5   0  12    3.25    0.22 
   5   0  12    3.34    0.23 
   5   0  12    3.49    0.28 
   5   0  12    3.00    0.20 
   4  -1 -12    2.63    0.20 
   4  -1 -12    2.85    0.20 
   4  -1 -12    2.55    0.17 
   4  -1 -12    2.62    0.18 
   4  -1 -12    2.50    0.18 
  -4   1  12    2.54    0.19 
   3  -1 -12    6.81    0.37 
   3  -1 -12    7.37    0.39 
   3  -1 -12    6.95    0.38 
   3  -1 -12    7.05    0.40 
   3  -1 -12    7.00    0.37 
  -3   1  12    6.87    0.39 
   2  -1 -12    0.07    0.07 
   2  -1 -12   -0.05    0.06 
   2  -1 -12    0.10    0.08 
   2  -1 -12   -0.01    0.06 
   2  -1 -12    0.05    0.20 
   2  -1 -12   -0.04    0.08 
  -2   1  12    0.05    0.07 
  -2   1  12    0.11    0.23 
   1  -1 -12    5.33    0.32 
   1  -1 -12    6.18    0.32 
   1  -1 -12    6.25    0.32 
   1  -1 -12    5.67    0.35 
   1  -1 -12    6.41    0.32 
   1  -1 -12    6.68    0.50 
  -1   1  12    6.06    0.33 
  -1   1  12    5.60    0.49 
   0  -1 -12   16.67    0.91 
   0   1  12   13.99    0.73 
   0   1  12   17.11    0.88 
   0   1  12   16.57    0.88 
  -1  -1 -12    0.70    0.20 
   1   1  12    0.52    0.15 
  -2  -1 -12   19.18    0.84 
  -2  -1 -12   18.44    0.81 
  -2  -1 -12   19.15    0.89 
   2   1  12   18.25    0.92 
   2   1  12   15.64    0.90 
   2   1  12   18.00    0.84 
   2   1  12   17.23    0.85 
   2   1  12   17.82    0.99 
  -3  -1 -12    0.94    0.13 
  -3  -1 -12    0.88    0.19 
  -3  -1 -12    0.88    0.09 
   3   1  12    0.73    0.13 
   3   1  12    0.86    0.11 
   3   1  12    0.81    0.13 
   3   1  12    0.81    0.16 
   3   1  12    0.67    0.22 
   3   1  12    0.74    0.17 
   3   1  12    0.72    0.18 
  -4  -1 -12    0.65    0.11 
  -4  -1 -12    0.64    0.09 
   4   1  12    0.59    0.13 
   4   1  12    0.83    0.14 
   4   1  12    0.71    0.19 
   4   1  12    0.71    0.17 
   4   1  12    0.54    0.11 
   4   1  12    0.79    0.11 
  -5  -1 -12   14.36    0.64 
  -5  -1 -12   12.91    0.68 
   5   1  12   15.04    0.70 
   5   1  12   13.20    0.70 
   5   1  12   14.55    0.76 
   5   1  12   14.21    0.67 
   5   1  12   13.83    0.67 
   4  -2 -12    5.53    0.29 
   4  -2 -12    4.80    0.30 
   4  -2 -12    5.07    0.28 
   4  -2 -12    5.23    0.28 
   4  -2 -12    4.77    0.30 
  -4   2  12    5.45    0.30 
   3  -2 -12    1.58    0.16 
   3  -2 -12    1.41    0.14 
   3  -2 -12    1.71    0.18 
   3  -2 -12    1.64    0.16 
   3  -2 -12    1.30    0.14 
  -3   2  12    1.50    0.18 
   2  -2 -12   23.25    1.06 
   2  -2 -12   20.05    1.02 
   2  -2 -12   24.97    1.07 
   2  -2 -12   21.26    1.30 
   2  -2 -12   24.41    1.05 
   2  -2 -12   24.53    1.08 
   2  -2 -12   22.99    1.05 
  -2   2  12   21.95    1.35 
  -2   2  12   19.71    1.08 
  -2   2  12   24.67    1.08 
   1  -2 -12    2.47    0.17 
   1  -2 -12    1.68    0.20 
   1  -2 -12    2.31    0.17 
   1  -2 -12    2.43    0.18 
   1  -2 -12    1.80    0.17 
   1  -2 -12    2.49    0.31 
  -1   2  12    1.95    0.21 
  -1   2  12    2.99    0.38 
  -1   2  12    2.34    0.18 
  -1   2  12    2.29    0.37 
   0  -2 -12    0.13    0.14 
   0   2  12   -0.02    0.06 
   0   2  12    0.07    0.13 
  -1  -2 -12    2.92    0.32 
   1   2  12    2.80    0.29 
  -2  -2 -12    2.42    0.21 
  -2  -2 -12    2.18    0.14 
  -2  -2 -12    2.44    0.18 
   2   2  12    2.14    0.17 
   2   2  12    1.76    0.18 
   2   2  12    2.34    0.28 
   2   2  12    2.36    0.27 
  -3  -2 -12    3.85    0.21 
  -3  -2 -12    3.19    0.29 
  -3  -2 -12    3.26    0.24 
   3   2  12    3.20    0.36 
   3   2  12    4.08    0.33 
   3   2  12    3.52    0.33 
   3   2  12    3.41    0.23 
   3   2  12    4.01    0.26 
   3   2  12    4.37    0.31 
   3   2  12    3.45    0.27 
  -4  -2 -12    1.94    0.18 
  -4  -2 -12    2.09    0.14 
   4   2  12    1.94    0.26 
   4   2  12    1.89    0.20 
   4   2  12    1.82    0.26 
   4   2  12    1.77    0.22 
   4   2  12    1.53    0.15 
   4   2  12    1.82    0.18 
  -5  -2 -12    0.08    0.04 
  -5  -2 -12    0.04    0.07 
   5   2  12    0.06    0.11 
   5   2  12    0.10    0.06 
   5   2  12    0.07    0.07 
   5   2  12    0.13    0.09 
   6   2  12    1.51    0.16 
   6   2  12    1.41    0.12 
   6   2  12    1.51    0.13 
   4  -3 -12   14.57    0.68 
   4  -3 -12   14.46    0.71 
   4  -3 -12   14.30    0.68 
   4  -3 -12   14.75    0.70 
  -4   3  12   15.07    0.71 
   3  -3 -12    1.91    0.19 
   3  -3 -12    2.35    0.18 
   3  -3 -12    1.83    0.18 
   3  -3 -12    2.48    0.18 
   3  -3 -12    1.96    0.16 
   3  -3 -12    2.00    0.15 
  -3   3  12    2.09    0.20 
  -3   3  12    2.01    0.23 
   2  -3 -12   47.28    2.12 
   2  -3 -12   42.94    2.08 
   2  -3 -12   46.81    2.10 
   2  -3 -12   47.24    2.10 
   2  -3 -12   49.71    2.14 
   2  -3 -12   49.50    2.11 
  -2   3  12   48.31    2.14 
  -2   3  12   45.23    2.14 
   1  -3 -12   53.42    2.50 
   1  -3 -12   55.39    2.48 
   1  -3 -12   56.15    2.49 
   1  -3 -12   58.46    2.49 
   1  -3 -12   54.55    2.70 
   1  -3 -12   56.21    2.56 
  -1   3  12   57.95    2.75 
  -1   3  12   53.39    2.51 
  -1   3  12   57.18    2.51 
  -1   3  12   58.74    2.76 
   0  -3 -12    0.11    0.15 
   0   3  12    0.01    0.14 
   0   3  12    0.06    0.06 
  -1  -3 -12    6.65    0.52 
   1   3  12    6.68    0.48 
  -2  -3 -12    5.13    0.48 
  -2  -3 -12    5.32    0.26 
  -2  -3 -12    4.77    0.39 
   2   3  12    4.66    0.37 
   2   3  12    4.68    0.40 
   2   3  12    5.15    0.28 
   2   3  12    4.51    0.33 
   2   3  12    4.27    0.29 
  -3  -3 -12   26.06    1.11 
  -3  -3 -12   23.95    1.20 
   3   3  12   25.23    1.17 
   3   3  12   24.95    1.19 
   3   3  12   22.18    1.31 
   3   3  12   24.23    1.13 
   3   3  12   23.83    1.13 
   3   3  12   24.27    1.22 
   3   3  12   25.37    1.23 
  -4  -3 -12    7.07    0.36 
   4   3  12    6.89    0.38 
   4   3  12    7.34    0.49 
   4   3  12    6.77    0.49 
   4   3  12    7.33    0.43 
   4   3  12    6.81    0.44 
  -5  -3 -12    9.45    0.44 
  -5  -3 -12    9.05    0.46 
   5   3  12    8.92    0.46 
   5   3  12    9.46    0.57 
   5   3  12    9.34    0.52 
   5   3  12    9.11    0.55 
   5   3  12    8.86    0.49 
   6   3  12   11.19    0.58 
   6   3  12   11.84    0.56 
   6   3  12   11.38    0.55 
   4  -4 -12    0.13    0.06 
   4  -4 -12    0.07    0.07 
   4  -4 -12    0.12    0.06 
   4  -4 -12    0.05    0.05 
  -4   4  12    0.09    0.11 
  -4   4  12    0.04    0.07 
   3  -4 -12   30.64    1.38 
   3  -4 -12   29.91    1.40 
   3  -4 -12   30.79    1.37 
   3  -4 -12   28.61    1.35 
   3  -4 -12   30.41    1.37 
   3  -4 -12   31.12    1.39 
  -3   4  12   30.38    1.41 
  -3   4  12   29.18    1.41 
   2  -4 -12   23.93    1.09 
   2  -4 -12   23.60    1.11 
   2  -4 -12   24.25    1.13 
   2  -4 -12   24.09    1.09 
   2  -4 -12   23.35    1.07 
   2  -4 -12   23.23    1.10 
  -2   4  12   24.42    1.13 
  -2   4  12   23.11    1.14 
   1  -4 -12    0.13    0.08 
   1  -4 -12    0.11    0.08 
   1  -4 -12    0.13    0.07 
   1  -4 -12    0.05    0.18 
   1  -4 -12    0.10    0.07 
  -1   4  12    0.18    0.24 
  -1   4  12    0.10    0.11 
  -1   4  12    0.21    0.08 
   0  -4 -12   10.25    0.67 
   0  -4 -12    9.75    0.48 
   0  -4 -12    9.91    0.48 
   0   4  12    9.17    0.49 
   0   4  12   10.25    0.68 
   0   4  12    8.96    0.49 
  -1  -4 -12    0.84    0.24 
   1   4  12    0.81    0.11 
   1   4  12    0.62    0.18 
  -2  -4 -12    6.16    0.56 
  -2  -4 -12    6.43    0.32 
   2   4  12    6.41    0.48 
   2   4  12    5.99    0.33 
   2   4  12    5.76    0.42 
   2   4  12    6.31    0.40 
  -3  -4 -12    4.47    0.33 
  -3  -4 -12    4.45    0.24 
   3   4  12    3.75    0.32 
   3   4  12    3.88    0.35 
   3   4  12    4.51    0.26 
   3   4  12    4.47    0.31 
   3   4  12    3.70    0.41 
   3   4  12    4.37    0.36 
  -4  -4 -12    3.60    0.22 
   4   4  12    3.77    0.34 
   4   4  12    3.79    0.28 
   4   4  12    3.34    0.29 
   4   4  12    3.33    0.23 
   4   4  12    3.57    0.34 
  -5  -4 -12    1.13    0.15 
  -5  -4 -12    1.12    0.11 
   5   4  12    1.18    0.21 
   5   4  12    1.16    0.22 
   5   4  12    1.04    0.15 
   5   4  12    1.36    0.18 
   5   4  12    1.19    0.12 
   6   4  12    9.81    0.47 
   6   4  12    9.08    0.47 
   6   4  12    9.10    0.50 
   4  -5 -12    3.13    0.18 
   4  -5 -12    2.97    0.17 
   4  -5 -12    2.71    0.19 
   4  -5 -12    2.98    0.18 
  -4   5  12    2.62    0.22 
  -4   5  12    2.90    0.20 
   3  -5 -12    0.74    0.11 
   3  -5 -12    0.59    0.11 
   3  -5 -12    0.65    0.12 
   3  -5 -12    0.78    0.11 
   3  -5 -12    0.70    0.10 
   3  -5 -12    0.78    0.09 
  -3   5  12    0.64    0.12 
  -3   5  12    0.79    0.16 
   2  -5 -12   12.23    0.60 
   2  -5 -12   12.56    0.58 
   2  -5 -12   11.94    0.60 
   2  -5 -12   12.25    0.63 
   2  -5 -12   12.36    0.62 
   2  -5 -12   12.55    0.59 
  -2   5  12   12.18    0.64 
  -2   5  12   12.15    0.65 
   1  -5 -12    1.87    0.17 
   1  -5 -12    2.10    0.14 
   1  -5 -12    1.75    0.33 
   1  -5 -12    1.73    0.17 
   1  -5 -12    1.87    0.16 
  -1   5  12    1.80    0.39 
  -1   5  12    1.97    0.22 
  -1   5  12    1.80    0.19 
   0  -5 -12    0.04    0.08 
   0  -5 -12   -0.05    0.16 
   0  -5 -12    0.06    0.12 
   0  -5 -12    0.08    0.08 
   0   5  12    0.18    0.10 
   0   5  12    0.07    0.16 
   0   5  12    0.19    0.11 
   0   5  12    0.31    0.21 
  -1  -5 -12    1.05    0.15 
  -1  -5 -12    1.46    0.33 
   1   5  12    1.40    0.14 
   1   5  12    1.58    0.28 
   1   5  12    1.34    0.20 
  -2  -5 -12   57.12    2.81 
  -2  -5 -12   54.76    2.55 
   2   5  12   57.93    2.58 
   2   5  12   58.03    2.72 
   2   5  12   56.81    2.51 
   2   5  12   55.13    2.58 
  -3  -5 -12    9.70    0.60 
  -3  -5 -12   11.07    0.51 
   3   5  12   10.18    0.62 
   3   5  12   11.09    0.59 
   3   5  12   10.37    0.53 
   3   5  12   10.34    0.60 
   3   5  12   11.13    0.63 
  -4  -5 -12    3.18    0.20 
   4   5  12    3.20    0.22 
   4   5  12    3.13    0.32 
   4   5  12    2.99    0.26 
   4   5  12    3.37    0.33 
   4   5  12    3.79    0.30 
  -5  -5 -12   34.58    1.51 
   5   5  12   32.49    1.57 
   5   5  12   33.96    1.62 
   5   5  12   33.64    1.60 
   5   5  12   35.13    1.53 
   5   5  12   33.24    1.63 
   6   5  12    3.90    0.28 
   6   5  12    4.49    0.26 
   6   5  12    4.39    0.25 
   4  -6 -12    4.59    0.24 
   4  -6 -12    4.27    0.25 
   4  -6 -12    4.79    0.24 
   4  -6 -12    4.29    0.23 
  -4   6  12    4.36    0.27 
   3  -6 -12    4.32    0.24 
   3  -6 -12    4.51    0.26 
   3  -6 -12    5.00    0.30 
   3  -6 -12    4.77    0.28 
   3  -6 -12    4.76    0.27 
  -3   6  12    4.64    0.30 
  -3   6  12    4.37    0.32 
   2  -6 -12   25.11    1.20 
   2  -6 -12   25.73    1.17 
   2  -6 -12   26.13    1.19 
   2  -6 -12   27.61    1.23 
   2  -6 -12   25.84    1.22 
   2  -6 -12   26.16    1.18 
  -2   6  12   25.84    1.23 
  -2   6  12   25.99    1.24 
   1  -6 -12    4.63    0.28 
   1  -6 -12    3.71    0.48 
   1  -6 -12    4.29    0.26 
   1  -6 -12    4.86    0.24 
   1  -6 -12    4.52    0.26 
  -1   6  12    4.37    0.31 
  -1   6  12    3.95    0.28 
  -1   6  12    3.23    0.35 
   0  -6 -12   16.61    1.02 
   0  -6 -12   15.20    0.79 
   0  -6 -12   18.37    0.80 
   0  -6 -12   16.61    0.77 
   0   6  12   14.55    0.79 
   0   6  12   17.98    1.05 
   0   6  12   16.38    0.87 
   0   6  12   17.54    0.81 
  -1  -6 -12   17.10    1.06 
  -1  -6 -12   16.67    0.77 
   1   6  12   15.89    0.76 
   1   6  12   16.72    0.84 
   1   6  12   13.71    0.92 
  -2  -6 -12    4.92    0.26 
  -2  -6 -12    4.53    0.29 
  -2  -6 -12    4.82    0.53 
   2   6  12    4.66    0.37 
   2   6  12    4.85    0.35 
   2   6  12    5.20    0.45 
   2   6  12    5.13    0.29 
  -3  -6 -12    4.77    0.26 
   3   6  12    4.72    0.33 
   3   6  12    4.59    0.28 
   3   6  12    4.26    0.34 
   3   6  12    4.97    0.38 
   3   6  12    4.33    0.37 
  -4  -6 -12    0.01    0.05 
   4   6  12    0.05    0.07 
   4   6  12   -0.04    0.14 
   4   6  12    0.07    0.14 
   4   6  12    0.09    0.10 
   4   6  12    0.06    0.09 
  -5  -6 -12   16.74    0.76 
   5   6  12   16.73    0.86 
   5   6  12   15.33    0.86 
   5   6  12   16.81    0.76 
   5   6  12   16.75    0.82 
   5   6  12   15.95    0.84 
   6   6  12    2.39    0.22 
   6   6  12    2.66    0.17 
   6   6  12    2.29    0.21 
   4  -7 -12   14.11    0.70 
   3  -7 -12   15.76    0.69 
   3  -7 -12   14.16    0.73 
   3  -7 -12   16.00    0.71 
   3  -7 -12   14.99    0.72 
   3  -7 -12   14.52    0.70 
  -3   7  12   14.88    0.73 
  -3   7  12   14.66    0.74 
   2  -7 -12    7.81    0.40 
   2  -7 -12    6.39    0.42 
   2  -7 -12    6.85    0.38 
   2  -7 -12    7.51    0.38 
   2  -7 -12    7.48    0.41 
   2  -7 -12    6.87    0.35 
  -2   7  12    7.06    0.41 
  -2   7  12    7.55    0.43 
  -2   7  12    5.96    0.50 
   1  -7 -12   20.10    0.97 
   1  -7 -12   21.13    0.95 
   1  -7 -12   20.32    0.95 
  -1   7  12   20.87    0.99 
  -1   7  12   20.12    1.04 
  -1   7  12   19.65    0.97 
   0  -7 -12    6.10    0.37 
   0  -7 -12    6.89    0.60 
   0  -7 -12    6.85    0.36 
   0   7  12    6.35    0.37 
   0   7  12    6.49    0.61 
   0   7  12    6.46    0.45 
  -1  -7 -12    0.05    0.24 
  -1  -7 -12    0.03    0.08 
   1   7  12    0.07    0.09 
   1   7  12   -0.06    0.16 
   1   7  12    0.18    0.13 
  -2  -7 -12    1.02    0.13 
  -2  -7 -12    0.79    0.12 
  -2  -7 -12    0.78    0.31 
   2   7  12    0.76    0.20 
   2   7  12    1.28    0.20 
   2   7  12    1.36    0.14 
   2   7  12    0.97    0.26 
  -3  -7 -12   11.93    0.56 
   3   7  12   11.42    0.67 
   3   7  12   12.17    0.65 
   3   7  12   11.41    0.62 
   3   7  12   11.39    0.66 
   3   7  12   10.80    0.57 
  -4  -7 -12    0.70    0.11 
   4   7  12    0.64    0.10 
   4   7  12    1.09    0.19 
   4   7  12    0.98    0.19 
   4   7  12    0.91    0.19 
   4   7  12    0.84    0.15 
  -5  -7 -12    0.13    0.06 
   5   7  12    0.17    0.13 
   5   7  12    0.17    0.09 
   5   7  12    0.21    0.12 
   5   7  12    0.15    0.10 
   3  -8 -12   28.30    1.23 
   3  -8 -12   25.03    1.23 
   3  -8 -12   25.92    1.25 
   3  -8 -12   28.52    1.25 
  -3   8  12   29.19    1.27 
  -3   8  12   27.50    1.25 
   2  -8 -12    6.55    0.36 
   2  -8 -12    6.88    0.32 
   2  -8 -12    6.60    0.34 
   2  -8 -12    5.90    0.34 
   2  -8 -12    6.10    0.36 
  -2   8  12    6.58    0.39 
  -2   8  12    6.25    0.37 
  -2   8  12    5.32    0.42 
   1  -8 -12    3.77    0.26 
   1  -8 -12    3.69    0.24 
  -1   8  12    3.73    0.28 
  -1   8  12    4.08    0.35 
   0  -8 -12   17.07    0.89 
   0  -8 -12   19.28    0.88 
   0   8  12   18.67    0.89 
   0   8  12   19.11    0.97 
  -1  -8 -12   10.74    0.53 
   1   8  12   10.19    0.52 
   1   8  12    9.81    0.59 
  -2  -8 -12   17.51    0.83 
   2   8  12   17.32    0.86 
   2   8  12   17.70    0.90 
   2   8  12   16.56    0.81 
  -3  -8 -12   11.09    0.52 
  -3  -8 -12    9.94    0.54 
   3   8  12   10.48    0.54 
   3   8  12   11.27    0.63 
   3   8  12   11.12    0.60 
   3   8  12   11.03    0.63 
  -4  -8 -12   33.61    1.51 
   4   8  12   35.05    1.62 
   4   8  12   31.37    1.61 
   4   8  12   34.17    1.58 
   4   8  12   33.94    1.61 
  -5  -8 -12    8.95    0.42 
   5   8  12    8.71    0.49 
   5   8  12    8.20    0.46 
   5   8  12    8.13    0.50 
   5   8  12    8.99    0.51 
   3  -9 -12    5.78    0.31 
   3  -9 -12    6.02    0.32 
  -3   9  12    6.26    0.33 
   2  -9 -12    6.17    0.33 
   2  -9 -12    5.29    0.33 
  -2   9  12    6.24    0.36 
  -2   9  12    5.29    0.39 
   1  -9 -12    0.95    0.13 
   1  -9 -12    0.98    0.13 
  -1   9  12    1.08    0.20 
  -1   9  12    0.86    0.15 
   0  -9 -12   10.97    0.59 
   0  -9 -12   12.37    0.59 
   0   9  12   11.38    0.59 
   0   9  12   12.17    0.68 
  -1  -9 -12    1.90    0.18 
   1   9  12    1.82    0.25 
   1   9  12    1.82    0.17 
  -2  -9 -12    0.36    0.10 
   2   9  12    0.16    0.09 
   2   9  12    0.24    0.14 
   2   9  12    0.12    0.10 
  -3  -9 -12    1.33    0.13 
  -3  -9 -12    1.18    0.16 
   3   9  12    1.31    0.22 
   3   9  12    1.43    0.21 
   3   9  12    1.30    0.18 
  -4  -9 -12    0.37    0.07 
   4   9  12    0.55    0.16 
   4   9  12    0.39    0.14 
   4   9  12    0.41    0.15 
   4   9  12    0.41    0.11 
  -5  -9 -12    2.44    0.16 
   5   9  12    2.27    0.24 
   5   9  12    2.30    0.21 
   5   9  12    1.90    0.22 
   5   9  12    2.45    0.19 
   2 -10 -12    5.37    0.34 
   2 -10 -12    6.14    0.32 
  -2  10  12    5.92    0.33 
  -2  10  12    5.56    0.38 
   1 -10 -12    4.02    0.26 
   1 -10 -12    3.75    0.24 
  -1  10  12    4.05    0.34 
  -1  10  12    4.03    0.27 
   0 -10 -12    0.49    0.10 
   0 -10 -12    0.65    0.11 
   0  10  12    0.39    0.11 
   0  10  12    0.33    0.15 
  -1 -10 -12    2.20    0.19 
  -1 -10 -12    2.46    0.20 
   1  10  12    2.53    0.27 
   1  10  12    2.18    0.19 
  -2 -10 -12    0.10    0.09 
   2  10  12    0.01    0.12 
   2  10  12    0.02    0.10 
  -3 -10 -12    0.79    0.12 
   3  10  12    0.83    0.14 
   3  10  12    1.11    0.19 
  -4 -10 -12    8.64    0.42 
  -4 -10 -12    8.06    0.48 
   4  10  12    8.05    0.50 
   4  10  12    9.02    0.49 
   4  10  12    9.31    0.52 
   4  10  12    9.06    0.51 
   5  10  12    0.40    0.12 
   5  10  12    0.48    0.11 
   5  10  12    0.35    0.08 
   5  10  12    0.31    0.12 
   2 -11 -12    4.57    0.25 
  -2  11  12    4.62    0.32 
  -2  11  12    4.87    0.26 
   1 -11 -12   20.51    1.00 
   1 -11 -12   22.79    1.03 
  -1  11  12   21.80    1.01 
  -1  11  12   22.91    1.09 
   0 -11 -12    8.80    0.47 
   0 -11 -12    9.51    0.49 
   0  11  12    9.77    0.56 
   0  11  12    8.97    0.47 
  -1 -11 -12    4.81    0.31 
  -1 -11 -12    5.63    0.33 
   1  11  12    5.67    0.39 
  -2 -11 -12    2.24    0.19 
   2  11  12    2.14    0.20 
   2  11  12    2.09    0.24 
  -3 -11 -12    8.27    0.44 
   3  11  12    8.61    0.50 
   3  11  12    8.38    0.47 
  -4 -11 -12    1.02    0.13 
   4  11  12    1.13    0.18 
   4  11  12    1.07    0.14 
   4  11  12    0.92    0.17 
   1 -12 -12    0.02    0.05 
  -1  12  12    0.10    0.11 
   0 -12 -12    1.03    0.12 
   0 -12 -12    1.12    0.13 
   0  12  12    1.18    0.19 
  -1 -12 -12    0.04    0.07 
  -1 -12 -12    0.04    0.08 
   1  12  12    0.07    0.12 
  -2 -12 -12    4.43    0.28 
   2  12  12    4.41    0.29 
   2  12  12    4.72    0.33 
  -3 -12 -12    0.06    0.08 
   3  12  12    0.11    0.11 
   3  12  12    0.10    0.09 
  -4 -12 -12    8.74    0.44 
   4  12  12    9.01    0.48 
   4  12  12    9.19    0.47 
   0 -13 -12    0.04    0.07 
   0 -13 -12    0.03    0.06 
   0  13  12    0.02    0.10 
  -1 -13 -12    0.71    0.10 
  -1 -13 -12    0.42    0.09 
   1  13  12    0.74    0.14 
  -2 -13 -12   13.15    0.63 
   2  13  12   12.66    0.64 
   2  13  12   12.93    0.67 
  -3 -13 -12   11.13    0.54 
   3  13  12   11.01    0.58 
   3  13  12   11.34    0.56 
   1  14  12    2.86    0.22 
  -2 -14 -12   -0.05    0.06 
   2  14  12   -0.03    0.10 
  -1 -10  13    3.71    0.20 
   2   9 -13    3.42    0.20 
  -2  -9  13    2.81    0.19 
   1   9 -13    1.09    0.12 
  -1  -9  13    1.05    0.10 
  -1  -9  13    0.94    0.11 
   0   9 -13    0.65    0.10 
   0   9 -13    0.71    0.10 
   0  -9  13    0.50    0.07 
   0  -9  13    0.67    0.09 
  -1   9 -13    0.27    0.07 
   1  -9  13    0.29    0.05 
  -2   9 -13   -0.01    0.05 
   2  -9  13    0.06    0.04 
   3   8 -13   13.94    0.64 
  -3  -8  13   13.68    0.64 
   2   8 -13   25.04    1.10 
  -2  -8  13   23.21    1.10 
  -2  -8  13   23.58    1.07 
   1   8 -13    2.85    0.19 
  -1  -8  13    2.72    0.17 
  -1  -8  13    2.40    0.18 
   0   8 -13    3.49    0.23 
   0   8 -13    3.85    0.24 
   0  -8  13    3.96    0.22 
   0  -8  13    3.81    0.23 
  -1   8 -13    2.93    0.20 
  -1   8 -13    3.15    0.20 
   1  -8  13    3.44    0.19 
  -2   8 -13    0.92    0.10 
   2  -8  13    0.85    0.09 
   3   7 -13    0.06    0.07 
   3   7 -13    0.01    0.06 
   3   7 -13    0.01    0.04 
   3   7 -13    0.06    0.06 
  -3  -7  13    0.02    0.04 
  -3  -7  13   -0.01    0.06 
   2   7 -13    4.77    0.27 
   2   7 -13    4.22    0.26 
   2   7 -13    4.29    0.25 
  -2  -7  13    4.25    0.23 
  -2  -7  13    4.17    0.26 
   1   7 -13    1.24    0.14 
  -1  -7  13    1.21    0.12 
  -1  -7  13    1.31    0.14 
   0   7 -13    0.79    0.11 
   0   7 -13    0.79    0.11 
   0  -7  13    0.82    0.12 
   0  -7  13    0.64    0.09 
  -1   7 -13    5.68    0.33 
  -1   7 -13    6.30    0.34 
   1  -7  13    6.57    0.33 
  -2   7 -13   15.43    0.75 
   2  -7  13   16.33    0.74 
  -3   7 -13    2.63    0.16 
   3  -7  13    2.54    0.15 
   4   6 -13    1.70    0.12 
   4   6 -13    2.01    0.12 
   4   6 -13    1.73    0.13 
  -4  -6  13    1.73    0.13 
   3   6 -13    0.03    0.05 
   3   6 -13    0.09    0.08 
   3   6 -13    0.05    0.06 
   3   6 -13    0.04    0.06 
  -3  -6  13    0.03    0.06 
  -3  -6  13    0.04    0.04 
   2   6 -13    1.59    0.16 
   2   6 -13    1.66    0.16 
   2   6 -13    1.33    0.14 
   2   6 -13    1.45    0.13 
  -2  -6  13    1.59    0.15 
  -2  -6  13    1.58    0.13 
  -2  -6  13    1.55    0.12 
   1   6 -13    0.94    0.13 
   1   6 -13    1.05    0.14 
  -1  -6  13    0.88    0.13 
  -1  -6  13    0.96    0.11 
   0   6 -13    0.77    0.11 
   0  -6  13    0.51    0.09 
   0  -6  13    0.62    0.09 
  -1   6 -13    7.47    0.42 
  -1   6 -13    8.17    0.42 
   1  -6  13    8.66    0.41 
  -2   6 -13    0.75    0.11 
  -2   6 -13    1.05    0.12 
   2  -6  13    1.21    0.11 
   2  -6  13    1.19    0.15 
  -3   6 -13    0.75    0.10 
   3  -6  13    0.85    0.09 
   3  -6  13    0.47    0.08 
   4   5 -13   10.10    0.48 
   4   5 -13    9.26    0.48 
  -4  -5  13   10.60    0.46 
   3   5 -13    8.66    0.46 
   3   5 -13    9.11    0.48 
   3   5 -13    9.06    0.46 
  -3  -5  13    9.61    0.44 
  -3  -5  13    9.50    0.44 
   2   5 -13    0.11    0.08 
   2   5 -13    0.08    0.09 
   2   5 -13    0.06    0.06 
   2   5 -13    0.10    0.07 
  -2  -5  13    0.10    0.05 
  -2  -5  13    0.20    0.07 
   1   5 -13   21.70    1.02 
   1   5 -13   22.04    1.01 
  -1  -5  13   20.30    0.98 
  -1  -5  13   22.41    0.99 
   0   5 -13    3.51    0.25 
   0   5 -13    3.58    0.23 
   0  -5  13    3.63    0.24 
   0  -5  13    3.73    0.22 
  -1   5 -13   12.83    0.59 
  -1   5 -13   11.40    0.59 
   1  -5  13   11.69    0.61 
   1  -5  13   12.75    0.59 
  -2   5 -13    0.86    0.12 
  -2   5 -13    0.88    0.12 
   2  -5  13    0.65    0.12 
   2  -5  13    0.72    0.10 
  -3   5 -13   10.74    0.53 
   3  -5  13   10.68    0.51 
   3  -5  13   10.62    0.54 
  -4   5 -13    3.96    0.22 
   4  -5  13    4.11    0.22 
   4   4 -13    0.22    0.06 
   4   4 -13    0.17    0.06 
   4   4 -13    0.14    0.06 
   4   4 -13    0.16    0.05 
  -4  -4  13    0.19    0.06 
  -4  -4  13    0.24    0.05 
   3   4 -13   18.48    0.89 
   3   4 -13   18.48    0.88 
   3   4 -13   18.72    0.88 
   3   4 -13   18.74    0.86 
  -3  -4  13   19.02    0.86 
  -3  -4  13   18.98    0.85 
   2   4 -13   11.60    0.60 
   2   4 -13   11.92    0.57 
   2   4 -13   11.04    0.58 
   2   4 -13   11.54    0.58 
   2   4 -13   12.59    0.61 
  -2  -4  13   11.99    0.57 
  -2  -4  13   12.65    0.57 
   1   4 -13    1.01    0.14 
   1   4 -13    1.04    0.14 
  -1  -4  13    0.85    0.10 
  -1  -4  13    0.64    0.10 
   0   4 -13   11.14    0.53 
   0   4 -13   10.71    0.54 
   0  -4  13   10.66    0.54 
   0  -4  13   10.49    0.51 
   0  -4  13   10.07    0.53 
  -1   4 -13    4.09    0.24 
  -1   4 -13    3.78    0.24 
   1  -4  13    4.15    0.24 
   1  -4  13    4.09    0.27 
  -2   4 -13    0.59    0.10 
  -2   4 -13    0.61    0.10 
   2  -4  13    0.45    0.09 
   2  -4  13    0.52    0.11 
  -3   4 -13    2.52    0.21 
  -3   4 -13    2.74    0.19 
   3  -4  13    2.46    0.20 
   3  -4  13    2.65    0.18 
  -4   4 -13    5.14    0.29 
  -4   4 -13    5.42    0.29 
   4  -4  13    5.62    0.29 
   4  -4  13    5.29    0.29 
   4   3 -13   17.05    0.83 
   4   3 -13   17.85    0.82 
   4   3 -13   17.17    0.80 
   4   3 -13   17.21    0.82 
  -4  -3  13   19.00    0.80 
  -4  -3  13   17.91    0.80 
   3   3 -13    0.02    0.06 
   3   3 -13    0.01    0.05 
   3   3 -13   -0.03    0.06 
   3   3 -13    0.05    0.07 
  -3  -3  13    0.01    0.05 
   2   3 -13    7.98    0.42 
   2   3 -13    8.16    0.44 
   2   3 -13    8.21    0.41 
   2   3 -13    8.05    0.43 
   2   3 -13    8.07    0.44 
  -2  -3  13    8.16    0.40 
   1   3 -13   27.24    1.26 
   1   3 -13   29.15    1.26 
   1   3 -13   28.09    1.27 
   1   3 -13   27.71    1.28 
  -1  -3  13   28.39    1.25 
  -1  -3  13   25.34    1.26 
  -1  -3  13   27.95    1.25 
   0   3 -13    9.44    0.47 
   0  -3  13    9.69    0.46 
   0  -3  13    9.10    0.64 
   0  -3  13    9.27    0.48 
  -1   3 -13    4.93    0.28 
   1  -3  13    5.10    0.27 
   1  -3  13    4.94    0.30 
  -2   3 -13   19.67    0.92 
  -2   3 -13   19.75    0.91 
   2  -3  13   19.55    0.91 
   2  -3  13   20.01    0.94 
  -3   3 -13   13.21    0.64 
  -3   3 -13   13.78    0.66 
   3  -3  13   12.69    0.64 
   3  -3  13   13.50    0.67 
   3  -3  13   13.39    0.64 
   3  -3  13   14.55    0.73 
  -4   3 -13    0.20    0.07 
   4  -3  13    0.20    0.06 
   4  -3  13    0.09    0.07 
   4  -3  13    0.17    0.08 
  -5   3 -13    6.18    0.31 
   4   2 -13    9.30    0.48 
   4   2 -13    9.57    0.47 
   4   2 -13    9.18    0.45 
   4   2 -13    9.24    0.47 
  -4  -2  13    9.63    0.45 
   3   2 -13    0.85    0.11 
   3   2 -13    0.75    0.11 
   3   2 -13    0.66    0.11 
   3   2 -13    0.83    0.10 
  -3  -2  13    0.76    0.10 
   2   2 -13    3.11    0.21 
   2   2 -13    2.27    0.28 
   2   2 -13    3.24    0.23 
   2   2 -13    2.98    0.19 
   2   2 -13    2.86    0.20 
  -2  -2  13    2.75    0.23 
  -2  -2  13    3.24    0.19 
   1   2 -13   29.21    1.31 
   1   2 -13   29.06    1.33 
   1   2 -13   29.19    1.30 
   1   2 -13   28.71    1.31 
  -1  -2  13   28.12    1.52 
  -1  -2  13   28.65    1.31 
  -1  -2  13   28.37    1.29 
   0   2 -13    0.17    0.07 
   0   2 -13    0.08    0.22 
   0   2 -13    0.19    0.08 
   0  -2  13    0.42    0.10 
   0  -2  13    0.26    0.07 
   0  -2  13    0.14    0.14 
  -1   2 -13    1.30    0.13 
   1  -2  13    1.51    0.16 
   1  -2  13    1.44    0.13 
  -2   2 -13    9.74    0.48 
  -2   2 -13    9.53    0.47 
   2  -2  13   10.06    0.51 
   2  -2  13    9.61    0.48 
   2  -2  13    9.04    0.55 
  -3   2 -13   31.41    1.39 
  -3   2 -13   31.80    1.41 
  -3   2 -13   32.41    1.43 
   3  -2  13   30.80    1.41 
   3  -2  13   30.26    1.44 
   3  -2  13   29.74    1.40 
   3  -2  13   31.99    1.50 
  -4   2 -13    7.53    0.41 
  -4   2 -13    7.84    0.38 
   4  -2  13    7.91    0.40 
   4  -2  13    8.61    0.49 
   4  -2  13    7.44    0.42 
   4  -2  13    8.22    0.42 
  -5   2 -13    5.71    0.31 
   5  -2  13    5.96    0.31 
   5  -2  13    6.35    0.32 
   5  -2  13    6.28    0.30 
   4   1 -13    9.17    0.45 
   4   1 -13    9.06    0.47 
   4   1 -13    9.86    0.47 
   4   1 -13    9.56    0.48 
  -4  -1  13    9.27    0.45 
   3   1 -13    0.32    0.07 
   3   1 -13    0.21    0.07 
   3   1 -13    0.35    0.09 
   3   1 -13    0.38    0.09 
   3   1 -13    0.34    0.10 
  -3  -1  13    0.31    0.12 
  -3  -1  13    0.33    0.07 
   2   1 -13    0.49    0.09 
   2   1 -13    0.57    0.09 
   2   1 -13    0.39    0.10 
   2   1 -13    0.65    0.09 
   2   1 -13    0.54    0.10 
  -2  -1  13    0.56    0.08 
  -2  -1  13    0.40    0.12 
   1   1 -13   11.57    0.81 
   1   1 -13   13.27    0.63 
   1   1 -13   13.14    0.61 
   1   1 -13   12.25    0.61 
   1   1 -13   13.46    0.61 
  -1  -1  13   12.72    0.60 
  -1  -1  13   12.46    0.80 
  -1  -1  13   12.49    0.63 
   0   1 -13    1.44    0.27 
   0   1 -13    1.35    0.13 
   0   1 -13    1.36    0.14 
   0  -1  13    1.49    0.15 
   0  -1  13    1.28    0.12 
   0  -1  13    1.50    0.24 
  -1   1 -13    0.48    0.08 
   1  -1  13    0.49    0.08 
   1  -1  13    0.45    0.09 
  -2   1 -13    0.30    0.08 
  -2   1 -13    0.34    0.09 
  -2   1 -13    0.33    0.14 
   2  -1  13    0.27    0.08 
   2  -1  13    0.23    0.08 
   2  -1  13    0.50    0.15 
   2  -1  13    0.31    0.10 
  -3   1 -13    0.00    0.05 
  -3   1 -13    0.15    0.07 
   3  -1  13    0.08    0.07 
   3  -1  13    0.04    0.12 
   3  -1  13    0.14    0.09 
  -4   1 -13    0.22    0.08 
  -4   1 -13    0.25    0.05 
   4  -1  13    0.52    0.14 
   4  -1  13    0.27    0.09 
   4  -1  13    0.20    0.08 
   4  -1  13    0.26    0.07 
   4  -1  13    0.38    0.10 
  -5   1 -13    0.23    0.06 
  -5   1 -13    0.15    0.05 
   5  -1  13    0.14    0.06 
   5  -1  13    0.11    0.05 
   5  -1  13    0.21    0.07 
   5  -1  13    0.23    0.10 
   5  -1  13    0.28    0.07 
   4   0 -13    5.94    0.32 
   4   0 -13    5.79    0.33 
   4   0 -13    6.11    0.32 
   4   0 -13    6.19    0.31 
   4   0 -13    5.71    0.31 
  -4   0  13    6.25    0.31 
  -4   0  13    5.28    0.33 
   3   0 -13   52.34    2.32 
   3   0 -13   54.31    2.30 
   3   0 -13   50.72    2.30 
   3   0 -13   51.76    2.34 
   3   0 -13   52.75    2.32 
  -3   0  13   48.65    2.33 
  -3   0  13   52.03    2.31 
   2   0 -13   11.23    0.55 
   2   0 -13   10.38    0.55 
   2   0 -13   11.20    0.57 
   2   0 -13   11.43    0.54 
   2   0 -13   10.74    0.54 
  -2   0  13   11.30    0.54 
  -2   0  13   10.91    0.57 
   1   0 -13    0.42    0.09 
   1   0 -13    0.70    0.24 
   1   0 -13    0.58    0.09 
   1   0 -13    0.64    0.09 
   1   0 -13    0.54    0.11 
   1   0 -13    0.65    0.10 
  -1   0  13    0.54    0.08 
  -1   0  13    0.67    0.13 
  -1   0  13    0.55    0.21 
   0   0 -13   21.92    0.95 
   0   0 -13   20.08    0.95 
   0   0 -13   21.30    1.14 
   0   0 -13   19.72    0.97 
   0   0  13   21.20    1.14 
   0   0  13   20.06    0.94 
   0   0  13   21.79    0.97 
  -1   0 -13   11.97    0.54 
   1   0  13   10.71    0.53 
   1   0  13   12.43    0.56 
   1   0  13   10.03    0.53 
   1   0  13   10.87    0.67 
  -2   0 -13   24.50    1.20 
  -2   0 -13   27.10    1.15 
   2   0  13   22.19    1.28 
   2   0  13   26.25    1.16 
   2   0  13   24.73    1.14 
   2   0  13   25.13    1.22 
  -3   0 -13    0.30    0.09 
  -3   0 -13    0.26    0.05 
   3   0  13    0.25    0.14 
   3   0  13    0.24    0.08 
  -4   0 -13    9.46    0.48 
  -4   0 -13    9.86    0.46 
   4   0  13    9.94    0.52 
   4   0  13    9.83    0.58 
   4   0  13    9.62    0.49 
   4   0  13    9.70    0.52 
   4   0  13    9.55    0.50 
  -5   0 -13   15.62    0.75 
  -5   0 -13   16.54    0.72 
   5   0  13   15.73    0.74 
   5   0  13   15.18    0.76 
   5   0  13   16.44    0.81 
   5   0  13   16.15    0.76 
   5   0  13   15.89    0.74 
   4  -1 -13    2.55    0.18 
   4  -1 -13    2.77    0.20 
   4  -1 -13    3.02    0.20 
   4  -1 -13    2.71    0.18 
   4  -1 -13    3.08    0.19 
  -4   1  13    3.02    0.19 
  -4   1  13    2.61    0.22 
   3  -1 -13    1.07    0.14 
   3  -1 -13    1.07    0.15 
   3  -1 -13    1.02    0.12 
   3  -1 -13    1.15    0.14 
   3  -1 -13    1.18    0.13 
  -3   1  13    1.04    0.14 
   2  -1 -13    6.38    0.34 
   2  -1 -13    6.13    0.33 
   2  -1 -13    6.45    0.35 
   2  -1 -13    6.37    0.36 
   2  -1 -13    5.57    0.33 
  -2   1  13    6.33    0.34 
   1  -1 -13   23.53    1.12 
   1  -1 -13   22.57    1.11 
   1  -1 -13   24.53    1.10 
   1  -1 -13   24.49    1.10 
   1  -1 -13   24.23    1.10 
   1  -1 -13   22.98    1.31 
  -1   1  13   24.65    1.10 
  -1   1  13   25.81    1.33 
  -1   1  13   24.60    1.13 
   0  -1 -13    0.63    0.10 
   0  -1 -13    0.60    0.10 
   0  -1 -13    0.57    0.09 
   0  -1 -13    0.85    0.22 
   0   1  13    0.75    0.12 
   0   1  13    0.61    0.18 
   0   1  13    0.39    0.10 
  -1  -1 -13    0.15    0.06 
  -1  -1 -13    0.28    0.18 
   1   1  13    0.06    0.12 
   1   1  13    0.20    0.09 
   1   1  13    0.10    0.07 
  -2  -1 -13   21.70    1.00 
   2   1  13   22.25    1.00 
   2   1  13   20.54    1.15 
   2   1  13   21.92    1.01 
  -3  -1 -13   48.75    2.16 
  -3  -1 -13   49.36    2.13 
   3   1  13   48.94    2.25 
   3   1  13   46.54    2.20 
   3   1  13   48.90    2.25 
   3   1  13   48.04    2.16 
   3   1  13   47.36    2.17 
  -4  -1 -13   10.36    0.49 
   4   1  13    8.71    0.53 
   4   1  13    9.72    0.59 
   4   1  13    9.89    0.52 
   4   1  13   10.10    0.50 
   4   1  13    9.36    0.50 
  -5  -1 -13   18.36    0.88 
  -5  -1 -13   20.20    0.87 
   5   1  13   18.77    0.89 
   5   1  13   19.69    0.92 
   5   1  13   18.24    0.92 
   5   1  13   20.23    0.89 
   5   1  13   19.52    0.97 
   4  -2 -13    1.73    0.13 
   4  -2 -13    1.68    0.15 
   4  -2 -13    1.82    0.16 
   4  -2 -13    1.85    0.14 
   4  -2 -13    1.49    0.14 
  -4   2  13    1.80    0.15 
   3  -2 -13    2.08    0.17 
   3  -2 -13    1.65    0.16 
   3  -2 -13    1.80    0.16 
   3  -2 -13    1.60    0.17 
   3  -2 -13    1.98    0.16 
  -3   2  13    1.99    0.18 
   2  -2 -13    1.86    0.18 
   2  -2 -13    1.68    0.16 
   2  -2 -13    1.68    0.15 
   2  -2 -13    1.59    0.15 
   2  -2 -13    1.88    0.16 
  -2   2  13    1.20    0.20 
  -2   2  13    1.67    0.17 
   1  -2 -13    0.90    0.11 
   1  -2 -13    0.87    0.10 
   1  -2 -13    0.75    0.11 
   1  -2 -13    0.56    0.20 
   1  -2 -13    0.95    0.12 
  -1   2  13    0.88    0.14 
  -1   2  13    0.74    0.26 
  -1   2  13    0.84    0.11 
  -1   2  13    0.55    0.13 
   0  -2 -13    6.66    0.51 
   0  -2 -13    6.26    0.34 
   0  -2 -13    6.81    0.35 
   0   2  13    6.63    0.36 
   0   2  13    6.57    0.37 
   0   2  13    7.14    0.51 
  -1  -2 -13   27.79    1.39 
  -1  -2 -13   25.59    1.19 
   1   2  13   25.58    1.19 
   1   2  13   26.79    1.35 
   1   2  13   26.16    1.20 
  -2  -2 -13   40.04    1.74 
  -2  -2 -13   40.26    1.77 
   2   2  13   40.73    1.86 
   2   2  13   39.58    1.78 
   2   2  13   36.61    1.93 
   2   2  13   39.19    1.77 
  -3  -2 -13    0.20    0.09 
  -3  -2 -13    0.11    0.05 
   3   2  13    0.18    0.10 
   3   2  13    0.23    0.08 
   3   2  13    0.29    0.15 
   3   2  13    0.24    0.12 
   3   2  13    0.24    0.15 
  -4  -2 -13   25.80    1.24 
  -4  -2 -13   26.85    1.21 
   4   2  13   26.26    1.24 
   4   2  13   28.21    1.35 
   4   2  13   27.77    1.28 
   4   2  13   28.42    1.34 
   4   2  13   26.58    1.30 
   4   2  13   26.15    1.24 
  -5  -2 -13    2.57    0.18 
  -5  -2 -13    2.75    0.15 
   5   2  13    2.64    0.25 
   5   2  13    2.55    0.20 
   5   2  13    2.67    0.21 
   5   2  13    2.59    0.17 
   4  -3 -13   16.04    0.74 
   4  -3 -13   16.11    0.77 
   4  -3 -13   17.19    0.76 
   4  -3 -13   15.67    0.74 
   4  -3 -13   15.08    0.77 
  -4   3  13   16.45    0.76 
   3  -3 -13   46.58    2.17 
   3  -3 -13   48.48    2.15 
   3  -3 -13   48.49    2.14 
   3  -3 -13   49.39    2.14 
   3  -3 -13   48.28    2.16 
  -3   3  13   44.66    2.16 
  -3   3  13   49.35    2.17 
   2  -3 -13    1.42    0.15 
   2  -3 -13    1.41    0.14 
   2  -3 -13    1.49    0.15 
   2  -3 -13    1.38    0.14 
   2  -3 -13    1.26    0.16 
  -2   3  13    1.38    0.19 
  -2   3  13    1.39    0.17 
   1  -3 -13   23.73    1.04 
   1  -3 -13   20.72    1.23 
   1  -3 -13   22.96    1.03 
   1  -3 -13   21.87    1.04 
   1  -3 -13   22.32    1.02 
  -1   3  13   23.23    1.04 
  -1   3  13   21.96    1.27 
  -1   3  13   21.89    1.05 
   0  -3 -13   32.10    1.38 
   0  -3 -13   31.39    1.38 
   0  -3 -13   30.66    1.59 
   0   3  13   28.94    1.39 
   0   3  13   29.90    1.57 
   0   3  13   30.10    1.39 
  -1  -3 -13   10.99    0.70 
  -1  -3 -13    9.35    0.49 
  -1  -3 -13    9.77    0.50 
   1   3  13   10.29    0.50 
   1   3  13   10.54    0.65 
   1   3  13   10.07    0.50 
  -2  -3 -13    0.95    0.10 
  -2  -3 -13    1.01    0.28 
  -2  -3 -13    1.13    0.14 
   2   3  13    1.15    0.13 
   2   3  13    1.07    0.23 
   2   3  13    1.22    0.15 
   2   3  13    1.30    0.20 
   2   3  13    1.13    0.20 
  -3  -3 -13   24.92    1.07 
  -3  -3 -13   23.26    1.10 
   3   3  13   22.59    1.18 
   3   3  13   22.84    1.14 
   3   3  13   23.33    1.18 
   3   3  13   23.65    1.10 
   3   3  13   24.60    1.16 
   3   3  13   23.44    1.09 
  -4  -3 -13   18.04    0.80 
  -4  -3 -13   16.83    0.83 
   4   3  13   17.55    0.83 
   4   3  13   18.01    0.94 
   4   3  13   17.54    0.93 
   4   3  13   16.55    0.86 
   4   3  13   17.51    0.89 
  -5  -3 -13    0.06    0.04 
  -5  -3 -13    0.12    0.08 
   5   3  13    0.19    0.06 
   5   3  13    0.02    0.07 
   5   3  13    0.03    0.11 
   5   3  13    0.14    0.14 
   5   3  13    0.04    0.07 
   4  -4 -13    3.38    0.20 
   4  -4 -13    3.71    0.20 
   4  -4 -13    3.17    0.21 
   4  -4 -13    3.70    0.21 
  -4   4  13    3.69    0.22 
   3  -4 -13   25.23    1.14 
   3  -4 -13   23.92    1.15 
   3  -4 -13   24.90    1.15 
   3  -4 -13   25.07    1.13 
   3  -4 -13   24.84    1.13 
  -3   4  13   23.19    1.16 
  -3   4  13   24.99    1.16 
   2  -4 -13   30.05    1.34 
   2  -4 -13   30.33    1.35 
   2  -4 -13   29.35    1.37 
   2  -4 -13   29.76    1.38 
   2  -4 -13   28.88    1.35 
  -2   4  13   30.18    1.38 
  -2   4  13   28.68    1.39 
   1  -4 -13    0.69    0.10 
   1  -4 -13    0.41    0.23 
   1  -4 -13    0.32    0.09 
   1  -4 -13    0.45    0.09 
   1  -4 -13    0.27    0.08 
  -1   4  13    0.47    0.30 
  -1   4  13    0.26    0.12 
  -1   4  13    0.33    0.09 
   0  -4 -13   15.37    0.71 
   0  -4 -13   14.74    0.70 
   0  -4 -13   15.50    0.92 
   0   4  13   14.09    0.72 
   0   4  13   14.72    0.72 
   0   4  13   14.77    0.91 
  -1  -4 -13    0.68    0.24 
  -1  -4 -13    0.53    0.10 
  -1  -4 -13    0.58    0.10 
   1   4  13    0.61    0.11 
   1   4  13    0.41    0.19 
   1   4  13    0.64    0.10 
   1   4  13    0.75    0.21 
  -2  -4 -13    7.07    0.39 
  -2  -4 -13    7.41    0.36 
  -2  -4 -13    6.50    0.61 
   2   4  13    7.40    0.44 
   2   4  13    7.17    0.48 
   2   4  13    6.74    0.52 
   2   4  13    6.78    0.38 
   2   4  13    7.87    0.38 
  -3  -4 -13    0.01    0.06 
   3   4  13    0.09    0.11 
   3   4  13    0.09    0.10 
   3   4  13    0.10    0.07 
   3   4  13    0.15    0.15 
   3   4  13    0.21    0.15 
  -4  -4 -13   15.58    0.70 
   4   4  13   14.43    0.78 
   4   4  13   14.41    0.82 
   4   4  13   14.88    0.73 
   4   4  13   15.52    0.83 
   4   4  13   15.03    0.77 
  -5  -4 -13    1.88    0.13 
  -5  -4 -13    1.66    0.16 
   5   4  13    1.79    0.14 
   5   4  13    1.68    0.22 
   5   4  13    1.66    0.17 
   5   4  13    1.88    0.19 
   5   4  13    1.71    0.26 
   4  -5 -13   16.90    0.80 
   4  -5 -13   16.67    0.82 
   4  -5 -13   18.08    0.80 
   4  -5 -13   17.70    0.81 
  -4   5  13   20.05    0.88 
  -4   5  13   17.03    0.82 
   3  -5 -13    5.80    0.34 
   3  -5 -13    6.50    0.34 
   3  -5 -13    6.45    0.35 
   3  -5 -13    6.21    0.33 
   3  -5 -13    5.96    0.36 
  -3   5  13    5.91    0.38 
  -3   5  13    6.63    0.36 
   2  -5 -13    0.65    0.11 
   2  -5 -13    0.54    0.08 
   2  -5 -13    0.77    0.11 
   2  -5 -13    0.63    0.13 
   2  -5 -13    0.72    0.11 
   2  -5 -13    0.67    0.10 
  -2   5  13    0.70    0.13 
  -2   5  13    0.81    0.16 
   1  -5 -13   20.38    1.00 
   1  -5 -13   20.72    0.98 
   1  -5 -13   21.47    0.99 
  -1   5  13   21.27    1.02 
  -1   5  13   22.61    1.01 
   0  -5 -13   21.16    0.96 
   0  -5 -13   19.53    1.17 
   0  -5 -13   21.79    0.95 
   0   5  13   20.94    0.97 
   0   5  13   20.96    1.19 
   0   5  13   19.04    0.96 
  -1  -5 -13    2.50    0.38 
  -1  -5 -13    2.39    0.19 
   1   5  13    2.25    0.26 
   1   5  13    2.79    0.19 
   1   5  13    2.06    0.19 
   1   5  13    2.71    0.33 
  -2  -5 -13   17.65    1.15 
  -2  -5 -13   17.62    0.84 
   2   5  13   18.77    0.85 
   2   5  13   19.68    0.93 
   2   5  13   17.40    0.93 
   2   5  13   17.12    1.02 
  -3  -5 -13   48.42    2.11 
   3   5  13   47.01    2.21 
   3   5  13   48.96    2.23 
   3   5  13   46.49    2.12 
   3   5  13   45.57    2.16 
   3   5  13   48.03    2.19 
  -4  -5 -13    0.78    0.11 
   4   5  13    1.02    0.21 
   4   5  13    1.14    0.22 
   4   5  13    0.86    0.12 
   4   5  13    0.89    0.15 
   4   5  13    1.06    0.18 
  -5  -5 -13   12.18    0.56 
  -5  -5 -13   12.10    0.59 
   5   5  13   12.56    0.68 
   5   5  13   11.76    0.67 
   5   5  13   11.28    0.61 
   5   5  13   12.21    0.58 
   5   5  13   12.13    0.64 
   4  -6 -13    8.13    0.38 
   4  -6 -13    7.74    0.38 
   4  -6 -13    7.90    0.39 
   3  -6 -13    0.81    0.12 
   3  -6 -13    0.71    0.10 
   3  -6 -13    0.98    0.11 
   3  -6 -13    0.94    0.11 
   3  -6 -13    0.83    0.11 
  -3   6  13    0.97    0.14 
  -3   6  13    0.78    0.12 
   2  -6 -13   33.18    1.46 
   2  -6 -13   31.16    1.44 
   2  -6 -13   32.19    1.49 
   2  -6 -13   32.05    1.47 
   2  -6 -13   32.55    1.49 
   2  -6 -13   32.06    1.45 
  -2   6  13   32.39    1.49 
  -2   6  13   32.43    1.51 
   1  -6 -13   19.64    0.88 
   1  -6 -13   19.49    0.88 
   1  -6 -13   18.22    0.90 
  -1   6  13   18.94    0.91 
  -1   6  13   17.58    0.89 
   0  -6 -13    4.38    0.26 
   0  -6 -13    3.92    0.28 
   0  -6 -13    4.97    0.27 
   0  -6 -13    4.44    0.48 
   0   6  13    5.16    0.51 
   0   6  13    4.55    0.28 
   0   6  13    3.63    0.34 
   0   6  13    4.21    0.29 
  -1  -6 -13    2.94    0.44 
  -1  -6 -13    3.28    0.23 
   1   6  13    2.91    0.21 
   1   6  13    3.33    0.30 
   1   6  13    3.14    0.38 
  -2  -6 -13    2.30    0.21 
  -2  -6 -13    2.69    0.48 
   2   6  13    2.02    0.30 
   2   6  13    2.84    0.26 
   2   6  13    2.56    0.19 
   2   6  13    2.58    0.35 
  -3  -6 -13   17.64    0.81 
   3   6  13   17.91    0.83 
   3   6  13   16.77    0.89 
   3   6  13   17.16    0.88 
   3   6  13   17.78    0.93 
  -4  -6 -13    9.63    0.48 
   4   6  13    9.97    0.60 
   4   6  13    9.95    0.49 
   4   6  13    9.18    0.56 
   4   6  13    9.89    0.60 
   4   6  13    9.87    0.54 
  -5  -6 -13    0.87    0.10 
   5   6  13    0.80    0.12 
   5   6  13    0.62    0.16 
   5   6  13    0.72    0.13 
   5   6  13    0.83    0.17 
   5   6  13    0.55    0.09 
   3  -7 -13   16.34    0.73 
   3  -7 -13   14.75    0.72 
   3  -7 -13   14.64    0.74 
   3  -7 -13   15.97    0.74 
  -3   7  13   16.05    0.76 
  -3   7  13   15.95    0.75 
   2  -7 -13    0.06    0.08 
   2  -7 -13    0.06    0.06 
   2  -7 -13   -0.01    0.07 
   2  -7 -13    0.07    0.09 
  -2   7  13    0.11    0.11 
  -2   7  13    0.03    0.09 
   1  -7 -13    3.28    0.22 
   1  -7 -13    3.29    0.22 
   1  -7 -13    3.40    0.24 
  -1   7  13    2.94    0.33 
  -1   7  13    3.35    0.26 
   0  -7 -13    6.30    0.34 
   0  -7 -13    5.28    0.34 
   0   7  13    5.96    0.35 
   0   7  13    5.91    0.42 
  -1  -7 -13    0.37    0.11 
   1   7  13    0.11    0.14 
   1   7  13    0.21    0.09 
  -2  -7 -13    0.85    0.14 
   2   7  13    0.81    0.11 
   2   7  13    0.90    0.18 
  -3  -7 -13   16.66    0.77 
   3   7  13   16.23    0.84 
   3   7  13   18.03    0.89 
   3   7  13   16.05    0.79 
   3   7  13   16.02    0.86 
  -4  -7 -13    0.69    0.09 
   4   7  13    0.86    0.11 
   4   7  13    0.66    0.18 
   4   7  13    0.94    0.17 
   4   7  13    0.79    0.14 
   4   7  13    0.83    0.20 
  -5  -7 -13    0.28    0.06 
   5   7  13    0.35    0.13 
   5   7  13    0.25    0.09 
   5   7  13    0.23    0.14 
   5   7  13    0.34    0.11 
   3  -8 -13    5.30    0.30 
   3  -8 -13    5.98    0.29 
   3  -8 -13    5.44    0.30 
  -3   8  13    5.71    0.32 
   2  -8 -13   42.02    1.80 
   2  -8 -13   38.35    1.83 
   2  -8 -13   40.91    1.83 
   2  -8 -13   38.28    1.80 
  -2   8  13   42.43    1.84 
   1  -8 -13    3.76    0.24 
   1  -8 -13    4.07    0.26 
  -1   8  13    3.64    0.34 
  -1   8  13    4.27    0.28 
   0  -8 -13   11.91    0.63 
   0  -8 -13   12.75    0.62 
   0   8  13   12.85    0.63 
   0   8  13   12.41    0.70 
  -1  -8 -13   25.32    1.15 
   1   8  13   23.23    1.13 
   1   8  13   25.31    1.22 
  -2  -8 -13    5.80    0.35 
   2   8  13    5.57    0.32 
   2   8  13    6.02    0.41 
  -3  -8 -13    1.74    0.19 
  -3  -8 -13    2.21    0.16 
   3   8  13    2.05    0.24 
   3   8  13    2.09    0.22 
   3   8  13    1.82    0.28 
   3   8  13    1.90    0.18 
  -4  -8 -13   12.84    0.61 
   4   8  13   12.51    0.71 
   4   8  13   12.30    0.66 
   4   8  13   13.06    0.71 
   4   8  13   13.33    0.69 
  -5  -8 -13    6.80    0.33 
   5   8  13    6.53    0.37 
   5   8  13    6.98    0.42 
   5   8  13    5.90    0.40 
   5   8  13    6.79    0.39 
   3  -9 -13    2.46    0.16 
  -3   9  13    2.66    0.18 
   2  -9 -13    8.79    0.44 
  -2   9  13    9.43    0.46 
  -2   9  13    7.57    0.49 
   1  -9 -13    4.24    0.25 
   1  -9 -13    4.54    0.28 
  -1   9  13    4.52    0.29 
  -1   9  13    3.77    0.34 
   0  -9 -13    4.22    0.27 
   0  -9 -13    4.11    0.26 
   0   9  13    4.42    0.27 
   0   9  13    3.90    0.34 
  -1  -9 -13    6.95    0.38 
   1   9  13    6.77    0.44 
   1   9  13    5.93    0.35 
  -2  -9 -13    8.73    0.46 
   2   9  13    8.27    0.43 
   2   9  13    8.42    0.52 
  -3  -9 -13   11.37    0.58 
   3   9  13   12.01    0.65 
   3   9  13   11.82    0.62 
   3   9  13   11.45    0.66 
  -4  -9 -13    0.44    0.08 
   4   9  13    0.52    0.17 
   4   9  13    0.68    0.15 
   4   9  13    0.62    0.17 
   4   9  13    0.43    0.11 
   5   9  13    7.52    0.46 
   5   9  13    8.80    0.47 
   5   9  13    7.88    0.44 
   5   9  13    8.09    0.42 
   2 -10 -13    0.03    0.05 
  -2  10  13    0.03    0.08 
  -2  10  13    0.05    0.13 
   1 -10 -13    1.57    0.14 
   1 -10 -13    2.08    0.17 
  -1  10  13    2.03    0.17 
  -1  10  13    1.62    0.24 
   0 -10 -13    0.47    0.10 
   0 -10 -13    0.37    0.09 
   0  10  13    0.53    0.16 
   0  10  13    0.45    0.10 
  -1 -10 -13    6.89    0.39 
   1  10  13    7.27    0.45 
   1  10  13    6.29    0.36 
  -2 -10 -13   37.43    1.69 
   2  10  13   36.89    1.76 
  -3 -10 -13    1.37    0.16 
   3  10  13    1.27    0.18 
   3  10  13    1.29    0.20 
  -4 -10 -13   34.09    1.56 
   4  10  13   37.03    1.64 
   4  10  13   33.45    1.61 
   4  10  13   35.74    1.64 
   5  10  13    0.28    0.12 
   5  10  13    0.28    0.07 
   5  10  13    0.21    0.08 
   2 -11 -13    4.31    0.23 
  -2  11  13    4.44    0.30 
   1 -11 -13    6.30    0.34 
   1 -11 -13    6.93    0.36 
  -1  11  13    6.64    0.35 
  -1  11  13    7.04    0.42 
   0 -11 -13    5.55    0.31 
   0 -11 -13    5.75    0.33 
   0  11  13    6.20    0.39 
   0  11  13    5.35    0.31 
  -1 -11 -13    0.21    0.09 
   1  11  13    0.16    0.13 
  -2 -11 -13    0.50    0.11 
   2  11  13    0.46    0.13 
   2  11  13    0.45    0.14 
  -3 -11 -13    0.11    0.09 
   3  11  13    0.25    0.11 
   3  11  13    0.25    0.10 
   4  11  13   23.65    1.09 
   4  11  13   22.80    1.11 
   1 -12 -13    0.26    0.07 
  -1  12  13    0.26    0.11 
   0 -12 -13    0.19    0.07 
   0 -12 -13    0.18    0.07 
   0  12  13    0.16    0.11 
  -1 -12 -13    2.86    0.20 
  -1 -12 -13    2.68    0.23 
   1  12  13    3.03    0.25 
  -2 -12 -13    8.26    0.43 
   2  12  13    8.09    0.47 
  -3 -12 -13    5.45    0.30 
   3  12  13    5.63    0.35 
   3  12  13    5.16    0.32 
   4  12  13    2.90    0.22 
   4  12  13    2.74    0.19 
   0 -13 -13    9.93    0.49 
   0  13  13   10.33    0.53 
  -1 -13 -13    2.23    0.16 
   1  13  13    2.29    0.21 
  -2 -13 -13    3.47    0.22 
   2  13  13    3.72    0.26 
  -3 -13 -13   17.44    0.81 
   3  13  13   17.44    0.83 
   3  13  13   17.39    0.82 
   2   9 -14   -0.05    0.06 
  -2  -9  14    0.05    0.07 
   1   9 -14    0.39    0.07 
  -1  -9  14    0.35    0.06 
  -1  -9  14    0.41    0.06 
   0   9 -14    0.09    0.07 
   0  -9  14    0.11    0.05 
   0  -9  14    0.07    0.04 
   1  -9  14    0.13    0.04 
   2   8 -14    0.33    0.07 
  -2  -8  14    0.46    0.07 
  -2  -8  14    0.38    0.06 
   1   8 -14    0.97    0.11 
  -1  -8  14    0.92    0.11 
  -1  -8  14    1.01    0.10 
   0   8 -14    7.68    0.37 
   0  -8  14    6.40    0.36 
   0  -8  14    7.61    0.36 
  -1   8 -14    0.05    0.06 
  -1   8 -14    0.20    0.08 
   1  -8  14    0.13    0.05 
  -2   8 -14    5.88    0.30 
   2  -8  14    6.08    0.29 
   3   7 -14    0.04    0.06 
   3   7 -14    0.02    0.07 
   3   7 -14    0.09    0.06 
   3   7 -14    0.10    0.05 
  -3  -7  14    0.06    0.06 
   2   7 -14    0.29    0.08 
   2   7 -14    0.35    0.08 
  -2  -7  14    0.25    0.06 
  -2  -7  14    0.24    0.07 
   1   7 -14    5.13    0.28 
  -1  -7  14    4.58    0.28 
  -1  -7  14    5.09    0.26 
   0   7 -14    0.38    0.09 
   0  -7  14    0.23    0.06 
   0  -7  14    0.13    0.07 
  -1   7 -14    0.21    0.08 
  -1   7 -14    0.13    0.08 
   1  -7  14    0.15    0.06 
  -2   7 -14   11.15    0.54 
   2  -7  14   11.16    0.52 
  -3   7 -14    7.12    0.35 
   3  -7  14    7.36    0.36 
   3   6 -14    1.02    0.12 
   3   6 -14    0.85    0.10 
   3   6 -14    1.05    0.12 
   3   6 -14    0.99    0.10 
  -3  -6  14    1.13    0.11 
  -3  -6  14    0.93    0.10 
   2   6 -14    0.70    0.11 
   2   6 -14    0.46    0.11 
   2   6 -14    0.58    0.09 
   2   6 -14    0.65    0.10 
  -2  -6  14    0.66    0.08 
  -2  -6  14    0.65    0.09 
  -2  -6  14    0.76    0.11 
   1   6 -14    0.07    0.07 
   1   6 -14    0.03    0.07 
  -1  -6  14    0.01    0.06 
  -1  -6  14   -0.02    0.07 
   0   6 -14    0.07    0.07 
   0  -6  14    0.07    0.07 
   0  -6  14    0.07    0.05 
  -1   6 -14    3.92    0.24 
  -1   6 -14    3.63    0.24 
   1  -6  14    4.16    0.23 
  -2   6 -14    9.57    0.48 
  -2   6 -14    9.54    0.47 
   2  -6  14    9.91    0.47 
  -3   6 -14    0.58    0.09 
   3  -6  14    0.50    0.07 
   4   5 -14    0.44    0.06 
   4   5 -14    0.40    0.06 
   4   5 -14    0.33    0.06 
  -4  -5  14    0.32    0.06 
   3   5 -14    6.51    0.36 
   3   5 -14    7.10    0.38 
   3   5 -14    7.02    0.36 
  -3  -5  14    7.45    0.34 
  -3  -5  14    6.96    0.34 
   2   5 -14    8.18    0.43 
   2   5 -14    8.42    0.44 
   2   5 -14    8.49    0.45 
   2   5 -14    8.04    0.43 
  -2  -5  14    8.95    0.41 
  -2  -5  14    8.78    0.41 
   1   5 -14    5.08    0.31 
   1   5 -14    5.42    0.31 
  -1  -5  14    5.37    0.28 
  -1  -5  14    5.17    0.31 
   0   5 -14    0.14    0.08 
   0  -5  14    0.10    0.08 
   0  -5  14    0.18    0.06 
  -1   5 -14   10.02    0.50 
  -1   5 -14    9.06    0.49 
   1  -5  14   10.40    0.49 
   1  -5  14   10.35    0.51 
  -2   5 -14   19.88    0.89 
  -2   5 -14   18.35    0.89 
   2  -5  14   19.27    0.88 
   2  -5  14   18.85    0.90 
  -3   5 -14    3.05    0.20 
   3  -5  14    3.39    0.21 
  -4   5 -14    4.58    0.24 
   4   4 -14    1.07    0.10 
   4   4 -14    0.95    0.10 
   4   4 -14    0.90    0.10 
  -4  -4  14    1.04    0.09 
   3   4 -14    7.63    0.38 
   3   4 -14    7.90    0.40 
   3   4 -14    7.65    0.41 
   3   4 -14    7.72    0.40 
  -3  -4  14    8.03    0.38 
  -3  -4  14    8.09    0.38 
   2   4 -14    6.06    0.33 
   2   4 -14    5.87    0.31 
   2   4 -14    6.12    0.34 
   2   4 -14    6.02    0.34 
   2   4 -14    5.52    0.32 
  -2  -4  14    6.09    0.31 
  -2  -4  14    5.83    0.30 
   1   4 -14    0.03    0.08 
   1   4 -14    0.08    0.08 
  -1  -4  14    0.08    0.06 
  -1  -4  14   -0.01    0.06 
   0   4 -14    3.90    0.24 
   0  -4  14    3.43    0.24 
   0  -4  14    3.88    0.25 
   0  -4  14    3.98    0.22 
  -1   4 -14    0.24    0.08 
  -1   4 -14    0.31    0.14 
   1  -4  14    0.26    0.10 
   1  -4  14    0.26    0.07 
  -2   4 -14    1.52    0.15 
  -2   4 -14    1.58    0.14 
   2  -4  14    1.43    0.13 
   2  -4  14    1.39    0.17 
  -3   4 -14    0.02    0.07 
  -3   4 -14    0.03    0.06 
   3  -4  14    0.09    0.07 
   3  -4  14    0.06    0.06 
  -4   4 -14    3.68    0.21 
   4  -4  14    3.84    0.22 
   4   3 -14   12.44    0.62 
   4   3 -14   13.50    0.62 
   4   3 -14   12.97    0.60 
   4   3 -14   12.96    0.62 
  -4  -3  14   13.86    0.60 
   3   3 -14    4.88    0.26 
   3   3 -14    4.72    0.27 
   3   3 -14    4.55    0.29 
   3   3 -14    4.24    0.27 
  -3  -3  14    5.21    0.25 
  -3  -3  14    4.74    0.25 
   2   3 -14    1.07    0.13 
   2   3 -14    1.26    0.12 
   2   3 -14    1.12    0.15 
   2   3 -14    1.16    0.14 
   2   3 -14    1.14    0.17 
  -2  -3  14    1.31    0.12 
  -2  -3  14    1.32    0.11 
   1   3 -14    6.94    0.39 
   1   3 -14    7.28    0.39 
   1   3 -14    7.46    0.40 
   1   3 -14    7.80    0.38 
  -1  -3  14    7.18    0.36 
  -1  -3  14    7.81    0.37 
  -1  -3  14    6.76    0.39 
   0   3 -14   16.86    0.80 
   0  -3  14   17.38    0.79 
   0  -3  14   17.00    0.81 
  -1   3 -14    9.93    0.50 
   1  -3  14   10.26    0.52 
   1  -3  14   10.34    0.49 
  -2   3 -14    0.21    0.08 
  -2   3 -14    0.11    0.07 
   2  -3  14    0.17    0.09 
   2  -3  14    0.15    0.07 
  -3   3 -14   14.17    0.65 
  -3   3 -14   13.15    0.64 
   3  -3  14   13.05    0.63 
   3  -3  14   13.25    0.66 
  -4   3 -14    5.14    0.28 
   4  -3  14    5.33    0.29 
   4   2 -14    4.12    0.23 
   4   2 -14    3.94    0.22 
   4   2 -14    4.36    0.23 
   4   2 -14    3.92    0.24 
  -4  -2  14    4.06    0.22 
  -4  -2  14    4.24    0.21 
   3   2 -14    7.31    0.40 
   3   2 -14    7.75    0.38 
   3   2 -14    7.71    0.40 
   3   2 -14    7.68    0.42 
  -3  -2  14    7.77    0.38 
   2   2 -14    0.78    0.10 
   2   2 -14    0.77    0.11 
   2   2 -14    0.95    0.13 
   2   2 -14    0.72    0.11 
  -2  -2  14    0.80    0.10 
  -2  -2  14    0.64    0.12 
   1   2 -14    1.39    0.13 
   1   2 -14    1.43    0.17 
   1   2 -14    1.27    0.15 
   1   2 -14    1.29    0.15 
  -1  -2  14    1.33    0.12 
  -1  -2  14    1.23    0.12 
  -1  -2  14    1.26    0.16 
   0   2 -14    0.04    0.07 
   0  -2  14    0.36    0.22 
   0  -2  14    0.13    0.06 
   0  -2  14   -0.02    0.08 
  -1   2 -14   18.72    0.84 
   1  -2  14   17.84    0.85 
   1  -2  14   17.14    0.82 
  -2   2 -14    4.44    0.28 
  -2   2 -14    5.26    0.28 
   2  -2  14    4.82    0.30 
   2  -2  14    4.98    0.27 
  -3   2 -14   18.28    0.83 
  -3   2 -14   18.07    0.84 
   3  -2  14   18.20    0.86 
   3  -2  14   17.30    0.83 
   3  -2  14   17.09    0.90 
  -4   2 -14   31.36    1.46 
   4  -2  14   31.97    1.44 
   4  -2  14   32.65    1.47 
   4  -2  14   33.34    1.52 
  -5   2 -14    0.34    0.06 
   4   1 -14    1.41    0.11 
   4   1 -14    1.12    0.12 
   4   1 -14    1.26    0.13 
   4   1 -14    1.34    0.12 
  -4  -1  14    1.47    0.11 
   3   1 -14    6.90    0.35 
   3   1 -14    7.03    0.37 
   3   1 -14    7.08    0.39 
   3   1 -14    7.33    0.37 
  -3  -1  14    6.20    0.37 
  -3  -1  14    6.99    0.35 
   2   1 -14    1.81    0.15 
   2   1 -14    1.83    0.15 
   2   1 -14    1.67    0.15 
   2   1 -14    1.64    0.18 
  -2  -1  14    1.45    0.18 
  -2  -1  14    1.80    0.14 
   1   1 -14    0.29    0.09 
   1   1 -14    0.33    0.09 
   1   1 -14    0.41    0.08 
   1   1 -14    0.27    0.10 
  -1  -1  14    0.41    0.11 
  -1  -1  14    0.38    0.07 
   0   1 -14    0.42    0.08 
   0   1 -14    0.43    0.09 
   0   1 -14    0.26    0.22 
   0  -1  14    0.41    0.10 
   0  -1  14    0.57    0.08 
  -1   1 -14    5.64    0.30 
   1  -1  14    5.15    0.29 
   1  -1  14    5.80    0.32 
  -2   1 -14    3.35    0.22 
  -2   1 -14    3.90    0.23 
   2  -1  14    3.69    0.25 
   2  -1  14    3.80    0.23 
   2  -1  14    3.26    0.21 
   2  -1  14    3.14    0.29 
  -3   1 -14    3.23    0.21 
  -3   1 -14    3.05    0.21 
   3  -1  14    3.89    0.30 
   3  -1  14    2.87    0.20 
   3  -1  14    3.09    0.24 
  -4   1 -14    0.83    0.10 
  -4   1 -14    0.89    0.11 
  -4   1 -14    0.82    0.11 
   4  -1  14    0.97    0.10 
   4  -1  14    0.63    0.10 
   4  -1  14    0.64    0.15 
   4  -1  14    0.65    0.11 
  -5   1 -14   -0.02    0.05 
   5  -1  14    0.02    0.05 
   5  -1  14    0.02    0.06 
   5  -1  14    0.00    0.04 
   4   0 -14   10.70    0.54 
   4   0 -14   11.43    0.54 
   4   0 -14   10.65    0.55 
   4   0 -14   11.42    0.52 
  -4   0  14   11.78    0.53 
   3   0 -14    0.74    0.11 
   3   0 -14    0.73    0.10 
   3   0 -14    0.93    0.14 
   3   0 -14    0.93    0.11 
   3   0 -14    1.00    0.13 
  -3   0  14    0.80    0.13 
  -3   0  14    0.81    0.11 
   2   0 -14    5.22    0.30 
   2   0 -14    5.36    0.31 
   2   0 -14    5.25    0.32 
   2   0 -14    5.15    0.31 
   2   0 -14    5.56    0.30 
  -2   0  14    5.39    0.33 
  -2   0  14    5.74    0.30 
   1   0 -14   27.56    1.29 
   1   0 -14   28.67    1.26 
   1   0 -14   28.31    1.27 
  -1   0  14   27.66    1.26 
  -1   0  14   28.12    1.29 
  -1   0  14   26.76    1.50 
   0   0 -14    7.07    0.57 
   0   0 -14    7.55    0.39 
   0   0 -14    8.06    0.39 
   0   0  14    7.61    0.38 
   0   0  14    7.77    0.41 
  -1   0 -14    0.71    0.11 
   1   0  14    0.74    0.10 
   1   0  14    0.92    0.12 
   1   0  14    0.81    0.10 
  -2   0 -14   13.31    0.64 
   2   0  14   12.94    0.64 
   2   0  14   14.25    0.67 
  -3   0 -14   63.55    2.80 
  -3   0 -14   65.00    2.82 
   3   0  14   62.67    2.85 
   3   0  14   65.19    2.83 
   3   0  14   62.25    2.91 
  -4   0 -14    0.75    0.09 
  -4   0 -14    0.72    0.10 
   4   0  14    0.71    0.10 
   4   0  14    0.62    0.16 
   4   0  14    0.63    0.12 
   4   0  14    0.65    0.12 
   4   0  14    0.80    0.11 
  -5   0 -14    3.77    0.22 
  -5   0 -14    3.56    0.21 
   5   0  14    3.62    0.21 
   5   0  14    3.81    0.22 
   5   0  14    3.87    0.27 
   5   0  14    3.59    0.20 
   5   0  14    3.43    0.22 
   4  -1 -14   17.07    0.77 
   4  -1 -14   15.75    0.76 
   4  -1 -14   16.17    0.78 
   4  -1 -14   16.81    0.78 
   4  -1 -14   16.59    0.76 
  -4   1  14   16.80    0.78 
  -4   1  14   17.43    0.76 
   3  -1 -14   17.00    0.83 
   3  -1 -14   17.37    0.81 
   3  -1 -14   16.87    0.81 
   3  -1 -14   16.64    0.79 
   3  -1 -14   17.10    0.80 
  -3   1  14   17.44    0.80 
  -3   1  14   16.93    0.83 
   2  -1 -14    6.03    0.35 
   2  -1 -14    6.04    0.32 
   2  -1 -14    6.24    0.34 
   2  -1 -14    5.85    0.33 
   2  -1 -14    5.93    0.34 
  -2   1  14    6.15    0.33 
  -2   1  14    5.88    0.36 
   1  -1 -14   13.89    0.69 
   1  -1 -14   13.59    0.67 
   1  -1 -14   14.34    0.67 
   1  -1 -14   15.27    0.68 
  -1   1  14   13.66    0.89 
  -1   1  14   13.89    0.67 
  -1   1  14   14.39    0.70 
   0  -1 -14   26.99    1.20 
   0  -1 -14   25.13    1.19 
   0  -1 -14   25.23    1.39 
   0  -1 -14   27.46    1.19 
   0   1  14   24.53    1.19 
   0   1  14   28.23    1.21 
  -1  -1 -14    0.38    0.08 
  -1  -1 -14    0.39    0.21 
   1   1  14    0.42    0.08 
   1   1  14    0.33    0.09 
   1   1  14    0.25    0.16 
  -2  -1 -14   28.59    1.23 
   2   1  14   27.88    1.24 
   2   1  14   23.91    1.37 
   2   1  14   26.93    1.23 
  -3  -1 -14   16.16    0.76 
  -3  -1 -14   15.80    0.73 
   3   1  14   16.98    0.79 
   3   1  14   14.81    0.84 
   3   1  14   16.94    0.77 
  -4  -1 -14    0.11    0.04 
  -4  -1 -14    0.13    0.07 
   4   1  14    0.15    0.08 
   4   1  14    0.31    0.13 
   4   1  14    0.19    0.09 
   4   1  14    0.19    0.09 
   4   1  14    0.27    0.07 
  -5  -1 -14    9.76    0.43 
  -5  -1 -14    9.11    0.44 
   5   1  14    9.20    0.52 
   5   1  14    9.60    0.45 
   5   1  14    9.20    0.45 
   5   1  14    8.66    0.47 
   5   1  14    9.34    0.47 
   4  -2 -14    0.13    0.06 
   4  -2 -14    0.12    0.06 
   4  -2 -14    0.10    0.07 
   4  -2 -14    0.13    0.05 
   4  -2 -14    0.07    0.06 
  -4   2  14    0.09    0.09 
  -4   2  14    0.10    0.06 
   3  -2 -14    3.35    0.25 
   3  -2 -14    3.87    0.23 
   3  -2 -14    3.63    0.24 
   3  -2 -14    3.91    0.24 
   3  -2 -14    4.01    0.23 
  -3   2  14    3.74    0.24 
   2  -2 -14    8.19    0.48 
   2  -2 -14    9.28    0.46 
   2  -2 -14    9.33    0.46 
   2  -2 -14    9.21    0.48 
   2  -2 -14    9.19    0.47 
  -2   2  14    9.59    0.47 
   1  -2 -14   11.64    0.59 
   1  -2 -14   12.36    0.58 
   1  -2 -14   12.47    0.59 
   1  -2 -14   12.34    0.59 
  -1   2  14   10.73    0.59 
  -1   2  14   12.32    0.58 
  -1   2  14   12.25    0.62 
   0  -2 -14    0.27    0.09 
   0  -2 -14    0.36    0.20 
   0  -2 -14    0.19    0.08 
   0   2  14    0.06    0.17 
   0   2  14    0.31    0.09 
   0   2  14    0.21    0.09 
  -1  -2 -14   62.99    3.02 
  -1  -2 -14   63.39    2.80 
   1   2  14   66.99    2.82 
   1   2  14   63.71    2.81 
   1   2  14   60.19    2.97 
  -2  -2 -14   56.14    2.42 
   2   2  14   51.60    2.60 
   2   2  14   54.44    2.42 
   2   2  14   55.48    2.43 
  -3  -2 -14    0.37    0.09 
  -3  -2 -14    0.21    0.05 
   3   2  14    0.12    0.13 
   3   2  14    0.26    0.08 
   3   2  14    0.19    0.10 
   3   2  14    0.07    0.11 
   3   2  14    0.29    0.16 
  -4  -2 -14   21.13    0.95 
  -4  -2 -14   20.96    0.98 
   4   2  14   20.60    0.99 
   4   2  14   21.64    1.03 
   4   2  14   21.49    0.99 
   4   2  14   21.33    1.08 
   4   2  14   20.88    1.01 
  -5  -2 -14    0.94    0.09 
  -5  -2 -14    0.89    0.11 
   5   2  14    1.08    0.10 
   5   2  14    1.07    0.13 
   5   2  14    1.15    0.13 
   5   2  14    1.11    0.17 
   4  -3 -14    0.42    0.07 
   4  -3 -14    0.38    0.07 
   4  -3 -14    0.26    0.07 
   4  -3 -14    0.31    0.08 
   4  -3 -14    0.33    0.06 
  -4   3  14    0.30    0.09 
  -4   3  14    0.37    0.07 
   3  -3 -14   22.28    1.04 
   3  -3 -14   22.73    1.03 
   3  -3 -14   21.62    1.04 
   3  -3 -14   21.43    1.05 
   3  -3 -14   22.63    1.03 
  -3   3  14   23.57    1.05 
   2  -3 -14   14.85    0.76 
   2  -3 -14   15.55    0.74 
   2  -3 -14   15.73    0.73 
   2  -3 -14   15.60    0.75 
   2  -3 -14   15.75    0.74 
  -2   3  14   14.50    0.76 
  -2   3  14   16.13    0.76 
   1  -3 -14    5.26    0.29 
   1  -3 -14    4.81    0.29 
   1  -3 -14    5.00    0.28 
   1  -3 -14    5.38    0.30 
  -1   3  14    4.89    0.32 
  -1   3  14    5.01    0.29 
  -1   3  14    5.07    0.32 
   0  -3 -14    1.06    0.27 
   0  -3 -14    1.03    0.13 
   0   3  14    0.95    0.13 
   0   3  14    0.97    0.26 
   0   3  14    1.20    0.14 
  -1  -3 -14    5.66    0.50 
  -1  -3 -14    4.86    0.35 
  -1  -3 -14    5.06    0.29 
   1   3  14    5.74    0.46 
   1   3  14    5.63    0.31 
   1   3  14    5.52    0.30 
  -2  -3 -14    5.03    0.28 
   2   3  14    4.61    0.37 
   2   3  14    3.98    0.40 
   2   3  14    5.14    0.27 
   2   3  14    4.26    0.28 
  -3  -3 -14    2.33    0.15 
  -3  -3 -14    2.50    0.19 
   3   3  14    2.04    0.23 
   3   3  14    3.03    0.30 
   3   3  14    2.16    0.28 
   3   3  14    2.17    0.20 
   3   3  14    2.47    0.18 
  -4  -3 -14   18.99    0.86 
  -4  -3 -14   19.55    0.89 
   4   3  14   19.77    0.89 
   4   3  14   17.97    0.94 
   4   3  14   18.37    0.92 
   4   3  14   18.95    0.98 
   4   3  14   18.30    0.98 
  -5  -3 -14    4.14    0.24 
   5   3  14    4.29    0.31 
   5   3  14    3.85    0.27 
   5   3  14    4.35    0.24 
   5   3  14    4.34    0.26 
   4  -4 -14    6.96    0.34 
   4  -4 -14    7.10    0.34 
   4  -4 -14    6.63    0.33 
   4  -4 -14    6.22    0.35 
  -4   4  14    7.39    0.36 
   3  -4 -14    6.23    0.32 
   3  -4 -14    6.41    0.34 
   3  -4 -14    6.06    0.35 
   3  -4 -14    6.23    0.34 
   3  -4 -14    6.14    0.33 
  -3   4  14    5.50    0.35 
  -3   4  14    6.00    0.34 
   2  -4 -14   10.95    0.58 
   2  -4 -14   11.30    0.56 
   2  -4 -14   11.60    0.55 
   2  -4 -14   11.03    0.57 
   2  -4 -14   11.50    0.57 
  -2   4  14   11.81    0.58 
  -2   4  14   11.42    0.60 
   1  -4 -14    0.66    0.11 
   1  -4 -14    0.76    0.11 
   1  -4 -14    0.91    0.12 
   1  -4 -14    0.65    0.10 
  -1   4  14    0.78    0.11 
  -1   4  14    0.76    0.14 
  -1   4  14    0.80    0.14 
   0  -4 -14    1.56    0.14 
   0  -4 -14    1.23    0.30 
   0  -4 -14    1.52    0.15 
   0   4  14    0.74    0.25 
   0   4  14    1.38    0.16 
   0   4  14    1.31    0.16 
  -1  -4 -14    6.69    0.41 
  -1  -4 -14    8.16    0.41 
  -1  -4 -14    8.77    0.64 
   1   4  14    7.92    0.57 
   1   4  14    8.47    0.41 
   1   4  14    8.05    0.41 
  -2  -4 -14    0.20    0.25 
  -2  -4 -14    0.05    0.08 
   2   4  14    0.00    0.14 
   2   4  14    0.06    0.06 
   2   4  14   -0.03    0.16 
   2   4  14   -0.06    0.12 
  -3  -4 -14   10.92    0.55 
  -3  -4 -14   11.35    0.52 
   3   4  14   10.42    0.71 
   3   4  14   10.39    0.60 
   3   4  14   11.04    0.65 
   3   4  14   10.96    0.54 
  -4  -4 -14    5.48    0.28 
  -4  -4 -14    5.63    0.31 
   4   4  14    4.95    0.34 
   4   4  14    4.77    0.39 
   4   4  14    5.16    0.40 
   4   4  14    5.65    0.31 
   4   4  14    5.16    0.36 
  -5  -4 -14    2.48    0.17 
  -5  -4 -14    2.50    0.15 
   5   4  14    2.40    0.26 
   5   4  14    2.50    0.16 
   5   4  14    2.21    0.19 
   5   4  14    2.37    0.24 
   5   4  14    2.40    0.19 
   4  -5 -14    7.35    0.37 
   4  -5 -14    7.63    0.36 
   4  -5 -14    7.16    0.39 
   4  -5 -14    7.24    0.38 
  -4   5  14    8.41    0.38 
   3  -5 -14   36.32    1.72 
   3  -5 -14   38.27    1.72 
   3  -5 -14   37.08    1.71 
   3  -5 -14   37.86    1.70 
   3  -5 -14   39.04    1.70 
  -3   5  14   38.87    1.73 
  -3   5  14   39.18    1.72 
   2  -5 -14    3.75    0.25 
   2  -5 -14    3.51    0.26 
   2  -5 -14    3.68    0.24 
   2  -5 -14    3.83    0.23 
   2  -5 -14    4.14    0.24 
  -2   5  14    4.25    0.29 
  -2   5  14    4.04    0.27 
   1  -5 -14    4.69    0.29 
   1  -5 -14    5.09    0.28 
   1  -5 -14    4.99    0.28 
  -1   5  14    4.23    0.28 
  -1   5  14    4.90    0.32 
   0  -5 -14   18.41    0.83 
   0  -5 -14   17.90    0.84 
   0   5  14   18.93    1.19 
   0   5  14   17.13    0.84 
   0   5  14   16.61    0.84 
  -1  -5 -14    6.15    0.33 
  -1  -5 -14    5.37    0.54 
   1   5  14    5.59    0.32 
   1   5  14    5.50    0.48 
   1   5  14    5.76    0.32 
   1   5  14    5.60    0.39 
  -2  -5 -14    0.44    0.10 
   2   5  14    0.46    0.18 
   2   5  14    0.67    0.10 
   2   5  14    0.62    0.15 
  -3  -5 -14   23.24    1.03 
   3   5  14   22.74    1.12 
   3   5  14   21.91    1.15 
   3   5  14   22.58    1.05 
  -4  -5 -14   13.78    0.72 
  -4  -5 -14   14.47    0.69 
   4   5  14   14.63    0.71 
   4   5  14   14.84    0.76 
   4   5  14   15.58    0.82 
   4   5  14   15.30    0.81 
   4   5  14   15.23    0.78 
  -5  -5 -14    0.07    0.07 
  -5  -5 -14    0.11    0.04 
   5   5  14    0.04    0.07 
   5   5  14    0.16    0.08 
   5   5  14    0.14    0.13 
   5   5  14    0.09    0.11 
   5   5  14    0.05    0.06 
   3  -6 -14    7.51    0.39 
   3  -6 -14    7.68    0.41 
   3  -6 -14    8.37    0.41 
   3  -6 -14    7.51    0.38 
   3  -6 -14    7.75    0.39 
  -3   6  14    7.81    0.40 
  -3   6  14    7.82    0.41 
   2  -6 -14    0.58    0.10 
   2  -6 -14    0.42    0.09 
   2  -6 -14    0.39    0.08 
   2  -6 -14    0.50    0.09 
   2  -6 -14    0.44    0.11 
  -2   6  14    0.43    0.10 
  -2   6  14    0.50    0.12 
   1  -6 -14    0.66    0.10 
   1  -6 -14    0.63    0.10 
   1  -6 -14    0.91    0.13 
  -1   6  14    0.69    0.14 
   0  -6 -14    1.60    0.15 
   0  -6 -14    1.26    0.16 
   0   6  14    1.67    0.17 
   0   6  14    1.33    0.16 
  -1  -6 -14   13.51    0.65 
   1   6  14   12.63    0.72 
   1   6  14   13.71    0.64 
  -2  -6 -14    4.86    0.30 
  -2  -6 -14    4.72    0.30 
   2   6  14    4.70    0.40 
   2   6  14    4.94    0.36 
   2   6  14    5.20    0.29 
  -3  -6 -14    0.14    0.07 
   3   6  14    0.26    0.12 
   3   6  14    0.27    0.08 
   3   6  14   -0.03    0.15 
  -4  -6 -14   38.16    1.69 
   4   6  14   37.17    1.78 
   4   6  14   38.90    1.71 
   4   6  14   38.48    1.82 
   4   6  14   36.17    1.80 
   4   6  14   38.89    1.76 
  -5  -6 -14    1.76    0.13 
  -5  -6 -14    1.87    0.15 
   5   6  14    1.72    0.22 
   5   6  14    2.02    0.23 
   5   6  14    1.85    0.17 
   5   6  14    1.88    0.18 
   5   6  14    1.73    0.14 
   3  -7 -14    1.20    0.13 
   3  -7 -14    1.11    0.11 
   3  -7 -14    1.08    0.11 
   3  -7 -14    1.11    0.11 
  -3   7  14    1.19    0.15 
  -3   7  14    1.26    0.14 
   2  -7 -14    1.36    0.17 
   2  -7 -14    1.43    0.14 
   2  -7 -14    1.80    0.15 
   2  -7 -14    1.65    0.15 
  -2   7  14    1.37    0.17 
  -2   7  14    1.87    0.19 
   1  -7 -14    2.63    0.19 
   1  -7 -14    2.52    0.20 
   1  -7 -14    2.56    0.19 
  -1   7  14    2.35    0.23 
  -1   7  14    2.77    0.23 
   0  -7 -14    4.73    0.28 
   0  -7 -14    4.10    0.28 
   0   7  14    5.18    0.29 
   0   7  14    3.98    0.35 
  -1  -7 -14    0.03    0.09 
   1   7  14    0.15    0.08 
   1   7  14    0.06    0.13 
  -2  -7 -14    5.38    0.33 
   2   7  14    5.44    0.38 
   2   7  14    5.69    0.31 
  -3  -7 -14   44.29    1.98 
   3   7  14   43.15    2.05 
   3   7  14   45.56    2.08 
   3   7  14   44.40    2.00 
   3   7  14   45.81    2.10 
  -4  -7 -14    1.14    0.12 
   4   7  14    0.74    0.18 
   4   7  14    0.84    0.16 
   4   7  14    1.08    0.13 
   4   7  14    0.98    0.15 
   4   7  14    1.18    0.21 
  -5  -7 -14    0.77    0.09 
  -5  -7 -14    0.89    0.12 
   5   7  14    0.85    0.12 
   5   7  14    0.72    0.15 
   5   7  14    0.96    0.17 
   5   7  14    0.77    0.13 
   3  -8 -14    0.04    0.04 
   3  -8 -14    0.04    0.07 
   3  -8 -14    0.07    0.06 
  -3   8  14    0.04    0.08 
  -3   8  14    0.12    0.07 
   2  -8 -14   13.98    0.63 
   2  -8 -14   12.95    0.65 
   2  -8 -14   13.05    0.64 
  -2   8  14   13.55    0.66 
  -2   8  14   14.00    0.67 
   1  -8 -14    4.33    0.28 
   1  -8 -14    4.55    0.26 
  -1   8  14    4.07    0.35 
  -1   8  14    4.62    0.29 
  -1   8  14    3.87    0.34 
   0  -8 -14   10.58    0.56 
   0  -8 -14   11.33    0.55 
   0   8  14   11.66    0.56 
   0   8  14   10.45    0.63 
  -1  -8 -14    9.74    0.50 
   1   8  14    9.58    0.48 
   1   8  14    9.21    0.56 
  -2  -8 -14    0.90    0.14 
   2   8  14    1.01    0.12 
   2   8  14    1.08    0.18 
  -3  -8 -14   42.42    1.99 
   3   8  14   43.29    2.00 
   3   8  14   44.40    1.95 
   3   8  14   43.93    2.03 
   3   8  14   44.01    2.04 
  -4  -8 -14    0.00    0.06 
   4   8  14    0.08    0.07 
   4   8  14    0.10    0.14 
   4   8  14    0.07    0.09 
   4   8  14    0.11    0.18 
   4   8  14    0.10    0.10 
  -5  -8 -14    4.49    0.25 
   5   8  14    4.19    0.26 
   5   8  14    4.52    0.28 
   5   8  14    4.15    0.30 
   5   8  14    4.72    0.32 
   2  -9 -14    2.03    0.16 
   2  -9 -14    2.26    0.16 
  -2   9  14    2.37    0.18 
   1  -9 -14    4.30    0.26 
   1  -9 -14    3.87    0.24 
  -1   9  14    4.10    0.33 
  -1   9  14    4.47    0.27 
   0  -9 -14   11.29    0.61 
   0  -9 -14   11.98    0.60 
   0   9  14   12.60    0.68 
   0   9  14   12.73    0.60 
  -1  -9 -14    0.18    0.09 
   1   9  14   -0.01    0.13 
   1   9  14    0.01    0.07 
  -2  -9 -14    1.17    0.15 
   2   9  14    1.01    0.12 
   2   9  14    1.05    0.18 
  -3  -9 -14   19.01    0.90 
   3   9  14   18.26    0.99 
   3   9  14   19.72    0.94 
   3   9  14   20.35    0.89 
   3   9  14   17.91    0.95 
  -4  -9 -14    8.16    0.41 
   4   9  14    8.34    0.48 
   4   9  14    8.40    0.46 
   4   9  14    8.92    0.51 
  -5  -9 -14    3.92    0.22 
   5   9  14    3.76    0.25 
   5   9  14    3.47    0.22 
   5   9  14    3.83    0.28 
   2 -10 -14    2.20    0.15 
  -2  10  14    2.06    0.16 
   1 -10 -14    8.08    0.41 
   1 -10 -14    8.25    0.43 
  -1  10  14    8.62    0.43 
  -1  10  14    8.36    0.49 
   0 -10 -14    9.90    0.52 
   0 -10 -14   10.12    0.51 
   0  10  14   10.65    0.59 
   0  10  14   10.35    0.51 
  -1 -10 -14   22.29    1.03 
   1  10  14   23.02    1.10 
   1  10  14   20.53    1.00 
  -2 -10 -14   25.48    1.16 
   2  10  14   23.15    1.13 
   2  10  14   26.21    1.22 
  -3 -10 -14    2.71    0.22 
   3  10  14    2.87    0.23 
   3  10  14    3.06    0.26 
   4  10  14   15.67    0.77 
   4  10  14   15.34    0.81 
   4  10  14   16.84    0.80 
   1 -11 -14    2.62    0.17 
   1 -11 -14    3.11    0.19 
  -1  11  14    2.78    0.24 
  -1  11  14    3.06    0.19 
   0 -11 -14    0.55    0.10 
   0 -11 -14    0.47    0.09 
   0  11  14    0.42    0.13 
   0  11  14    0.40    0.09 
  -1 -11 -14    0.32    0.09 
   1  11  14    0.16    0.12 
   1  11  14    0.15    0.08 
  -2 -11 -14   -0.03    0.08 
   2  11  14    0.06    0.10 
  -3 -11 -14    4.45    0.28 
   3  11  14    4.78    0.29 
   3  11  14    4.59    0.31 
   4  11  14    3.09    0.22 
   4  11  14    3.64    0.24 
   1 -12 -14    1.26    0.11 
   0 -12 -14    0.27    0.07 
   0 -12 -14    0.25    0.07 
   0  12  14    0.31    0.12 
  -1 -12 -14    2.58    0.18 
   1  12  14    2.59    0.23 
  -2 -12 -14    3.59    0.23 
   2  12  14    3.70    0.27 
  -3 -12 -14    7.32    0.38 
   3  12  14    7.51    0.40 
   3  12  14    7.60    0.42 
   0  13  14    5.23    0.32 
  -1 -13 -14    9.34    0.46 
   1  13  14   10.01    0.51 
  -2 -13 -14    4.10    0.24 
   2  13  14    4.49    0.28 
  -3 -13 -14    2.43    0.21 
   3  13  14    2.27    0.23 
   2   8 -15    0.24    0.06 
  -2  -8  15    0.17    0.06 
   1   8 -15    1.00    0.10 
  -1  -8  15    0.80    0.08 
  -1  -8  15    0.73    0.10 
   0   8 -15    1.09    0.11 
   0  -8  15    0.83    0.10 
   0  -8  15    1.20    0.09 
  -1   8 -15    6.51    0.33 
  -1   8 -15    6.00    0.38 
   1  -8  15    6.34    0.30 
   2   7 -15    0.29    0.07 
  -2  -7  15    0.28    0.06 
  -2  -7  15    0.33    0.06 
   1   7 -15    0.30    0.08 
  -1  -7  15    0.26    0.07 
  -1  -7  15    0.24    0.06 
   0   7 -15    8.69    0.42 
   0  -7  15    8.69    0.40 
   0  -7  15    7.49    0.41 
  -1   7 -15   -0.04    0.07 
  -1   7 -15    0.03    0.07 
   1  -7  15    0.07    0.04 
  -2   7 -15    0.11    0.06 
   2  -7  15   -0.03    0.04 
   3   6 -15    1.31    0.11 
   3   6 -15    1.18    0.10 
   3   6 -15    1.29    0.11 
  -3  -6  15    1.09    0.10 
  -3  -6  15    1.16    0.10 
   2   6 -15    0.07    0.06 
   2   6 -15    0.07    0.07 
  -2  -6  15    0.05    0.06 
  -2  -6  15    0.04    0.05 
   1   6 -15    0.71    0.11 
  -1  -6  15    0.72    0.08 
  -1  -6  15    0.54    0.09 
   0   6 -15    0.04    0.07 
   0  -6  15    0.16    0.06 
   0  -6  15    0.17    0.08 
  -1   6 -15    0.67    0.11 
  -1   6 -15    1.00    0.12 
   1  -6  15    1.02    0.10 
  -2   6 -15    1.81    0.14 
  -2   6 -15    1.62    0.14 
   2  -6  15    1.67    0.14 
   2  -6  15    2.00    0.13 
  -3   6 -15    0.27    0.06 
   3  -6  15    0.20    0.05 
   3   5 -15    0.52    0.08 
   3   5 -15    0.42    0.07 
   3   5 -15    0.59    0.08 
  -3  -5  15    0.64    0.08 
  -3  -5  15    0.55    0.07 
   2   5 -15    5.19    0.30 
   2   5 -15    4.66    0.28 
   2   5 -15    5.07    0.29 
  -2  -5  15    4.84    0.26 
  -2  -5  15    5.41    0.29 
  -2  -5  15    5.52    0.27 
   1   5 -15   12.27    0.58 
   1   5 -15   11.41    0.59 
  -1  -5  15   11.48    0.58 
  -1  -5  15   11.98    0.56 
   0   5 -15   17.97    0.85 
   0  -5  15   18.32    0.84 
  -1   5 -15    0.06    0.07 
   1  -5  15    0.09    0.06 
   1  -5  15    0.05    0.08 
  -2   5 -15   26.64    1.19 
  -2   5 -15   25.23    1.19 
   2  -5  15   25.76    1.18 
   2  -5  15   27.15    1.20 
  -3   5 -15   19.86    0.91 
   3  -5  15   19.87    0.91 
   3   4 -15    1.45    0.12 
   3   4 -15    1.56    0.14 
   3   4 -15    1.47    0.13 
  -3  -4  15    1.34    0.11 
  -3  -4  15    1.48    0.11 
   2   4 -15    0.72    0.11 
   2   4 -15    0.82    0.11 
   2   4 -15    1.04    0.13 
   2   4 -15    0.83    0.12 
  -2  -4  15    0.86    0.10 
  -2  -4  15    0.87    0.10 
   1   4 -15   12.20    0.60 
   1   4 -15   11.51    0.60 
  -1  -4  15   12.57    0.57 
   0   4 -15    0.89    0.12 
   0  -4  15    0.66    0.09 
   0  -4  15    0.48    0.11 
  -1   4 -15    2.95    0.19 
   1  -4  15    2.81    0.18 
   1  -4  15    2.17    0.20 
  -2   4 -15    3.02    0.21 
  -2   4 -15    3.33    0.21 
   2  -4  15    3.31    0.22 
   2  -4  15    3.36    0.20 
  -3   4 -15    4.74    0.25 
  -3   4 -15    4.59    0.26 
   3  -4  15    4.57    0.26 
   3  -4  15    4.50    0.24 
  -4   4 -15    0.20    0.06 
   4  -4  15    0.22    0.05 
   4   3 -15    1.27    0.10 
   4   3 -15    1.19    0.11 
   4   3 -15    1.24    0.10 
   3   3 -15    4.71    0.27 
   3   3 -15    4.33    0.26 
   3   3 -15    4.60    0.26 
   3   3 -15    4.73    0.25 
  -3  -3  15    4.69    0.24 
  -3  -3  15    4.66    0.24 
   2   3 -15    0.02    0.07 
   2   3 -15    0.01    0.09 
   2   3 -15    0.04    0.06 
   2   3 -15    0.13    0.06 
   2   3 -15    0.06    0.08 
  -2  -3  15    0.04    0.05 
  -2  -3  15   -0.04    0.05 
   1   3 -15    5.82    0.32 
   1   3 -15    5.27    0.33 
  -1  -3  15    6.00    0.30 
  -1  -3  15    5.11    0.31 
  -1  -3  15    5.45    0.30 
   0   3 -15   -0.01    0.07 
   0  -3  15    0.04    0.06 
   0  -3  15    0.08    0.08 
  -1   3 -15    3.99    0.24 
   1  -3  15    3.62    0.25 
   1  -3  15    3.87    0.22 
  -2   3 -15   13.30    0.62 
  -2   3 -15   12.02    0.62 
   2  -3  15   12.45    0.61 
   2  -3  15   13.54    0.64 
  -3   3 -15    1.49    0.14 
  -3   3 -15    1.59    0.14 
   3  -3  15    1.86    0.16 
   3  -3  15    1.55    0.13 
  -4   3 -15    1.93    0.14 
   4  -3  15    1.94    0.14 
   4   2 -15    0.41    0.06 
   4   2 -15    0.53    0.08 
   4   2 -15    0.39    0.07 
   4   2 -15    0.40    0.07 
  -4  -2  15    0.64    0.07 
   3   2 -15    6.90    0.36 
   3   2 -15    7.19    0.36 
   3   2 -15    6.93    0.35 
   3   2 -15    6.94    0.38 
  -3  -2  15    6.86    0.34 
  -3  -2  15    6.91    0.34 
   2   2 -15    8.04    0.42 
   2   2 -15    7.80    0.41 
   2   2 -15    8.64    0.40 
   2   2 -15    7.60    0.43 
  -2  -2  15    7.42    0.41 
  -2  -2  15    8.21    0.39 
  -2  -2  15    8.19    0.40 
   1   2 -15   32.15    1.46 
   1   2 -15   32.69    1.47 
   1   2 -15   30.97    1.48 
   1   2 -15   34.09    1.46 
  -1  -2  15   33.48    1.45 
  -1  -2  15   31.24    1.45 
  -1  -2  15   31.92    1.47 
   0   2 -15    1.24    0.14 
   0  -2  15    1.15    0.12 
   0  -2  15    1.24    0.15 
  -1   2 -15   18.32    0.86 
   1  -2  15   18.23    0.84 
   1  -2  15   18.39    0.86 
  -2   2 -15   27.54    1.35 
  -2   2 -15   31.69    1.36 
   2  -2  15   29.51    1.34 
   2  -2  15   30.69    1.37 
  -3   2 -15    0.91    0.12 
  -3   2 -15    0.99    0.12 
   3  -2  15    0.90    0.11 
   3  -2  15    1.20    0.14 
  -4   2 -15   21.03    0.97 
   4  -2  15   21.12    0.97 
   4  -2  15   21.38    0.95 
   4   1 -15    1.25    0.10 
   4   1 -15    1.20    0.11 
   4   1 -15    1.09    0.11 
   4   1 -15    1.26    0.10 
  -4  -1  15    1.34    0.10 
   3   1 -15    7.02    0.35 
   3   1 -15    6.67    0.38 
   3   1 -15    6.95    0.37 
   3   1 -15    7.15    0.37 
  -3  -1  15    6.66    0.37 
  -3  -1  15    7.30    0.35 
   2   1 -15    9.43    0.48 
   2   1 -15    9.98    0.47 
   2   1 -15    9.62    0.48 
   2   1 -15    9.56    0.50 
  -2  -1  15    9.02    0.49 
  -2  -1  15    9.77    0.47 
   1   1 -15    0.28    0.09 
   1   1 -15    0.46    0.08 
   1   1 -15    0.29    0.10 
   1   1 -15    0.27    0.10 
  -1  -1  15    0.39    0.07 
  -1  -1  15    0.43    0.08 
  -1  -1  15    0.31    0.10 
   0   1 -15   33.10    1.49 
   0  -1  15   33.12    1.48 
   0  -1  15   33.04    1.50 
  -1   1 -15    0.43    0.08 
   1  -1  15    0.55    0.10 
   1  -1  15    0.44    0.08 
  -2   1 -15    5.63    0.29 
   2  -1  15    4.67    0.28 
   2  -1  15    5.14    0.29 
   2  -1  15    5.25    0.31 
  -3   1 -15   15.33    0.70 
  -3   1 -15   14.60    0.71 
   3  -1  15   14.50    0.77 
   3  -1  15   15.06    0.72 
   3  -1  15   14.71    0.70 
  -4   1 -15    0.37    0.08 
  -4   1 -15    0.52    0.08 
   4  -1  15    0.33    0.11 
   4  -1  15    0.42    0.07 
   4  -1  15    0.39    0.08 
  -5   1 -15    0.05    0.07 
   4   0 -15    2.87    0.18 
   4   0 -15    2.95    0.18 
   4   0 -15    3.00    0.18 
   4   0 -15    3.02    0.17 
   3   0 -15    7.51    0.39 
   3   0 -15    6.77    0.40 
   3   0 -15    7.38    0.39 
   3   0 -15    8.01    0.37 
  -3   0  15    7.19    0.39 
  -3   0  15    7.65    0.37 
   2   0 -15    5.50    0.29 
   2   0 -15    4.90    0.30 
   2   0 -15    5.09    0.32 
   2   0 -15    5.51    0.30 
  -2   0  15    5.28    0.28 
  -2   0  15    5.25    0.32 
   1   0 -15    5.17    0.28 
   1   0 -15    5.12    0.29 
  -1   0  15    5.04    0.27 
  -1   0  15    4.76    0.31 
   0   0 -15   55.08    2.52 
   0   0 -15   58.10    2.51 
   0   0  15   59.29    2.54 
   0   0  15   54.83    2.51 
  -1   0 -15   22.00    0.94 
   1   0  15   20.71    0.95 
   1   0  15   19.07    0.92 
   1   0  15   19.29    0.93 
  -2   0 -15    0.45    0.09 
   2   0  15    0.53    0.11 
   2   0  15    0.47    0.09 
  -3   0 -15   31.38    1.41 
  -3   0 -15   30.68    1.40 
   3   0  15   32.77    1.43 
   3   0  15   28.78    1.47 
   3   0  15   30.95    1.40 
  -4   0 -15    7.20    0.36 
  -4   0 -15    6.83    0.37 
   4   0  15    6.88    0.37 
   4   0  15    6.97    0.43 
   4   0  15    7.08    0.36 
  -5   0 -15    0.07    0.05 
   5   0  15    0.09    0.06 
   5   0  15    0.03    0.08 
   5   0  15    0.12    0.04 
   4  -1 -15    6.52    0.31 
   4  -1 -15    6.50    0.32 
   4  -1 -15    6.52    0.33 
   4  -1 -15    6.26    0.33 
  -4   1  15    6.41    0.33 
   3  -1 -15    4.33    0.25 
   3  -1 -15    4.07    0.25 
   3  -1 -15    3.99    0.27 
   3  -1 -15    4.41    0.24 
   3  -1 -15    4.24    0.24 
  -3   1  15    4.51    0.27 
  -3   1  15    4.46    0.24 
   2  -1 -15    0.20    0.07 
   2  -1 -15    0.03    0.06 
   2  -1 -15    0.13    0.07 
   2  -1 -15    0.03    0.08 
   2  -1 -15    0.08    0.08 
  -2   1  15    0.08    0.06 
  -2   1  15    0.03    0.10 
   1  -1 -15    0.40    0.09 
   1  -1 -15    0.34    0.08 
  -1   1  15    0.37    0.07 
  -1   1  15    0.24    0.11 
   0  -1 -15   12.80    0.59 
   0  -1 -15   11.54    0.59 
   0  -1 -15   12.79    0.60 
   0   1  15   11.82    0.58 
   0   1  15   13.71    0.62 
   0   1  15   11.79    0.61 
  -1  -1 -15    0.76    0.10 
   1   1  15    0.76    0.10 
   1   1  15    0.91    0.12 
  -2  -1 -15   22.65    1.01 
   2   1  15   21.63    1.01 
   2   1  15   21.35    1.02 
  -3  -1 -15    4.30    0.25 
   3   1  15    4.21    0.25 
   3   1  15    3.56    0.32 
   3   1  15    4.01    0.27 
  -4  -1 -15   10.61    0.48 
  -4  -1 -15   11.22    0.50 
   4   1  15    9.51    0.57 
   4   1  15    9.77    0.51 
   4   1  15   11.04    0.51 
   4   1  15    9.16    0.53 
  -5  -1 -15    0.04    0.05 
  -5  -1 -15    0.05    0.06 
   5   1  15    0.03    0.06 
   5   1  15    0.07    0.04 
   5   1  15    0.01    0.08 
   5   1  15    0.02    0.06 
   5   1  15    0.03    0.07 
   4  -2 -15    0.89    0.11 
   4  -2 -15    1.12    0.09 
   4  -2 -15    1.11    0.09 
   4  -2 -15    0.95    0.11 
  -4   2  15    1.05    0.13 
   3  -2 -15    2.34    0.17 
   3  -2 -15    2.25    0.17 
   3  -2 -15    2.10    0.18 
   3  -2 -15    2.32    0.16 
   3  -2 -15    2.24    0.17 
  -3   2  15    2.23    0.16 
  -3   2  15    2.47    0.21 
   2  -2 -15    1.63    0.16 
   2  -2 -15    2.22    0.17 
   2  -2 -15    1.99    0.16 
   2  -2 -15    2.02    0.18 
   2  -2 -15    2.14    0.17 
  -2   2  15    2.21    0.17 
  -2   2  15    2.22    0.21 
   1  -2 -15   14.95    0.68 
   1  -2 -15   14.51    0.68 
   1  -2 -15   14.29    0.66 
   1  -2 -15   13.72    0.71 
  -1   2  15   12.96    0.68 
  -1   2  15   15.13    0.70 
  -1   2  15   13.22    0.66 
   0  -2 -15    0.58    0.10 
   0  -2 -15    0.63    0.10 
   0   2  15    0.70    0.09 
   0   2  15    0.97    0.13 
   0   2  15    0.67    0.11 
  -1  -2 -15    0.00    0.07 
  -1  -2 -15   -0.01    0.22 
   1   2  15    0.05    0.08 
   1   2  15    0.08    0.07 
   1   2  15    0.13    0.17 
  -2  -2 -15   13.14    0.63 
   2   2  15   13.15    0.64 
   2   2  15   13.25    0.63 
  -3  -2 -15    1.37    0.14 
  -3  -2 -15    1.09    0.14 
   3   2  15    1.46    0.17 
   3   2  15    1.48    0.14 
   3   2  15    1.31    0.20 
  -4  -2 -15    0.28    0.08 
  -4  -2 -15    0.19    0.05 
   4   2  15    0.16    0.12 
   4   2  15    0.25    0.10 
   4   2  15    0.19    0.06 
   4   2  15    0.20    0.09 
  -5  -2 -15    0.31    0.07 
  -5  -2 -15    0.25    0.08 
   5   2  15    0.31    0.05 
   5   2  15    0.28    0.08 
   5   2  15    0.55    0.12 
   5   2  15    0.30    0.08 
   4  -3 -15   11.72    0.59 
   4  -3 -15   12.26    0.57 
   4  -3 -15   13.12    0.59 
   4  -3 -15   12.41    0.57 
  -4   3  15   13.39    0.59 
   3  -3 -15    0.43    0.09 
   3  -3 -15    0.49    0.08 
   3  -3 -15    0.45    0.09 
   3  -3 -15    0.42    0.09 
   3  -3 -15    0.54    0.09 
  -3   3  15    0.60    0.09 
  -3   3  15    0.42    0.11 
   2  -3 -15    5.19    0.32 
   2  -3 -15    5.10    0.31 
   2  -3 -15    5.35    0.29 
   2  -3 -15    5.57    0.31 
   2  -3 -15    5.77    0.31 
  -2   3  15    5.65    0.31 
  -2   3  15    4.89    0.32 
  -2   3  15    5.91    0.35 
   1  -3 -15    2.10    0.16 
   1  -3 -15    1.55    0.16 
   1  -3 -15    1.78    0.16 
   1  -3 -15    1.77    0.15 
  -1   3  15    1.64    0.15 
  -1   3  15    1.80    0.19 
  -1   3  15    1.96    0.20 
   0  -3 -15   47.68    2.02 
   0   3  15   39.14    2.36 
   0   3  15   46.18    2.02 
   0   3  15   45.43    2.01 
  -1  -3 -15    0.37    0.26 
  -1  -3 -15    0.37    0.09 
   1   3  15    0.41    0.21 
   1   3  15    0.58    0.11 
   1   3  15    0.48    0.09 
  -2  -3 -15    3.77    0.24 
   2   3  15    4.15    0.24 
   2   3  15    3.39    0.24 
  -3  -3 -15   35.73    1.60 
  -3  -3 -15   37.00    1.64 
   3   3  15   36.96    1.63 
   3   3  15   35.24    1.64 
   3   3  15   36.70    1.74 
   3   3  15   35.49    1.69 
  -4  -3 -15    0.46    0.09 
   4   3  15    0.62    0.14 
   4   3  15    0.46    0.12 
   4   3  15    0.50    0.09 
   4   3  15    0.41    0.14 
  -5  -3 -15    5.62    0.27 
  -5  -3 -15    5.90    0.29 
   5   3  15    5.52    0.31 
   5   3  15    5.24    0.31 
   5   3  15    5.28    0.35 
   5   3  15    5.72    0.29 
   3  -4 -15    2.62    0.18 
   3  -4 -15    3.00    0.18 
   3  -4 -15    2.67    0.18 
   3  -4 -15    2.57    0.20 
   3  -4 -15    2.78    0.17 
  -3   4  15    2.85    0.22 
  -3   4  15    2.54    0.22 
  -3   4  15    2.94    0.19 
   2  -4 -15    0.24    0.08 
   2  -4 -15    0.21    0.08 
   2  -4 -15    0.25    0.08 
   2  -4 -15    0.22    0.09 
   2  -4 -15    0.30    0.08 
  -2   4  15    0.12    0.11 
  -2   4  15    0.12    0.08 
  -2   4  15    0.25    0.12 
   1  -4 -15    9.95    0.49 
   1  -4 -15   10.21    0.50 
   1  -4 -15    9.24    0.48 
   1  -4 -15    9.44    0.50 
  -1   4  15    9.43    0.48 
  -1   4  15   10.01    0.52 
  -1   4  15    9.84    0.51 
   0  -4 -15    1.11    0.14 
   0   4  15    1.09    0.14 
   0   4  15    1.10    0.13 
  -1  -4 -15    2.68    0.20 
   1   4  15    3.25    0.20 
   1   4  15    2.65    0.20 
  -2  -4 -15    7.97    0.40 
   2   4  15    7.43    0.47 
   2   4  15    8.14    0.40 
   2   4  15    7.52    0.41 
  -3  -4 -15   10.15    0.50 
  -3  -4 -15    9.47    0.46 
   3   4  15    9.62    0.59 
   3   4  15   10.14    0.49 
   3   4  15    9.33    0.55 
  -4  -4 -15    3.17    0.21 
  -4  -4 -15    2.85    0.17 
   4   4  15    3.21    0.20 
   4   4  15    2.82    0.23 
   4   4  15    2.75    0.29 
   4   4  15    3.32    0.31 
   4   4  15    2.75    0.24 
  -5  -4 -15    1.81    0.12 
  -5  -4 -15    2.14    0.14 
   5   4  15    1.70    0.19 
   5   4  15    1.99    0.13 
   5   4  15    1.78    0.16 
   5   4  15    1.68    0.16 
   3  -5 -15    9.32    0.47 
   3  -5 -15    8.97    0.45 
   3  -5 -15    8.68    0.47 
   3  -5 -15    9.15    0.46 
   3  -5 -15   10.19    0.46 
  -3   5  15    9.12    0.47 
  -3   5  15   10.07    0.49 
  -3   5  15    9.58    0.46 
   2  -5 -15    1.32    0.13 
   2  -5 -15    1.02    0.15 
   2  -5 -15    1.11    0.13 
   2  -5 -15    1.47    0.14 
   2  -5 -15    1.20    0.14 
  -2   5  15    1.12    0.16 
  -2   5  15    1.21    0.16 
  -2   5  15    1.29    0.15 
   1  -5 -15    4.70    0.29 
   1  -5 -15    5.10    0.29 
   1  -5 -15    5.06    0.29 
  -1   5  15    5.18    0.31 
  -1   5  15    4.80    0.32 
   0  -5 -15   -0.01    0.07 
   0   5  15    0.07    0.08 
   0   5  15    0.15    0.10 
  -1  -5 -15    3.87    0.24 
   1   5  15    3.43    0.23 
   1   5  15    3.40    0.23 
  -2  -5 -15   36.08    1.65 
   2   5  15   37.27    1.74 
   2   5  15   36.74    1.65 
   2   5  15   36.55    1.72 
  -3  -5 -15    0.40    0.08 
  -3  -5 -15    0.59    0.11 
   3   5  15    0.42    0.08 
   3   5  15    0.35    0.17 
   3   5  15    0.45    0.14 
  -4  -5 -15   13.67    0.65 
  -4  -5 -15   13.16    0.62 
   4   5  15   14.47    0.75 
   4   5  15   13.55    0.64 
   4   5  15   13.28    0.70 
   4   5  15   12.85    0.72 
   4   5  15   12.31    0.67 
  -5  -5 -15    4.03    0.22 
   5   5  15    3.93    0.22 
   5   5  15    4.08    0.29 
   5   5  15    4.03    0.26 
   5   5  15    3.70    0.24 
   3  -6 -15    2.39    0.17 
   3  -6 -15    2.19    0.15 
   3  -6 -15    2.25    0.16 
   3  -6 -15    2.29    0.15 
   3  -6 -15    2.46    0.16 
  -3   6  15    2.52    0.19 
  -3   6  15    2.32    0.16 
  -3   6  15    2.41    0.18 
   2  -6 -15   17.33    0.83 
   2  -6 -15   17.86    0.82 
   2  -6 -15   17.92    0.85 
  -2   6  15   18.51    0.85 
  -2   6  15   17.78    0.86 
  -2   6  15   17.13    0.83 
   1  -6 -15    9.53    0.50 
   1  -6 -15    9.55    0.49 
   1  -6 -15    9.90    0.50 
  -1   6  15   10.20    0.52 
  -1   6  15   10.01    0.52 
   0  -6 -15    6.57    0.36 
   0   6  15    6.96    0.37 
   0   6  15    5.86    0.36 
  -1  -6 -15    5.67    0.32 
   1   6  15    4.77    0.38 
   1   6  15    5.68    0.31 
  -2  -6 -15   62.46    2.82 
  -2  -6 -15   62.94    2.83 
   2   6  15   65.36    2.91 
   2   6  15   64.18    2.91 
   2   6  15   64.26    2.83 
  -3  -6 -15    4.73    0.30 
   3   6  15    5.01    0.28 
   3   6  15    4.74    0.34 
   3   6  15    5.12    0.40 
  -4  -6 -15   14.51    0.66 
  -4  -6 -15   15.26    0.69 
   4   6  15   12.84    0.76 
   4   6  15   13.27    0.71 
   4   6  15   14.33    0.74 
   4   6  15   14.62    0.68 
   4   6  15   14.93    0.78 
  -5  -6 -15    8.90    0.42 
   5   6  15    7.90    0.47 
   5   6  15    8.14    0.45 
   5   6  15    8.20    0.44 
   5   6  15    9.79    0.50 
   5   6  15    8.50    0.41 
   3  -7 -15    0.47    0.07 
   3  -7 -15    0.47    0.08 
   3  -7 -15    0.53    0.07 
  -3   7  15    0.54    0.09 
  -3   7  15    0.51    0.08 
   2  -7 -15    0.36    0.08 
   2  -7 -15    0.33    0.08 
   2  -7 -15    0.55    0.09 
  -2   7  15    0.35    0.10 
  -2   7  15    0.27    0.11 
   1  -7 -15    0.91    0.12 
   1  -7 -15    1.07    0.12 
   1  -7 -15    0.84    0.12 
  -1   7  15    1.02    0.14 
  -1   7  15    1.10    0.14 
   0  -7 -15   11.18    0.56 
   0   7  15   10.13    0.58 
   0   7  15   10.76    0.65 
   0   7  15   12.22    0.57 
  -1  -7 -15    6.71    0.37 
   1   7  15    6.35    0.35 
   1   7  15    6.40    0.43 
  -2  -7 -15    2.44    0.20 
   2   7  15    2.41    0.26 
   2   7  15    2.51    0.18 
  -3  -7 -15   21.06    0.98 
   3   7  15   20.68    1.07 
   3   7  15   21.10    1.05 
   3   7  15   21.50    0.98 
  -4  -7 -15    5.07    0.29 
  -4  -7 -15    4.58    0.26 
   4   7  15    5.08    0.32 
   4   7  15    4.95    0.33 
   4   7  15    5.62    0.39 
   4   7  15    4.96    0.28 
  -5  -7 -15    2.93    0.16 
   5   7  15    2.10    0.18 
   5   7  15    2.27    0.18 
   5   7  15    2.48    0.23 
   5   7  15    2.22    0.22 
   2  -8 -15    0.31    0.07 
   2  -8 -15    0.21    0.07 
   2  -8 -15    0.24    0.07 
  -2   8  15    0.35    0.09 
  -2   8  15    0.20    0.10 
   1  -8 -15    1.11    0.13 
   1  -8 -15    1.51    0.14 
  -1   8  15    0.89    0.14 
  -1   8  15    1.40    0.15 
   0  -8 -15   23.34    1.08 
   0   8  15   22.29    1.15 
   0   8  15   24.22    1.08 
  -1  -8 -15   14.33    0.69 
   1   8  15   13.97    0.76 
   1   8  15   13.91    0.67 
  -2  -8 -15    2.92    0.22 
   2   8  15    2.85    0.26 
   2   8  15    2.84    0.19 
  -3  -8 -15    9.17    0.47 
   3   8  15    9.34    0.46 
   3   8  15    8.37    0.55 
   3   8  15    9.96    0.54 
  -4  -8 -15    1.37    0.14 
   4   8  15    1.41    0.13 
   4   8  15    1.19    0.16 
   4   8  15    1.24    0.20 
   4   8  15    1.27    0.16 
  -5  -8 -15    0.09    0.06 
   5   8  15    0.09    0.11 
   5   8  15    0.05    0.07 
   5   8  15    0.03    0.07 
   2  -9 -15    0.80    0.09 
   2  -9 -15    0.59    0.09 
  -2   9  15    0.76    0.10 
   1  -9 -15    0.43    0.08 
   1  -9 -15    0.40    0.08 
  -1   9  15    0.31    0.14 
  -1   9  15    0.22    0.09 
   0  -9 -15    0.43    0.09 
   0  -9 -15    0.36    0.10 
   0   9  15    0.40    0.15 
   0   9  15    0.41    0.09 
  -1  -9 -15   17.58    0.84 
   1   9  15   17.49    0.82 
   1   9  15   17.52    0.90 
  -2  -9 -15    6.92    0.38 
   2   9  15    7.14    0.44 
   2   9  15    6.59    0.35 
  -3  -9 -15   10.58    0.55 
   3   9  15   11.61    0.61 
   3   9  15   11.31    0.54 
  -4  -9 -15    6.28    0.33 
   4   9  15    6.24    0.41 
   4   9  15    6.29    0.37 
   4   9  15    6.01    0.35 
   5   9  15    0.25    0.09 
   2 -10 -15    0.10    0.05 
  -2  10  15    0.23    0.07 
   1 -10 -15    8.56    0.44 
   1 -10 -15    8.72    0.43 
  -1  10  15    8.84    0.49 
  -1  10  15    9.18    0.44 
   0 -10 -15    7.64    0.39 
   0 -10 -15    6.79    0.40 
   0  10  15    7.64    0.39 
   0  10  15    8.49    0.47 
  -1 -10 -15    0.14    0.08 
   1  10  15    0.17    0.07 
   1  10  15    0.14    0.13 
  -2 -10 -15    5.10    0.30 
   2  10  15    5.33    0.35 
   2  10  15    4.47    0.27 
  -3 -10 -15    0.99    0.14 
   3  10  15    1.53    0.18 
  -4 -10 -15    0.10    0.07 
   4  10  15    0.06    0.14 
   4  10  15    0.14    0.09 
   4  10  15    0.12    0.08 
   1 -11 -15    3.63    0.21 
   1 -11 -15    4.16    0.22 
  -1  11  15    3.62    0.26 
  -1  11  15    3.96    0.21 
   0 -11 -15   13.29    0.64 
   0 -11 -15   13.67    0.65 
   0  11  15   13.52    0.63 
   0  11  15   13.56    0.70 
  -1 -11 -15   14.84    0.71 
   1  11  15   15.40    0.77 
   1  11  15   14.52    0.69 
  -2 -11 -15    3.38    0.22 
   2  11  15    3.48    0.27 
  -3 -11 -15   16.43    0.78 
   3  11  15   17.07    0.82 
   4  11  15    6.73    0.37 
   0 -12 -15    0.92    0.11 
   0 -12 -15    0.81    0.09 
   0  12  15    0.97    0.15 
  -1 -12 -15    0.06    0.07 
   1  12  15    0.20    0.10 
  -2 -12 -15    0.08    0.07 
   2  12  15    0.06    0.09 
  -3 -12 -15    0.58    0.09 
   3  12  15    0.54    0.11 
  -1 -13 -15    7.04    0.37 
   1  13  15    6.93    0.38 
  -2 -13 -15   22.14    1.01 
   2  13  15   22.64    1.04 
   1   8 -16   14.99    0.71 
   0   8 -16    1.08    0.11 
  -2  -7  16    1.98    0.16 
   1   7 -16    0.00    0.06 
  -1  -7  16    0.01    0.04 
  -1  -7  16    0.04    0.06 
   0   7 -16    0.09    0.06 
   0  -7  16    0.10    0.05 
  -1   7 -16    0.70    0.10 
   2   6 -16    1.49    0.13 
  -2  -6  16    1.19    0.12 
  -2  -6  16    1.51    0.10 
   1   6 -16   -0.04    0.06 
  -1  -6  16    0.00    0.05 
  -1  -6  16    0.02    0.06 
   0   6 -16    0.80    0.11 
   0  -6  16    0.82    0.09 
  -1   6 -16    2.56    0.17 
   1  -6  16    2.68    0.16 
  -2   6 -16    0.90    0.11 
  -2   6 -16    0.77    0.10 
   2  -6  16    0.84    0.08 
   3   5 -16    0.69    0.09 
   3   5 -16    0.48    0.08 
  -3  -5  16    0.79    0.09 
  -3  -5  16    0.69    0.08 
   2   5 -16    0.67    0.09 
   2   5 -16    0.53    0.09 
  -2  -5  16    0.35    0.08 
  -2  -5  16    0.64    0.07 
   1   5 -16    3.06    0.20 
   1   5 -16    2.82    0.20 
  -1  -5  16    2.61    0.19 
  -1  -5  16    2.84    0.17 
   0   5 -16   19.48    0.92 
   0  -5  16   20.14    0.91 
  -1   5 -16    9.13    0.45 
   1  -5  16    9.29    0.44 
   1  -5  16    8.45    0.45 
  -2   5 -16    1.81    0.14 
  -2   5 -16    1.50    0.13 
   2  -5  16    1.70    0.12 
   2  -5  16    1.80    0.14 
  -3   5 -16    9.17    0.44 
   3   4 -16    0.03    0.05 
   3   4 -16    0.03    0.05 
   3   4 -16   -0.02    0.05 
  -3  -4  16    0.00    0.04 
   2   4 -16    2.52    0.18 
   2   4 -16    2.53    0.19 
   2   4 -16    2.38    0.17 
  -2  -4  16    2.65    0.16 
   1   4 -16   19.41    0.89 
   1   4 -16   18.14    0.89 
  -1  -4  16   19.72    0.87 
  -1  -4  16   18.43    0.88 
   0   4 -16    0.03    0.07 
   0  -4  16    0.12    0.09 
   0  -4  16    0.15    0.06 
  -1   4 -16   15.92    0.74 
   1  -4  16   15.54    0.73 
   1  -4  16   15.50    0.74 
  -2   4 -16    2.80    0.18 
  -2   4 -16    2.49    0.18 
   2  -4  16    2.70    0.17 
   2  -4  16    2.84    0.19 
  -3   4 -16    4.21    0.23 
  -3   4 -16    4.28    0.24 
   3  -4  16    4.19    0.24 
   3  -4  16    4.29    0.22 
   3   3 -16    0.05    0.05 
   3   3 -16    0.09    0.05 
   3   3 -16    0.13    0.06 
  -3  -3  16    0.06    0.04 
  -3  -3  16    0.08    0.05 
   2   3 -16    3.39    0.23 
   2   3 -16    3.68    0.24 
   2   3 -16    3.88    0.23 
  -2  -3  16    3.64    0.20 
  -2  -3  16    3.75    0.21 
   1   3 -16   15.48    0.72 
   1   3 -16   14.66    0.72 
  -1  -3  16   15.01    0.69 
  -1  -3  16   14.59    0.71 
   0   3 -16    5.08    0.30 
   0  -3  16    5.40    0.28 
   0  -3  16    5.23    0.30 
  -1   3 -16    0.09    0.07 
   1  -3  16    0.02    0.06 
   1  -3  16    0.05    0.08 
  -2   3 -16    5.80    0.31 
   2  -3  16    5.20    0.29 
   2  -3  16    5.58    0.32 
  -3   3 -16    1.63    0.14 
  -3   3 -16    1.74    0.14 
   3  -3  16    1.91    0.15 
  -4   3 -16    0.00    0.05 
   4  -3  16    0.02    0.04 
   3   2 -16    0.80    0.11 
   3   2 -16    0.77    0.09 
   3   2 -16    0.84    0.10 
   3   2 -16    0.82    0.09 
  -3  -2  16    0.78    0.09 
  -3  -2  16    0.75    0.09 
   2   2 -16    1.02    0.13 
   2   2 -16    1.06    0.14 
   2   2 -16    0.84    0.12 
   2   2 -16    1.23    0.11 
  -2  -2  16    0.98    0.13 
  -2  -2  16    1.15    0.11 
  -2  -2  16    1.12    0.11 
   1   2 -16    4.11    0.27 
   1   2 -16    3.76    0.25 
   1   2 -16    4.15    0.25 
   1   2 -16    4.17    0.24 
  -1  -2  16    4.24    0.24 
  -1  -2  16    4.24    0.26 
   0   2 -16    4.35    0.26 
   0  -2  16    4.29    0.24 
   0  -2  16    4.35    0.27 
  -1   2 -16    0.21    0.08 
   1  -2  16    0.02    0.06 
   1  -2  16    0.08    0.08 
  -2   2 -16   16.42    0.77 
   2  -2  16   15.50    0.76 
   2  -2  16   17.58    0.79 
  -3   2 -16    4.43    0.27 
  -3   2 -16    5.33    0.27 
   3  -2  16    4.92    0.28 
  -4   2 -16    0.11    0.06 
   4  -2  16    0.11    0.05 
   4  -2  16    0.17    0.06 
   3   1 -16    7.03    0.38 
   3   1 -16    7.44    0.36 
   3   1 -16    7.51    0.37 
   3   1 -16    6.90    0.37 
  -3  -1  16    7.23    0.35 
  -3  -1  16    7.56    0.35 
   2   1 -16    0.03    0.07 
   2   1 -16    0.01    0.06 
   2   1 -16   -0.02    0.07 
   2   1 -16   -0.01    0.06 
  -2  -1  16    0.03    0.08 
  -2  -1  16    0.01    0.05 
  -2  -1  16    0.01    0.05 
   1   1 -16    0.03    0.08 
   1   1 -16    0.05    0.09 
   1   1 -16    0.19    0.07 
  -1  -1  16    0.19    0.09 
  -1  -1  16    0.15    0.07 
  -1  -1  16    0.18    0.07 
   0   1 -16    3.69    0.23 
   0  -1  16    3.74    0.24 
   0  -1  16    3.55    0.21 
  -1   1 -16    3.51    0.22 
   1  -1  16    3.25    0.20 
   1  -1  16    3.61    0.24 
  -2   1 -16    0.90    0.12 
   2  -1  16    0.79    0.12 
  -3   1 -16    3.74    0.22 
  -3   1 -16    3.15    0.21 
   3  -1  16    3.57    0.21 
   3  -1  16    3.66    0.23 
  -4   1 -16    0.15    0.06 
  -4   1 -16    0.23    0.07 
   4  -1  16    0.14    0.07 
   4  -1  16    0.13    0.05 
   3   0 -16    3.49    0.21 
   3   0 -16    3.34    0.21 
   3   0 -16    3.37    0.19 
   3   0 -16    3.10    0.22 
  -3   0  16    3.24    0.21 
  -3   0  16    3.41    0.19 
   2   0 -16    4.78    0.27 
   2   0 -16    4.82    0.26 
   2   0 -16    4.27    0.28 
   2   0 -16    4.38    0.27 
  -2   0  16    4.57    0.28 
  -2   0  16    4.76    0.25 
   1   0 -16    8.44    0.44 
   1   0 -16    8.85    0.43 
  -1   0  16    8.70    0.45 
  -1   0  16    8.03    0.42 
  -1   0  16    8.61    0.42 
   0   0 -16    0.38    0.09 
   0   0  16    0.10    0.06 
   0   0  16    0.34    0.10 
  -1   0 -16   11.66    0.55 
   1   0  16   11.69    0.56 
   1   0  16   10.28    0.53 
  -2   0 -16   18.04    0.83 
   2   0  16   17.71    0.84 
   2   0  16   17.34    0.82 
  -3   0 -16    0.60    0.09 
  -3   0 -16    0.47    0.09 
   3   0  16    0.44    0.13 
   3   0  16    0.46    0.08 
   3   0  16    0.40    0.09 
  -4   0 -16    7.73    0.41 
  -4   0 -16    8.72    0.41 
   4   0  16    8.04    0.46 
   4   0  16    8.27    0.42 
   4   0  16    8.64    0.40 
   3  -1 -16   13.18    0.64 
   3  -1 -16   13.67    0.63 
   3  -1 -16   13.74    0.64 
   3  -1 -16   12.91    0.65 
  -3   1  16   13.45    0.64 
  -3   1  16   13.72    0.63 
   2  -1 -16    0.18    0.08 
   2  -1 -16    0.25    0.07 
   2  -1 -16    0.04    0.06 
   2  -1 -16    0.14    0.08 
  -2   1  16    0.23    0.10 
  -2   1  16    0.12    0.06 
   1  -1 -16    1.26    0.14 
   1  -1 -16    0.93    0.11 
  -1   1  16    1.04    0.12 
  -1   1  16    1.00    0.14 
   0  -1 -16    4.38    0.25 
   0  -1 -16    4.09    0.25 
   0  -1 -16    4.01    0.26 
   0   1  16    4.10    0.26 
   0   1  16    4.16    0.23 
  -1  -1 -16    0.91    0.12 
   1   1  16    0.76    0.10 
   1   1  16    0.91    0.12 
  -2  -1 -16   20.52    0.94 
   2   1  16   19.84    0.94 
   2   1  16   20.54    0.95 
  -3  -1 -16    0.86    0.11 
  -3  -1 -16    0.65    0.15 
   3   1  16    0.61    0.11 
   3   1  16    0.91    0.11 
   3   1  16    0.73    0.17 
  -4  -1 -16    0.02    0.06 
  -4  -1 -16    0.09    0.06 
   4   1  16    0.03    0.07 
   4   1  16   -0.01    0.10 
   4   1  16    0.02    0.05 
  -5  -1 -16    0.79    0.10 
   5   1  16    0.90    0.07 
   5   1  16    0.49    0.11 
   3  -2 -16    0.01    0.05 
   3  -2 -16    0.06    0.07 
   3  -2 -16    0.05    0.07 
   3  -2 -16    0.09    0.06 
   3  -2 -16    0.12    0.06 
  -3   2  16    0.07    0.05 
  -3   2  16    0.11    0.08 
   2  -2 -16    0.51    0.08 
   2  -2 -16    0.41    0.10 
   2  -2 -16    0.44    0.09 
   2  -2 -16    0.45    0.09 
   2  -2 -16    0.50    0.09 
  -2   2  16    0.36    0.11 
  -2   2  16    0.41    0.08 
   1  -2 -16    1.52    0.15 
   1  -2 -16    1.39    0.14 
  -1   2  16    1.36    0.13 
  -1   2  16    1.37    0.17 
   0  -2 -16   10.22    0.49 
   0   2  16    9.61    0.48 
   0   2  16    8.49    0.46 
   0   2  16   10.15    0.50 
  -1  -2 -16    9.52    0.49 
   1   2  16    9.95    0.49 
   1   2  16   10.51    0.50 
  -2  -2 -16    0.20    0.08 
   2   2  16    0.21    0.08 
   2   2  16    0.19    0.08 
  -3  -2 -16    2.68    0.19 
   3   2  16    2.86    0.21 
   3   2  16    2.87    0.19 
  -4  -2 -16    0.52    0.09 
   4   2  16    0.48    0.15 
   4   2  16    0.37    0.09 
   4   2  16    0.46    0.07 
   4   2  16    0.32    0.10 
  -5  -2 -16    0.08    0.06 
  -5  -2 -16    0.06    0.05 
   5   2  16    0.05    0.08 
   5   2  16    0.06    0.09 
   5   2  16    0.08    0.04 
   3  -3 -16    9.02    0.43 
   3  -3 -16    9.26    0.44 
   3  -3 -16    8.24    0.45 
   3  -3 -16    8.56    0.44 
   3  -3 -16    8.85    0.44 
  -3   3  16    9.44    0.44 
  -3   3  16    9.22    0.46 
   2  -3 -16    5.98    0.33 
   2  -3 -16    5.45    0.34 
   2  -3 -16    6.19    0.32 
   2  -3 -16    6.36    0.33 
   2  -3 -16    6.43    0.34 
  -2   3  16    6.19    0.33 
  -2   3  16    6.18    0.36 
   1  -3 -16    0.24    0.08 
   1  -3 -16    0.35    0.09 
  -1   3  16    0.30    0.11 
  -1   3  16    0.15    0.08 
  -1   3  16    0.29    0.09 
   0  -3 -16   20.01    0.89 
   0   3  16   18.25    0.89 
   0   3  16   18.06    0.88 
  -1  -3 -16   70.86    3.21 
   1   3  16   72.70    3.22 
   1   3  16   75.19    3.22 
  -2  -3 -16    0.03    0.07 
   2   3  16    0.11    0.08 
   2   3  16    0.05    0.06 
  -3  -3 -16   25.12    1.14 
   3   3  16   24.39    1.15 
   3   3  16   25.25    1.14 
  -4  -3 -16   17.91    0.81 
   4   3  16   18.08    0.81 
   4   3  16   16.68    0.85 
   4   3  16   16.95    0.88 
  -5  -3 -16    2.00    0.14 
  -5  -3 -16    2.42    0.14 
   5   3  16    2.05    0.16 
   5   3  16    2.08    0.20 
   5   3  16    2.34    0.13 
   3  -4 -16    0.02    0.05 
   3  -4 -16    0.02    0.07 
   3  -4 -16    0.08    0.06 
   3  -4 -16    0.05    0.05 
   3  -4 -16   -0.01    0.06 
  -3   4  16   -0.01    0.05 
  -3   4  16    0.01    0.08 
   2  -4 -16    3.63    0.22 
   2  -4 -16    3.63    0.28 
   2  -4 -16    3.70    0.23 
   2  -4 -16    3.86    0.24 
   2  -4 -16    4.16    0.24 
  -2   4  16    4.29    0.27 
  -2   4  16    3.34    0.25 
  -2   4  16    3.66    0.23 
   1  -4 -16   25.23    1.16 
   1  -4 -16   23.12    1.16 
   1  -4 -16   25.77    1.15 
  -1   4  16   26.49    1.18 
  -1   4  16   25.52    1.16 
   0  -4 -16    5.85    0.32 
   0   4  16    5.58    0.32 
   0   4  16    5.63    0.33 
  -1  -4 -16   40.05    1.76 
   1   4  16   40.51    1.76 
   1   4  16   36.95    1.76 
  -2  -4 -16   13.41    0.63 
   2   4  16   12.30    0.63 
   2   4  16   13.19    0.63 
  -3  -4 -16    3.68    0.23 
   3   4  16    3.34    0.28 
   3   4  16    3.09    0.26 
   3   4  16    3.78    0.22 
  -4  -4 -16   10.60    0.50 
   4   4  16    9.02    0.56 
   4   4  16    9.68    0.54 
   4   4  16   11.22    0.50 
  -5  -4 -16    0.49    0.07 
   5   4  16    0.28    0.08 
   5   4  16    0.31    0.05 
   5   4  16    0.24    0.11 
   3  -5 -16    3.39    0.22 
   3  -5 -16    3.50    0.20 
   3  -5 -16    3.67    0.21 
   3  -5 -16    3.77    0.20 
   3  -5 -16    3.88    0.21 
  -3   5  16    3.68    0.22 
  -3   5  16    3.82    0.23 
   2  -5 -16    4.45    0.25 
   2  -5 -16    4.41    0.26 
   2  -5 -16    4.34    0.26 
   2  -5 -16    3.91    0.24 
  -2   5  16    4.34    0.27 
  -2   5  16    4.56    0.29 
  -2   5  16    4.19    0.25 
   1  -5 -16    0.57    0.10 
   1  -5 -16    0.63    0.10 
   1  -5 -16    0.47    0.10 
  -1   5  16    0.54    0.11 
  -1   5  16    0.69    0.12 
   0  -5 -16   37.52    1.65 
   0   5  16   35.10    1.65 
   0   5  16   36.63    1.65 
  -1  -5 -16    2.70    0.20 
   1   5  16    2.85    0.19 
   1   5  16    2.29    0.20 
  -2  -5 -16   17.96    0.85 
   2   5  16   18.45    0.85 
   2   5  16   17.78    0.89 
   2   5  16   18.54    0.92 
  -3  -5 -16    5.51    0.30 
   3   5  16    5.50    0.30 
   3   5  16    4.85    0.35 
   3   5  16    5.68    0.41 
  -4  -5 -16    0.00    0.06 
   4   5  16    0.09    0.13 
   4   5  16    0.00    0.05 
   4   5  16   -0.06    0.08 
  -5  -5 -16    0.27    0.06 
   5   5  16    0.14    0.05 
   5   5  16    0.20    0.10 
   5   5  16    0.11    0.06 
   3  -6 -16    0.02    0.05 
   3  -6 -16    0.00    0.04 
  -3   6  16    0.05    0.07 
  -3   6  16   -0.04    0.07 
   2  -6 -16    1.89    0.15 
   2  -6 -16    2.10    0.15 
   2  -6 -16    1.91    0.15 
  -2   6  16    2.11    0.19 
  -2   6  16    1.87    0.17 
   1  -6 -16   10.83    0.51 
   1  -6 -16    9.39    0.52 
   1  -6 -16   10.25    0.52 
  -1   6  16   10.59    0.53 
  -1   6  16   11.27    0.54 
   0  -6 -16   24.76    1.10 
   0   6  16   22.19    1.10 
   0   6  16   24.43    1.10 
  -1  -6 -16    0.56    0.11 
   1   6  16    0.71    0.11 
   1   6  16    0.50    0.11 
  -2  -6 -16   45.82    2.11 
   2   6  16   48.28    2.12 
   2   6  16   48.24    2.19 
  -3  -6 -16    5.65    0.31 
   3   6  16    5.75    0.37 
   3   6  16    5.50    0.31 
   3   6  16    5.57    0.41 
  -4  -6 -16    0.41    0.08 
   4   6  16    0.33    0.07 
   4   6  16    0.47    0.15 
   4   6  16    0.19    0.09 
  -5  -6 -16    2.45    0.15 
   5   6  16    2.44    0.17 
   5   6  16    2.38    0.14 
   2  -7 -16    5.73    0.31 
   2  -7 -16    5.38    0.30 
   2  -7 -16    5.83    0.30 
  -2   7  16    5.72    0.31 
  -2   7  16    5.66    0.31 
   1  -7 -16    1.61    0.15 
   1  -7 -16    1.79    0.16 
  -1   7  16    1.76    0.18 
  -1   7  16    1.92    0.17 
   0  -7 -16    5.08    0.28 
   0   7  16    5.25    0.29 
   0   7  16    3.99    0.28 
  -1  -7 -16   35.97    1.54 
   1   7  16   33.89    1.53 
   1   7  16   31.59    1.59 
  -2  -7 -16    0.51    0.12 
   2   7  16    0.55    0.15 
   2   7  16    0.68    0.10 
  -3  -7 -16    5.40    0.30 
   3   7  16    5.85    0.30 
   3   7  16    5.41    0.36 
   3   7  16    5.25    0.40 
  -4  -7 -16    0.09    0.07 
   4   7  16    0.13    0.08 
   4   7  16    0.17    0.06 
   4   7  16    0.02    0.13 
  -5  -7 -16    2.31    0.14 
   5   7  16    1.76    0.15 
   2  -8 -16    5.20    0.28 
   2  -8 -16    5.40    0.28 
  -2   8  16    5.44    0.29 
  -2   8  16    5.27    0.29 
   1  -8 -16   15.70    0.74 
   1  -8 -16   15.81    0.75 
  -1   8  16   17.41    0.76 
  -1   8  16   14.20    0.76 
   0  -8 -16   14.16    0.69 
   0   8  16   15.97    0.70 
   0   8  16   13.10    0.81 
  -1  -8 -16   23.71    1.08 
   1   8  16   23.46    1.06 
   1   8  16   22.20    1.13 
  -2  -8 -16   33.25    1.49 
   2   8  16   33.26    1.55 
   2   8  16   31.77    1.47 
  -3  -8 -16    4.78    0.29 
   3   8  16    5.56    0.39 
   3   8  16    5.69    0.29 
   3   8  16    5.60    0.36 
  -4  -8 -16    6.20    0.32 
   4   8  16    6.35    0.40 
   4   8  16    5.82    0.36 
   4   8  16    6.13    0.31 
   2  -9 -16    2.84    0.17 
  -2   9  16    2.99    0.18 
   1  -9 -16    1.60    0.14 
   1  -9 -16    1.83    0.14 
  -1   9  16    1.79    0.15 
   0  -9 -16    5.01    0.28 
   0   9  16    5.20    0.28 
   0   9  16    4.42    0.34 
  -1  -9 -16    0.28    0.09 
   1   9  16    0.30    0.14 
   1   9  16    0.17    0.07 
  -2  -9 -16    3.74    0.24 
   2   9  16    3.72    0.29 
   2   9  16    3.74    0.22 
   3   9  16    1.09    0.12 
   3   9  16    0.84    0.14 
  -4  -9 -16   -0.04    0.06 
   4   9  16    0.06    0.08 
   4   9  16    0.04    0.13 
   1 -10 -16    2.55    0.17 
   1 -10 -16    2.81    0.17 
  -1  10  16    2.85    0.17 
   0 -10 -16    0.52    0.09 
   0  10  16    0.51    0.08 
   0  10  16    0.56    0.14 
  -1 -10 -16   30.44    1.39 
   1  10  16   29.64    1.37 
   1  10  16   31.90    1.45 
  -2 -10 -16    0.05    0.08 
   2  10  16    0.09    0.10 
   2  10  16    0.12    0.06 
  -3 -10 -16    0.25    0.09 
   3  10  16    0.28    0.10 
   4  10  16    5.87    0.33 
   0 -11 -16    4.81    0.25 
   0  11  16    4.55    0.30 
   0  11  16    4.58    0.24 
  -1 -11 -16   25.10    1.13 
   1  11  16   23.88    1.12 
   1  11  16   25.76    1.18 
  -2 -11 -16    0.56    0.09 
   2  11  16    0.75    0.13 
  -3 -11 -16    8.91    0.45 
   3  11  16    9.67    0.49 
  -1 -12 -16    2.30    0.15 
   1  12  16    2.22    0.19 
  -2 -12 -16    9.49    0.46 
   2  12  16    9.75    0.50 
   3  12  16    0.19    0.08 
   1   7 -17    0.41    0.07 
   0   7 -17    6.29    0.30 
   0  -7  17    5.50    0.28 
   1  -7  17    0.00    0.04 
   1   6 -17    0.11    0.06 
  -1  -6  17    0.04    0.04 
  -1  -6  17    0.04    0.06 
   0   6 -17    1.59    0.13 
   0  -6  17    1.29    0.11 
  -1   6 -17    0.37    0.07 
   1  -6  17    0.31    0.05 
   2  -6  17    0.47    0.08 
   2   5 -17    6.31    0.33 
  -2  -5  17    6.07    0.32 
  -2  -5  17    7.08    0.31 
   1   5 -17    0.58    0.09 
  -1  -5  17    0.33    0.07 
  -1  -5  17    0.54    0.07 
   0   5 -17    2.62    0.18 
   0  -5  17    2.84    0.17 
  -1   5 -17   14.96    0.62 
   1  -5  17   10.85    0.62 
  -2   5 -17    1.03    0.11 
   2  -5  17    1.11    0.09 
   2  -5  17    0.80    0.11 
   2   4 -17    4.95    0.27 
   2   4 -17    4.99    0.28 
  -2  -4  17    4.75    0.27 
  -2  -4  17    5.23    0.25 
   1   4 -17    7.45    0.38 
  -1  -4  17    6.73    0.38 
  -1  -4  17    7.65    0.36 
   0   4 -17    0.50    0.09 
   0  -4  17    0.59    0.08 
   0  -4  17    0.41    0.09 
  -1   4 -17   12.37    0.58 
   1  -4  17   12.31    0.57 
   1  -4  17   11.71    0.58 
  -2   4 -17    2.43    0.16 
   2  -4  17    2.27    0.16 
   2  -4  17    1.93    0.13 
  -3   4 -17    0.14    0.08 
  -3   4 -17    0.04    0.07 
   3  -4  17    0.03    0.05 
   3   3 -17    0.40    0.07 
   3   3 -17    0.39    0.06 
  -3  -3  17    0.39    0.05 
   2   3 -17    1.17    0.12 
   2   3 -17    1.20    0.13 
  -2  -3  17    1.53    0.11 
   1   3 -17    0.84    0.12 
  -1  -3  17    0.97    0.10 
  -1  -3  17    0.64    0.11 
   0   3 -17    6.70    0.35 
   0  -3  17    6.66    0.33 
   0  -3  17    6.14    0.35 
  -1   3 -17    7.97    0.41 
   1  -3  17    8.19    0.40 
   1  -3  17    8.24    0.42 
  -2   3 -17   -0.01    0.06 
   2  -3  17    0.12    0.05 
   2  -3  17    0.16    0.07 
  -3   3 -17    1.01    0.11 
  -3   3 -17    0.82    0.10 
   3  -3  17    0.95    0.11 
   3   2 -17    1.13    0.10 
   3   2 -17    0.97    0.10 
   3   2 -17    1.02    0.11 
  -3  -2  17    1.16    0.09 
   2   2 -17    0.69    0.11 
   2   2 -17    0.98    0.12 
   2   2 -17    0.85    0.10 
  -2  -2  17    0.79    0.09 
  -2  -2  17    0.59    0.11 
  -2  -2  17    0.91    0.09 
   1   2 -17    0.15    0.08 
  -1  -2  17    0.22    0.06 
  -1  -2  17    0.25    0.09 
   0   2 -17    2.94    0.20 
   0  -2  17    3.11    0.21 
   0  -2  17    2.80    0.18 
  -1   2 -17    2.71    0.18 
   1  -2  17    2.41    0.16 
   1  -2  17    2.43    0.19 
  -2   2 -17    1.26    0.13 
   2  -2  17    1.21    0.12 
   2  -2  17    1.61    0.15 
  -3   2 -17    2.73    0.18 
  -3   2 -17    3.09    0.19 
   3  -2  17    3.12    0.20 
   3   1 -17    0.02    0.05 
   3   1 -17    0.01    0.05 
   3   1 -17    0.06    0.05 
   3   1 -17   -0.02    0.04 
  -3  -1  17    0.05    0.04 
  -3  -1  17    0.01    0.04 
   2   1 -17    0.59    0.10 
   2   1 -17    0.70    0.08 
   2   1 -17    0.68    0.10 
  -2  -1  17    0.51    0.07 
  -2  -1  17    0.60    0.10 
  -2  -1  17    0.64    0.08 
   1   1 -17    0.20    0.09 
   1   1 -17    0.22    0.09 
   1   1 -17    0.23    0.07 
  -1  -1  17    0.34    0.07 
  -1  -1  17    0.24    0.09 
   0   1 -17    2.76    0.19 
   0  -1  17    2.83    0.18 
   0  -1  17    2.74    0.21 
  -1   1 -17   12.93    0.61 
   1  -1  17   12.72    0.61 
   1  -1  17   11.97    0.59 
  -2   1 -17    0.79    0.11 
   2  -1  17    0.83    0.11 
  -3   1 -17    0.79    0.10 
   3  -1  17    0.58    0.09 
   3  -1  17    0.75    0.10 
  -4   1 -17    0.07    0.06 
  -4   1 -17    0.16    0.06 
   4  -1  17    0.09    0.05 
   4  -1  17    0.05    0.05 
   3   0 -17    3.08    0.19 
   3   0 -17    2.75    0.19 
   3   0 -17    2.97    0.17 
   3   0 -17    2.89    0.18 
  -3   0  17    3.16    0.17 
  -3   0  17    2.76    0.18 
  -3   0  17    3.02    0.17 
   2   0 -17    0.00    0.07 
   2   0 -17    0.03    0.05 
   2   0 -17    0.01    0.07 
   2   0 -17    0.01    0.06 
  -2   0  17    0.03    0.05 
  -2   0  17   -0.04    0.08 
  -2   0  17   -0.01    0.05 
   1   0 -17    7.42    0.39 
   1   0 -17    7.22    0.37 
  -1   0  17    7.47    0.39 
  -1   0  17    7.32    0.37 
   0   0 -17   38.04    1.77 
   0   0  17   41.45    1.79 
   0   0  17   39.48    1.76 
  -1   0 -17    8.75    0.43 
   1   0  17    7.48    0.41 
   1   0  17    9.03    0.44 
  -2   0 -17   32.30    1.44 
   2   0  17   31.77    1.45 
   2   0  17   31.42    1.43 
  -3   0 -17    3.15    0.20 
   3   0  17    3.23    0.19 
   3   0  17    3.19    0.21 
  -4   0 -17    0.83    0.09 
  -4   0 -17    0.78    0.10 
   4   0  17    0.93    0.10 
   4   0  17    0.85    0.08 
   3  -1 -17    0.15    0.05 
   3  -1 -17    0.13    0.06 
   3  -1 -17    0.10    0.05 
   3  -1 -17    0.00    0.06 
  -3   1  17    0.06    0.05 
  -3   1  17    0.09    0.07 
   2  -1 -17    7.99    0.41 
   2  -1 -17    7.26    0.42 
   2  -1 -17    7.94    0.39 
   2  -1 -17    8.31    0.41 
  -2   1  17    7.99    0.39 
  -2   1  17    8.41    0.42 
   1  -1 -17    0.38    0.09 
   1  -1 -17    0.17    0.07 
  -1   1  17    0.15    0.06 
  -1   1  17    0.25    0.09 
   0  -1 -17   46.80    2.14 
   0   1  17   51.16    2.16 
   0   1  17   46.39    2.13 
  -1  -1 -17   11.87    0.57 
   1   1  17   11.42    0.57 
   1   1  17   12.15    0.58 
  -2  -1 -17    5.10    0.29 
   2   1  17    5.26    0.30 
   2   1  17    4.90    0.28 
  -3  -1 -17   42.14    1.85 
   3   1  17   42.54    1.85 
   3   1  17   39.75    1.86 
  -4  -1 -17    0.03    0.06 
  -4  -1 -17    0.08    0.06 
   4   1  17    0.11    0.05 
   4   1  17    0.06    0.06 
   4   1  17    0.13    0.10 
   3  -2 -17    1.77    0.14 
   3  -2 -17    1.84    0.12 
   3  -2 -17    1.84    0.13 
   3  -2 -17    1.66    0.15 
  -3   2  17    1.87    0.13 
  -3   2  17    1.68    0.15 
   2  -2 -17    0.36    0.08 
   2  -2 -17    0.34    0.07 
   2  -2 -17    0.23    0.12 
   2  -2 -17    0.38    0.08 
  -2   2  17    0.34    0.09 
  -2   2  17    0.25    0.07 
   1  -2 -17    4.42    0.25 
   1  -2 -17    4.63    0.27 
  -1   2  17    4.63    0.28 
   0  -2 -17    1.15    0.14 
   0   2  17    1.25    0.15 
   0   2  17    1.09    0.14 
  -1  -2 -17   16.73    0.81 
   1   2  17   17.97    0.82 
   1   2  17   17.37    0.81 
  -2  -2 -17    0.40    0.09 
   2   2  17    0.37    0.08 
   2   2  17    0.29    0.09 
  -3  -2 -17    6.78    0.35 
   3   2  17    6.94    0.36 
   3   2  17    6.77    0.37 
  -4  -2 -17    0.19    0.07 
  -4  -2 -17    0.20    0.06 
   4   2  17    0.23    0.07 
   4   2  17    0.19    0.05 
   4   2  17    0.21    0.12 
   3  -3 -17    1.47    0.12 
   3  -3 -17    1.55    0.14 
   3  -3 -17    1.66    0.12 
   3  -3 -17    1.69    0.13 
  -3   3  17    1.86    0.15 
   2  -3 -17   18.23    0.84 
   2  -3 -17   18.69    0.86 
   2  -3 -17   17.03    0.85 
  -2   3  17   19.68    0.87 
  -2   3  17   18.21    0.84 
   1  -3 -17   14.14    0.65 
   1  -3 -17   13.04    0.63 
  -1   3  17   12.59    0.64 
  -1   3  17   14.12    0.67 
   0  -3 -17    3.05    0.20 
   0   3  17    2.91    0.21 
   0   3  17    2.83    0.20 
  -1  -3 -17   62.86    2.94 
   1   3  17   68.43    2.96 
   1   3  17   69.14    2.96 
  -2  -3 -17    0.56    0.10 
   2   3  17    0.79    0.11 
   2   3  17    0.57    0.09 
  -3  -3 -17    5.13    0.29 
   3   3  17    5.31    0.29 
   3   3  17    5.19    0.30 
  -4  -3 -17    4.81    0.25 
   4   3  17    3.94    0.31 
   4   3  17    4.67    0.25 
   3  -4 -17    0.65    0.09 
   3  -4 -17    0.85    0.10 
   3  -4 -17    0.89    0.09 
   3  -4 -17    0.77    0.09 
  -3   4  17    0.88    0.10 
   2  -4 -17    3.65    0.21 
   2  -4 -17    2.92    0.18 
   2  -4 -17    2.74    0.19 
  -2   4  17    2.91    0.21 
  -2   4  17    2.79    0.20 
  -2   4  17    3.49    0.23 
   1  -4 -17    6.39    0.34 
  -1   4  17    6.53    0.35 
  -1   4  17    5.59    0.33 
   0  -4 -17    8.63    0.45 
   0   4  17    8.69    0.44 
   0   4  17    8.82    0.45 
  -1  -4 -17   15.53    0.74 
   1   4  17   15.85    0.73 
   1   4  17   14.59    0.73 
  -2  -4 -17    6.83    0.36 
   2   4  17    6.53    0.37 
   2   4  17    7.62    0.37 
  -3  -4 -17    0.58    0.09 
   3   4  17    0.59    0.09 
   3   4  17    0.37    0.10 
  -4  -4 -17    4.16    0.23 
   4   4  17    3.68    0.26 
   4   4  17    4.04    0.22 
   3  -5 -17    5.90    0.31 
  -3   5  17    6.49    0.32 
   2  -5 -17   33.39    1.56 
   2  -5 -17   33.76    1.56 
  -2   5  17   35.80    1.57 
  -2   5  17   35.67    1.56 
   1  -5 -17   10.93    0.56 
  -1   5  17   11.70    0.56 
  -1   5  17   11.54    0.57 
   0  -5 -17   20.75    0.95 
   0   5  17   19.75    0.94 
   0   5  17   20.06    0.94 
  -1  -5 -17   23.15    1.02 
   1   5  17   20.43    1.01 
   1   5  17   22.42    1.02 
  -2  -5 -17    0.05    0.07 
   2   5  17    0.09    0.08 
   2   5  17    0.01    0.06 
  -3  -5 -17    5.21    0.29 
   3   5  17    5.22    0.28 
   3   5  17    4.98    0.34 
  -4  -5 -17    1.97    0.14 
   4   5  17    1.98    0.14 
   4   5  17    1.88    0.18 
   2  -6 -17    0.11    0.06 
   2  -6 -17    0.02    0.05 
  -2   6  17   -0.03    0.07 
  -2   6  17    0.05    0.07 
   1  -6 -17    3.55    0.25 
   1  -6 -17    4.32    0.25 
  -1   6  17    4.65    0.26 
  -1   6  17    4.30    0.26 
   0  -6 -17    0.28    0.09 
   0   6  17    0.09    0.08 
   0   6  17    0.16    0.08 
  -1  -6 -17   15.44    0.71 
   1   6  17   16.34    0.71 
   1   6  17   12.55    0.69 
   2   6  17    0.13    0.06 
   2   6  17    0.02    0.11 
  -3  -6 -17    2.42    0.17 
   3   6  17    2.53    0.23 
   3   6  17    2.50    0.17 
  -4  -6 -17    3.24    0.19 
   4   6  17    2.87    0.23 
   4   6  17    3.18    0.18 
   2  -7 -17    0.06    0.06 
   2  -7 -17    0.08    0.05 
  -2   7  17    0.10    0.08 
  -2   7  17    0.01    0.06 
   1  -7 -17    0.96    0.12 
   1  -7 -17    1.05    0.12 
  -1   7  17    1.13    0.13 
  -1   7  17    1.14    0.13 
   0  -7 -17    6.12    0.33 
   0   7  17    5.44    0.32 
   0   7  17    6.46    0.33 
  -1  -7 -17    9.54    0.48 
   1   7  17    9.17    0.47 
  -2  -7 -17    0.04    0.09 
   2   7  17    0.08    0.06 
   2   7  17    0.14    0.12 
  -3  -7 -17    3.71    0.22 
   3   7  17    3.56    0.27 
   3   7  17    3.67    0.21 
  -4  -7 -17    0.19    0.06 
   4   7  17    0.15    0.08 
   4   7  17    0.07    0.05 
   2  -8 -17    0.51    0.07 
   2  -8 -17    0.68    0.09 
  -2   8  17    0.52    0.07 
   1  -8 -17   12.89    0.62 
   1  -8 -17   12.51    0.62 
  -1   8  17   13.80    0.62 
   0  -8 -17   44.53    2.05 
   0   8  17   47.21    2.05 
  -1  -8 -17    0.14    0.08 
   1   8  17    0.11    0.12 
   1   8  17    0.10    0.07 
  -2  -8 -17   12.80    0.61 
   2   8  17   12.24    0.60 
   2   8  17   12.76    0.66 
   3   8  17   12.00    0.63 
   3   8  17   12.30    0.57 
  -4  -8 -17    0.00    0.06 
   4   8  17    0.02    0.07 
   4   8  17    0.04    0.04 
   1  -9 -17    0.27    0.07 
   1  -9 -17    0.31    0.07 
  -1   9  17    0.29    0.07 
   0  -9 -17    3.27    0.21 
   0   9  17    3.49    0.21 
  -1  -9 -17   27.25    1.25 
   1   9  17   27.89    1.24 
   1   9  17   26.86    1.29 
  -2  -9 -17    5.59    0.30 
   2   9  17    5.20    0.34 
   2   9  17    5.27    0.28 
   3   9  17   10.32    0.56 
   3   9  17   10.94    0.50 
   4   9  17    0.16    0.07 
   1 -10 -17    9.15    0.46 
  -1  10  17   10.43    0.46 
   0 -10 -17    0.60    0.08 
   0  10  17    0.53    0.14 
   0  10  17    0.63    0.08 
  -1 -10 -17    6.76    0.35 
   1  10  17    6.55    0.33 
   1  10  17    6.73    0.40 
  -2 -10 -17    3.19    0.20 
   2  10  17    3.20    0.24 
   2  10  17    3.16    0.18 
   3  10  17    0.06    0.08 
   0 -11 -17    0.85    0.10 
   0  11  17    0.89    0.09 
  -1 -11 -17   21.77    0.98 
   1  11  17   20.55    0.97 
   1  11  17   22.40    1.02 
  -2 -11 -17    3.86    0.22 
   2  11  17    4.02    0.26 
   3  11  17    1.24    0.14 
   0   6 -18    0.42    0.07 
   0  -6  18    0.27    0.05 
   1   5 -18    2.71    0.17 
  -1  -5  18    2.62    0.15 
   0   5 -18    4.61    0.25 
   0  -5  18    4.51    0.24 
  -1   5 -18    1.16    0.11 
   1  -5  18    1.05    0.09 
  -2  -4  18    4.17    0.21 
   1   4 -18    0.38    0.08 
  -1  -4  18    0.28    0.06 
   0   4 -18    4.46    0.25 
   0  -4  18    4.47    0.24 
  -1   4 -18    1.51    0.13 
   1  -4  18    1.57    0.12 
   1  -4  18    1.60    0.14 
  -2   4 -18    2.67    0.16 
   2  -4  18    2.40    0.15 
   2   3 -18    3.61    0.22 
   2   3 -18    3.53    0.22 
  -2  -3  18    4.48    0.20 
  -2  -3  18    3.76    0.22 
   1   3 -18   14.35    0.69 
  -1  -3  18   15.08    0.67 
   0   3 -18    9.78    0.47 
   0  -3  18    9.53    0.45 
   0  -3  18    9.08    0.47 
  -1   3 -18    5.78    0.31 
   1  -3  18    6.02    0.30 
   1  -3  18    5.99    0.32 
  -2   3 -18    0.48    0.08 
   2  -3  18    0.58    0.08 
   2  -3  18    0.40    0.06 
  -3   3 -18    0.36    0.07 
   3  -3  18    0.21    0.05 
   2   2 -18    2.42    0.18 
   2   2 -18    2.76    0.17 
  -2  -2  18    2.84    0.15 
   1   2 -18   11.65    0.56 
  -1  -2  18   11.97    0.55 
  -1  -2  18   11.48    0.56 
   0   2 -18    2.87    0.20 
   0  -2  18    2.82    0.20 
   0  -2  18    3.06    0.18 
  -1   2 -18   11.14    0.53 
   1  -2  18   10.50    0.52 
   1  -2  18   11.25    0.54 
  -2   2 -18    8.22    0.41 
   2  -2  18    8.32    0.42 
  -3   2 -18    0.66    0.09 
   3  -2  18    0.38    0.07 
   3   1 -18    0.92    0.10 
  -3  -1  18    1.13    0.08 
   2   1 -18    0.40    0.08 
   2   1 -18    0.26    0.12 
  -2  -1  18    0.33    0.08 
  -2  -1  18    0.53    0.07 
   1   1 -18    0.31    0.09 
  -1  -1  18    0.23    0.06 
  -1  -1  18    0.23    0.09 
   0   1 -18    1.15    0.13 
   0  -1  18    0.89    0.12 
   0  -1  18    0.94    0.11 
  -1   1 -18    2.26    0.16 
   1  -1  18    1.92    0.15 
   1  -1  18    2.22    0.18 
  -2   1 -18    3.21    0.20 
   2  -1  18    2.96    0.21 
  -3   1 -18    0.47    0.08 
   3  -1  18    0.32    0.07 
   3   0 -18    6.01    0.31 
   3   0 -18    6.11    0.30 
  -3   0  18    6.40    0.30 
   2   0 -18    2.62    0.16 
   2   0 -18    2.57    0.18 
  -2   0  18    2.56    0.18 
  -2   0  18    2.61    0.16 
   1   0 -18    1.71    0.15 
  -1   0  18    1.78    0.16 
  -1   0  18    1.55    0.13 
   0   0 -18   27.12    1.31 
   0   0  18   31.18    1.32 
   0   0  18   28.77    1.30 
  -1   0 -18    0.10    0.07 
   1   0  18    0.08    0.07 
  -2   0 -18   -0.01    0.06 
   2   0  18    0.05    0.07 
  -3   0 -18    3.23    0.19 
   3   0  18    2.92    0.18 
   3   0  18    3.17    0.20 
  -4   0 -18    1.47    0.11 
   4   0  18    1.42    0.10 
   4   0  18    1.33    0.11 
   3  -1 -18   10.91    0.51 
   3  -1 -18   10.56    0.50 
  -3   1  18   11.37    0.50 
   2  -1 -18    2.77    0.18 
   2  -1 -18    2.54    0.17 
  -2   1  18    2.72    0.16 
  -2   1  18    2.77    0.19 
   1  -1 -18    0.20    0.07 
   1  -1 -18    0.08    0.07 
  -1   1  18    0.15    0.08 
  -1   1  18    0.21    0.06 
   0  -1 -18   29.94    1.47 
   0   1  18   36.23    1.49 
   0   1  18   31.86    1.45 
  -1  -1 -18   12.52    0.62 
   1   1  18   13.27    0.63 
  -2  -1 -18    8.97    0.45 
   2   1  18    8.88    0.44 
   2   1  18    9.20    0.46 
  -3  -1 -18    3.34    0.20 
   3   1  18    3.57    0.22 
   3   1  18    3.25    0.20 
  -4  -1 -18    0.11    0.05 
   4   1  18    0.04    0.04 
   4   1  18    0.09    0.06 
   3  -2 -18    3.09    0.18 
   3  -2 -18    3.04    0.17 
  -3   2  18    3.28    0.17 
  -3   2  18    3.06    0.19 
   2  -2 -18    0.07    0.06 
   2  -2 -18    0.08    0.06 
   2  -2 -18    0.05    0.05 
  -2   2  18    0.01    0.05 
  -2   2  18    0.02    0.07 
   1  -2 -18    6.17    0.33 
   1  -2 -18    5.57    0.30 
  -1   2  18    6.07    0.33 
  -1   2  18    5.80    0.30 
   0  -2 -18    4.05    0.25 
   0   2  18    3.77    0.28 
   0   2  18    4.31    0.26 
  -1  -2 -18    0.15    0.08 
   1   2  18    0.14    0.08 
   1   2  18    0.14    0.07 
  -2  -2 -18    4.31    0.25 
   2   2  18    4.69    0.25 
   2   2  18    4.43    0.27 
  -3  -2 -18    1.23    0.12 
   3   2  18    1.24    0.13 
   3   2  18    1.38    0.12 
  -4  -2 -18    2.06    0.14 
   4   2  18    1.78    0.14 
   4   2  18    2.29    0.13 
   3  -3 -18    2.69    0.16 
  -3   3  18    2.45    0.18 
   2  -3 -18    2.68    0.19 
   2  -3 -18    3.52    0.20 
   2  -3 -18    3.11    0.19 
  -2   3  18    3.90    0.22 
   1  -3 -18   11.53    0.60 
   1  -3 -18   13.49    0.62 
  -1   3  18   12.29    0.59 
  -1   3  18   13.98    0.63 
   0  -3 -18    1.67    0.15 
   0   3  18    1.67    0.16 
   0   3  18    1.62    0.15 
  -1  -3 -18    0.26    0.08 
   1   3  18    0.27    0.08 
   1   3  18    0.44    0.09 
  -2  -3 -18    1.21    0.13 
   2   3  18    1.24    0.14 
   2   3  18    1.34    0.13 
  -3  -3 -18    0.64    0.09 
   3   3  18    0.61    0.09 
   3   3  18    0.54    0.10 
  -4  -3 -18    0.20    0.06 
   4   3  18    0.12    0.04 
   2  -4 -18    0.09    0.06 
   2  -4 -18    0.06    0.06 
   2  -4 -18    0.11    0.06 
  -2   4  18    0.15    0.08 
   1  -4 -18    0.27    0.08 
  -1   4  18    0.26    0.09 
  -1   4  18    0.17    0.08 
   0  -4 -18   10.42    0.51 
   0   4  18   10.30    0.51 
   0   4  18   10.18    0.52 
   1   4  18    0.06    0.07 
   1   4  18    0.08    0.07 
  -2  -4 -18    4.24    0.25 
   2   4  18    4.26    0.26 
   2   4  18    5.08    0.26 
  -3  -4 -18    2.55    0.17 
   3   4  18    2.71    0.17 
   3   4  18    2.11    0.18 
  -4  -4 -18    0.07    0.05 
   4   4  18    0.07    0.04 
   2  -5 -18   18.91    0.86 
   2  -5 -18   17.52    0.86 
  -2   5  18   20.22    0.87 
  -2   5  18   18.67    0.86 
   1  -5 -18   16.63    0.80 
  -1   5  18   17.66    0.80 
  -1   5  18   16.87    0.79 
   0  -5 -18    0.05    0.07 
   0   5  18   -0.03    0.06 
   0   5  18    0.02    0.07 
  -1  -5 -18   13.42    0.62 
   1   5  18   13.19    0.62 
   1   5  18   12.12    0.62 
  -2  -5 -18    4.82    0.28 
   2   5  18    5.51    0.28 
   2   5  18    4.99    0.29 
  -3  -5 -18    0.08    0.06 
   3   5  18    0.04    0.05 
  -4  -5 -18    0.32    0.06 
   4   5  18    0.14    0.04 
   4   5  18    0.20    0.08 
   2  -6 -18    0.12    0.06 
   2  -6 -18    0.07    0.06 
  -2   6  18    0.16    0.06 
  -2   6  18    0.10    0.07 
   1  -6 -18   10.25    0.52 
  -1   6  18   11.40    0.53 
  -1   6  18   10.66    0.53 
   0  -6 -18    3.71    0.23 
   0   6  18    3.20    0.22 
   0   6  18    3.99    0.23 
  -1  -6 -18   10.36    0.49 
   1   6  18    8.46    0.47 
   1   6  18   10.14    0.48 
   2   6  18   13.30    0.63 
  -3  -6 -18    0.49    0.08 
   3   6  18    0.53    0.08 
   3   6  18    0.39    0.11 
  -4  -6 -18    0.06    0.05 
   4   6  18    0.00    0.04 
   4   6  18    0.06    0.07 
   2  -7 -18    0.17    0.06 
  -2   7  18    0.17    0.10 
  -2   7  18    0.20    0.06 
   1  -7 -18    1.09    0.11 
  -1   7  18    0.98    0.13 
  -1   7  18    1.00    0.11 
   0  -7 -18    2.72    0.19 
   0   7  18    2.89    0.18 
   0   7  18    2.37    0.19 
  -1  -7 -18    0.68    0.10 
   1   7  18    0.65    0.09 
   2   7  18    9.25    0.59 
   2   7  18   11.32    0.50 
  -3  -7 -18    0.05    0.06 
   3   7  18    0.01    0.09 
   3   7  18    0.06    0.05 
  -4  -7 -18   -0.04    0.05 
   4   7  18    0.04    0.07 
   4   7  18    0.01    0.04 
   1  -8 -18    0.89    0.10 
  -1   8  18    0.93    0.10 
   0  -8 -18   18.59    0.88 
   0   8  18   19.56    0.88 
  -1  -8 -18   28.45    1.29 
   1   8  18   28.56    1.29 
  -2  -8 -18    0.99    0.12 
   2   8  18    1.03    0.10 
   2   8  18    0.83    0.14 
   3   8  18    1.50    0.12 
   3   8  18    1.58    0.17 
   4   8  18    0.02    0.07 
   1  -9 -18    5.79    0.30 
  -1   9  18    6.19    0.30 
   0  -9 -18   17.88    0.84 
   0   9  18   18.79    0.84 
  -1  -9 -18   15.18    0.71 
   1   9  18   14.87    0.84 
   1   9  18   15.58    0.71 
  -2  -9 -18    0.02    0.07 
   2   9  18    0.14    0.05 
   2   9  18    0.06    0.10 
   3   9  18    8.36    0.40 
   3   9  18    8.20    0.44 
   0 -10 -18   27.37    1.27 
   0  10  18   29.47    1.27 
  -1 -10 -18    0.47    0.07 
   1  10  18    0.38    0.11 
   1  10  18    0.42    0.06 
  -2 -10 -18    3.41    0.20 
   2  10  18    3.47    0.19 
   2  10  18    3.64    0.24 
   3  10  18    1.01    0.14 
  -1 -11 -18    0.14    0.06 
  -2 -11 -18    1.11    0.13 
   2  11  18    1.29    0.16 
   0   5 -19   10.35    0.49 
   1   4 -19    0.74    0.11 
  -1  -4  19    0.87    0.08 
   0   4 -19    1.82    0.14 
   0  -4  19    1.62    0.11 
  -1   4 -19    1.35    0.11 
   1  -4  19    0.95    0.11 
   1  -4  19    1.07    0.09 
  -2  -3  19    3.90    0.20 
   1   3 -19    2.34    0.17 
  -1  -3  19    2.79    0.15 
   0   3 -19    0.39    0.08 
   0  -3  19    0.26    0.08 
   0  -3  19    0.32    0.06 
  -1   3 -19    2.27    0.15 
   1  -3  19    2.04    0.16 
   1  -3  19    1.99    0.13 
  -2   3 -19    0.05    0.06 
   2  -3  19    0.08    0.06 
  -2  -2  19    0.96    0.08 
  -1  -2  19   34.11    1.54 
  -1  -2  19   35.13    1.53 
   0   2 -19    2.97    0.19 
   0  -2  19    3.15    0.20 
   0  -2  19    3.21    0.18 
  -1   2 -19    3.31    0.20 
   1  -2  19    3.35    0.21 
   1  -2  19    3.06    0.18 
  -2   2 -19    5.28    0.28 
   2  -2  19    5.26    0.28 
  -3   2 -19    1.62    0.12 
   2   1 -19    1.63    0.13 
  -2  -1  19    1.87    0.11 
  -2  -1  19    1.63    0.14 
  -1  -1  19    1.17    0.11 
  -1  -1  19    1.12    0.13 
   0   1 -19    0.97    0.12 
   0  -1  19    0.96    0.10 
   0  -1  19    0.94    0.12 
  -1   1 -19    1.55    0.13 
   1  -1  19    1.31    0.12 
   1  -1  19    1.56    0.15 
  -2   1 -19    1.55    0.13 
   2  -1  19    1.65    0.14 
  -3   1 -19    0.16    0.06 
   3  -1  19    0.10    0.05 
   2   0 -19    2.33    0.15 
  -2   0  19    2.09    0.15 
  -2   0  19    2.41    0.14 
   1   0 -19    0.26    0.08 
  -1   0  19    0.22    0.08 
  -1   0  19    0.35    0.06 
   0   0 -19    2.49    0.19 
   0   0  19    2.72    0.17 
   0   0  19    3.35    0.20 
  -1   0 -19    8.03    0.42 
   1   0  19    8.81    0.43 
  -2   0 -19    0.58    0.09 
   2   0  19    0.40    0.08 
  -3   0 -19    0.09    0.06 
   3   0  19    0.02    0.05 
   2  -1 -19   14.03    0.67 
   2  -1 -19   14.97    0.68 
  -2   1  19   14.78    0.67 
  -2   1  19   14.99    0.68 
   1  -1 -19    5.17    0.28 
  -1   1  19    5.20    0.27 
  -1   1  19    5.33    0.29 
   0   1  19    2.94    0.18 
   0   1  19    3.29    0.21 
  -1  -1 -19    4.34    0.26 
   1   1  19    4.80    0.27 
  -2  -1 -19    4.02    0.23 
   2   1  19    4.09    0.24 
   2   1  19    3.95    0.23 
  -3  -1 -19    1.25    0.11 
   3   1  19    1.14    0.12 
   3   1  19    1.22    0.10 
   2  -2 -19    2.15    0.16 
   2  -2 -19    2.55    0.15 
  -2   2  19    2.52    0.17 
  -2   2  19    2.44    0.15 
   1  -2 -19    6.35    0.33 
  -1   2  19    6.52    0.33 
  -1   2  19    5.68    0.30 
   0   2  19    3.07    0.20 
  -1  -2 -19    0.34    0.08 
   1   2  19    0.52    0.09 
   1   2  19    0.47    0.08 
  -2  -2 -19    1.46    0.13 
   2   2  19    1.59    0.13 
   2   2  19    1.64    0.15 
  -3  -2 -19    1.00    0.10 
   3   2  19    0.60    0.09 
   3   2  19    0.93    0.09 
  -4  -2 -19    0.10    0.05 
   4   2  19    0.18    0.04 
   2  -3 -19    6.19    0.32 
   2  -3 -19    6.16    0.31 
  -2   3  19    6.86    0.33 
  -2   3  19    6.34    0.31 
   1  -3 -19    0.11    0.07 
  -1   3  19    0.10    0.07 
   0  -3 -19   18.38    0.85 
   0   3  19   17.70    0.84 
   0   3  19   18.53    0.85 
  -1  -3 -19   17.46    0.89 
   1   3  19   18.49    0.83 
   1   3  19   18.04    0.84 
  -2  -3 -19    1.03    0.11 
   2   3  19    0.97    0.13 
   2   3  19    1.00    0.11 
  -3  -3 -19    0.05    0.05 
   3   3  19    0.02    0.06 
   3   3  19    0.15    0.05 
  -4  -3 -19    5.29    0.27 
   2  -4 -19    5.95    0.31 
  -2   4  19    6.39    0.32 
   1  -4 -19    1.47    0.13 
  -1   4  19    1.51    0.14 
  -1   4  19    1.39    0.13 
   0  -4 -19    1.91    0.15 
   0   4  19    1.54    0.14 
   0   4  19    1.68    0.15 
   1   4  19    2.86    0.18 
   1   4  19    2.59    0.19 
  -2  -4 -19    1.48    0.13 
   2   4  19    1.59    0.13 
   2   4  19    1.60    0.15 
  -3  -4 -19    1.14    0.11 
   3   4  19    1.22    0.11 
  -4  -4 -19    0.51    0.08 
   4   4  19    0.53    0.07 
   2  -5 -19    0.97    0.10 
  -2   5  19    0.98    0.11 
   1  -5 -19   12.11    0.59 
  -1   5  19   12.78    0.59 
  -1   5  19   12.19    0.58 
   0  -5 -19    0.50    0.09 
   0   5  19    0.63    0.10 
   0   5  19    0.59    0.09 
   1   5  19    1.13    0.12 
   1   5  19    1.01    0.13 
  -2  -5 -19    1.76    0.15 
   2   5  19    2.32    0.15 
   2   5  19    2.13    0.17 
  -3  -5 -19    0.11    0.06 
   3   5  19    0.09    0.05 
  -4  -5 -19    1.37    0.10 
   4   5  19    1.29    0.10 
   1  -6 -19   22.84    1.04 
  -1   6  19   23.43    1.04 
  -1   6  19   22.46    1.04 
   0  -6 -19   11.92    0.57 
   0   6  19   12.52    0.57 
   0   6  19   11.44    0.57 
  -1  -6 -19    0.01    0.07 
   1   6  19    0.01    0.07 
   1   6  19   -0.01    0.05 
   2   6  19   24.71    1.12 
  -3  -6 -19    4.31    0.24 
   3   6  19    4.76    0.24 
  -4  -6 -19    0.65    0.08 
   4   6  19    0.68    0.07 
   1  -7 -19    0.13    0.06 
  -1   7  19    0.22    0.08 
  -1   7  19    0.24    0.06 
   0  -7 -19    0.74    0.10 
   0   7  19    0.79    0.09 
   0   7  19    0.68    0.10 
  -1  -7 -19    0.08    0.07 
   1   7  19    0.03    0.05 
   2   7  19    0.13    0.05 
   3   7  19    2.69    0.16 
   1  -8 -19   11.03    0.53 
  -1   8  19   11.55    0.52 
   0  -8 -19    3.15    0.19 
   0   8  19    3.23    0.19 
  -1  -8 -19    2.78    0.18 
   1   8  19    2.80    0.17 
   2   8  19    5.09    0.27 
   3   8  19    1.77    0.11 
   3   8  19    1.32    0.16 
   0  -9 -19    0.05    0.05 
   0   9  19    0.08    0.05 
  -1  -9 -19    0.47    0.08 
   1   9  19    0.65    0.08 
  -2  -9 -19    3.19    0.20 
   2   9  19    3.68    0.19 
   2   9  19    3.44    0.30 
   3   9  19    0.88    0.10 
  -1 -10 -19    0.64    0.09 
   1  10  19    0.62    0.08 
   0   3 -20    0.03    0.06 
   0  -3  20    0.10    0.04 
  -1   3 -20    0.16    0.06 
   1  -3  20    0.07    0.06 
  -1  -2  20    5.60    0.27 
   0   2 -20    5.15    0.27 
   0  -2  20    5.03    0.26 
   0  -2  20    5.25    0.27 
  -1   2 -20    0.66    0.09 
   1  -2  20    0.52    0.07 
   1  -2  20    0.51    0.08 
  -2   2 -20    0.68    0.09 
   2  -2  20    0.81    0.10 
  -1  -1  20    0.06    0.07 
  -1  -1  20    0.12    0.05 
   0   1 -20    0.52    0.08 
   0  -1  20    0.47    0.08 
   0  -1  20    0.31    0.06 
  -1   1 -20    2.95    0.18 
   1  -1  20    2.76    0.19 
  -2   1 -20    0.03    0.05 
   2  -1  20    0.01    0.05 
  -1   0  20    3.90    0.21 
  -1   0  20    3.93    0.22 
   0   0 -20    3.50    0.25 
   0   0  20    4.36    0.22 
   0   0  20    4.68    0.25 
  -1   0 -20    0.08    0.06 
   1   0  20    0.12    0.07 
  -2   0 -20    0.12    0.06 
   2   0  20    0.10    0.06 
  -3   0 -20    9.94    0.47 
   1  -1 -20   11.49    0.54 
  -1   1  20   11.34    0.53 
  -1   1  20   11.56    0.54 
   0   1  20    4.93    0.28 
  -1  -1 -20    0.09    0.07 
   1   1  20    0.15    0.07 
  -2  -1 -20    2.49    0.17 
   2   1  20    2.67    0.17 
  -3  -1 -20    1.42    0.11 
   3   1  20    1.31    0.11 
   3   1  20    1.14    0.10 
   2  -2 -20    5.15    0.27 
  -2   2  20    5.57    0.27 
   1  -2 -20    1.01    0.11 
  -1   2  20    0.94    0.12 
   0   2  20    0.55    0.09 
  -1  -2 -20    0.31    0.08 
   1   2  20    0.31    0.07 
  -2  -2 -20    0.73    0.10 
   2   2  20    0.85    0.10 
   2   2  20    0.95    0.11 
  -3  -2 -20    1.06    0.10 
   3   2  20    1.02    0.09 
   3   2  20    0.89    0.10 
   2  -3 -20   35.95    1.62 
  -2   3  20   36.02    1.60 
   1  -3 -20    2.47    0.17 
  -1   3  20    2.74    0.18 
   0  -3 -20    3.64    0.27 
   0   3  20    3.76    0.22 
   1   3  20   14.40    0.66 
   1   3  20   13.68    0.65 
  -2  -3 -20    2.41    0.17 
   2   3  20    2.55    0.17 
   2   3  20    2.52    0.16 
  -3  -3 -20    0.20    0.06 
   3   3  20    0.18    0.05 
   3   3  20    0.16    0.06 
   1  -4 -20    7.39    0.38 
  -1   4  20    8.27    0.39 
   0  -4 -20    0.09    0.07 
   0   4  20    0.07    0.06 
   0   4  20    0.04    0.07 
   1   4  20    4.36    0.24 
   1   4  20    4.22    0.25 
  -2  -4 -20    0.29    0.07 
   2   4  20    0.29    0.06 
   2   4  20    0.21    0.07 
  -3  -4 -20    0.02    0.05 
   3   4  20    0.05    0.04 
   1  -5 -20    0.31    0.07 
  -1   5  20    0.28    0.07 
  -1   5  20    0.39    0.08 
   0  -5 -20    0.13    0.07 
   0   5  20    0.13    0.06 
   0   5  20    0.12    0.07 
   1   5  20    1.50    0.14 
   1   5  20    1.75    0.13 
   2   5  20    4.89    0.25 
   2   5  20    4.20    0.27 
  -3  -5 -20    0.16    0.06 
   3   5  20    0.23    0.05 
   1  -6 -20   12.13    0.57 
  -1   6  20   12.27    0.56 
  -1   6  20   12.10    0.56 
   0  -6 -20   16.85    0.78 
   0   6  20   17.32    0.77 
   0   6  20   16.23    0.77 
  -1  -6 -20    0.28    0.11 
   1   6  20    0.35    0.06 
   1   6  20    0.31    0.08 
   2   6  20    2.36    0.15 
  -3  -6 -20    0.43    0.07 
   3   6  20    0.65    0.08 
   1  -7 -20    2.63    0.16 
   0  -7 -20    0.20    0.07 
   0   7  20    0.12    0.06 
  -1  -7 -20    0.26    0.08 
   1   7  20    0.34    0.06 
   2   7  20    0.89    0.09 
   3   7  20    0.10    0.04 
   0  -8 -20    2.71    0.17 
   0   8  20    3.10    0.17 
  -1  -8 -20    0.09    0.06 
   1   8  20    0.18    0.05 
   2   8  20    1.49    0.11 
  -1  -9 -20    1.96    0.15 
   1   9  20    2.27    0.13 
   2   9  20    1.39    0.10 
   0  -1  21    1.44    0.12 
  -1   1 -21    0.57    0.08 
   1  -1  21    0.37    0.06 
  -2   1 -21   -0.03    0.07 
   0   0  21    5.44    0.28 
  -1   0 -21    4.24    0.24 
   1   0  21    4.88    0.25 
  -2   0 -21    0.68    0.09 
   2   0  21    0.46    0.07 
  -1   1  21    3.56    0.20 
   0   1  21    6.29    0.32 
  -1  -1 -21    0.76    0.10 
   1   1  21    0.89    0.11 
  -2  -1 -21    2.24    0.14 
   2   1  21    2.13    0.15 
  -1   2  21    0.03    0.06 
   0   2  21    0.09    0.06 
   1   2  21    0.39    0.08 
  -2  -2 -21    0.93    0.10 
   2   2  21    0.61    0.08 
   1  -3 -21   12.42    0.64 
  -1   3  21   13.84    0.61 
   0   3  21    3.14    0.19 
   1   3  21    0.29    0.07 
   1   3  21    0.46    0.08 
  -2  -3 -21    2.88    0.18 
   2   3  21    3.02    0.17 
   2   3  21    3.12    0.18 
   1  -4 -21    6.85    0.38 
  -1   4  21    7.15    0.34 
   0   4  21    0.36    0.07 
   1   4  21    0.05    0.06 
   1   4  21    0.12    0.05 
   2   4  21    0.27    0.06 
   2   4  21    0.23    0.06 
   3   4  21    0.33    0.05 
   0  -5 -21    0.54    0.08 
   0   5  21    0.63    0.08 
   0   5  21    0.53    0.07 
   1   5  21    1.44    0.13 
   1   5  21    1.54    0.12 
   2   5  21    5.38    0.27 
   0  -6 -21    4.09    0.22 
   0   6  21    3.99    0.21 
   1   6  21    2.39    0.15 
   2   6  21    0.80    0.08 
   1   7  21    3.18    0.18 
   2   7  21    0.18    0.05 
   0   2  22    0.66    0.08 
   1   2  22    9.38    0.44 
   0   3  22    1.39    0.11 
   1   3  22    0.43    0.07 
   1   4  22   -0.01    0.08 
   0   0   0    0.00    0.00 
;
_shelx_hkl_checksum              60019
loop_
_space_group_symop_operation_xyz
'x, y, z'
'-x, -y, -z'
loop_
_atom_site_label
_atom_site_type_symbol
_atom_site_fract_x
_atom_site_fract_y
_atom_site_fract_z
_atom_site_U_iso_or_equiv
_atom_site_adp_type
_atom_site_occupancy
_atom_site_site_symmetry_order
_atom_site_calc_flag
_atom_site_refinement_flags_posn
_atom_site_refinement_flags_adp
_atom_site_refinement_flags_occupancy
_atom_site_disorder_assembly
_atom_site_disorder_group
Zn1 Zn 0.35281(6) 0.63228(2) 0.66770(2) 0.02831(12) Uani 1 1 d . . . . .
Cl Cl 0.23129(10) 0.63259(5) 0.55488(3) 0.03217(15) Uani 1 1 d . . . . .
S1 S 1.35891(11) 0.24784(5) 0.67437(3) 0.03194(15) Uani 1 1 d . . . . .
S2 S 1.68339(11) 0.11461(5) 0.57117(4) 0.03591(17) Uani 1 1 d . . . . .
O3 O 0.0429(4) 0.66207(16) 0.73136(11) 0.0443(5) Uani 1 1 d . . . . .
N1 N 0.6575(4) 0.50952(15) 0.67152(11) 0.0271(4) Uani 1 1 d . . . . .
N2 N 1.4606(3) -0.21818(15) 0.65144(11) 0.0268(4) Uani 1 1 d . . . . .
O2 O 0.3270(5) 0.6035(2) 0.80918(13) 0.0661(7) Uani 1 1 d . . . . .
C2 C 1.6798(4) -0.20556(19) 0.61301(13) 0.0286(5) Uani 1 1 d . . . . .
H2 H 1.7926 -0.2692 0.6016 0.034 Uiso 1 1 calc R U . . .
C3 C 1.0884(4) 0.34905(18) 0.66979(13) 0.0279(5) Uani 1 1 d . . . . .
C4 C 0.9554(5) 0.38400(19) 0.60853(13) 0.0305(5) Uani 1 1 d . . . . .
H4 H 1.0093 0.3532 0.5650 0.037 Uiso 1 1 calc R U . . .
C5 C 0.7863(5) 0.47588(19) 0.73070(13) 0.0310(5) Uani 1 1 d . . . . .
H5 H 0.7272 0.5075 0.7737 0.037 Uiso 1 1 calc R U . . .
C6 C -0.1558(5) 1.0253(2) 0.84509(13) 0.0325(5) Uani 1 1 d . . . . .
C7 C 1.3588(4) -0.02350(19) 0.64695(13) 0.0286(5) Uani 1 1 d . . . . .
H7 H 1.2444 0.0385 0.6602 0.034 Uiso 1 1 calc R U . . .
C8 C 0.7446(5) 0.4637(2) 0.61144(14) 0.0309(5) Uani 1 1 d . . . . .
H8 H 0.6565 0.4873 0.5689 0.037 Uiso 1 1 calc R U . . .
C9 C 1.0001(5) 0.3977(2) 0.73199(14) 0.0328(5) Uani 1 1 d . . . . .
H9 H 1.0871 0.3770 0.7748 0.039 Uiso 1 1 calc R U . . .
C10 C 1.3047(4) -0.12786(19) 0.66836(13) 0.0285(5) Uani 1 1 d . . . . .
H10 H 1.1505 -0.1360 0.6963 0.034 Uiso 1 1 calc R U . . .
C11 C 1.7485(4) -0.1051(2) 0.58942(13) 0.0298(5) Uani 1 1 d . . . . .
H11 H 1.9055 -0.0997 0.5625 0.036 Uiso 1 1 calc R U . . .
C12 C 1.5835(4) -0.01072(19) 0.60565(13) 0.0281(5) Uani 1 1 d . . . . .
C13 C -0.1121(5) 0.7965(2) 0.85413(15) 0.0396(6) Uani 1 1 d . . . . .
C14 C 0.1090(6) 0.6418(2) 0.79564(17) 0.0443(7) Uani 1 1 d . . . . .
C15 C 1.4062(5) 0.2158(2) 0.58164(14) 0.0324(5) Uani 1 1 d . . . . .
H15A H 1.2624 0.1875 0.5725 0.039 Uiso 1 1 calc R U . . .
H15B H 1.4196 0.2834 0.5447 0.039 Uiso 1 1 calc R U . . .
C16 C -0.3185(5) 0.9827(2) 0.81382(15) 0.0387(6) Uani 1 1 d . . . . .
H16 H -0.4475 1.0317 0.7888 0.046 Uiso 1 1 calc R U . . .
C17 C -0.1857(5) 1.1467(2) 0.84494(15) 0.0384(6) Uani 1 1 d . . . . .
H17A H -0.2959 1.1879 0.8070 0.046 Uiso 1 1 calc R U . . .
H17B H -0.0222 1.1685 0.8308 0.046 Uiso 1 1 calc R U . . .
C18 C 0.0555(5) 0.8383(2) 0.88406(16) 0.0432(6) Uani 1 1 d . . . . .
H18 H 0.1870 0.7892 0.9079 0.052 Uiso 1 1 calc R U . . .
C19 C -0.2972(5) 0.8706(2) 0.81822(16) 0.0414(6) Uani 1 1 d . . . . .
H19 H -0.4117 0.8442 0.7962 0.050 Uiso 1 1 calc R U . . .
C20 C 0.0343(5) 0.9505(2) 0.87977(15) 0.0391(6) Uani 1 1 d . . . . .
H20 H 0.1512 0.9769 0.9008 0.047 Uiso 1 1 calc R U . . .
C21 C -0.2940(6) 1.1791(2) 0.92060(16) 0.0419(6) Uani 1 1 d . . . . .
H21 H -0.1841 1.1345 0.9585 0.050 Uiso 1 1 calc R U . . .
C22 C -0.2957(7) 1.3000(3) 0.91942(18) 0.0522(8) Uani 1 1 d . . . . .
H22A H -0.4025 1.3457 0.8826 0.078 Uiso 1 1 calc R U . . .
H22B H -0.1268 1.3142 0.9064 0.078 Uiso 1 1 calc R U . . .
H22C H -0.3588 1.3179 0.9685 0.078 Uiso 1 1 calc R U . . .
C23 C -0.0957(7) 0.6738(2) 0.85631(18) 0.0567(9) Uani 1 1 d . . . . .
C24 C -0.5498(7) 1.1534(3) 0.9434(2) 0.0651(10) Uani 1 1 d . . . . .
H24A H -0.6115 1.1732 0.9920 0.098 Uiso 1 1 calc R U . . .
H24B H -0.5430 1.0746 0.9462 0.098 Uiso 1 1 calc R U . . .
H24C H -0.6612 1.1956 0.9067 0.098 Uiso 1 1 calc R U . . .
C25A C -0.0529(8) 0.6037(3) 0.9293(2) 0.0464(12) Uani 0.770(9) 1 d . . P A 1
H250 H -0.0596 0.5277 0.9272 0.056 Uiso 0.770(9) 1 calc R U P A 1
H251 H -0.1811 0.6302 0.9670 0.056 Uiso 0.770(9) 1 calc R U P A 1
H252 H 0.1103 0.6069 0.9421 0.056 Uiso 0.770(9) 1 calc R U P A 1
C25B C -0.251(3) 0.6233(12) 0.8851(10) 0.062(5) Uani 0.230(9) 1 d . . P A 2
H253 H -0.1920 0.5455 0.8821 0.075 Uiso 0.230(9) 1 calc R U P A 2
H254 H -0.4010 0.6512 0.8598 0.075 Uiso 0.230(9) 1 calc R U P A 2
H255 H -0.2875 0.6314 0.9372 0.075 Uiso 0.770(9) 1 calc R U P A 2
loop_
_atom_site_aniso_label
_atom_site_aniso_U_11
_atom_site_aniso_U_22
_atom_site_aniso_U_33
_atom_site_aniso_U_23
_atom_site_aniso_U_13
_atom_site_aniso_U_12
Zn1 0.02556(19) 0.02375(18) 0.0357(2) -0.01344(13) 0.00119(13) -0.00005(12)
Cl 0.0255(3) 0.0338(3) 0.0389(3) -0.0171(2) -0.0035(2) 0.0010(2)
S1 0.0310(3) 0.0252(3) 0.0380(3) -0.0099(2) -0.0058(2) 0.0037(2)
S2 0.0267(3) 0.0249(3) 0.0523(4) -0.0107(3) 0.0075(3) -0.0006(2)
O3 0.0429(11) 0.0446(11) 0.0489(12) -0.0233(9) 0.0118(9) -0.0128(8)
N1 0.0273(10) 0.0223(9) 0.0316(10) -0.0100(7) 0.0016(8) -0.0028(7)
N2 0.0222(10) 0.0252(9) 0.0345(10) -0.0128(8) -0.0040(7) 0.0000(7)
O2 0.0623(16) 0.0696(16) 0.0507(13) -0.0142(11) 0.0070(11) 0.0172(12)
C2 0.0239(12) 0.0266(11) 0.0350(12) -0.0135(9) -0.0030(9) 0.0034(9)
C3 0.0275(12) 0.0198(10) 0.0357(12) -0.0072(9) 0.0001(9) -0.0032(9)
C4 0.0320(13) 0.0264(11) 0.0328(12) -0.0136(9) -0.0004(9) 0.0011(9)
C5 0.0381(14) 0.0240(11) 0.0307(12) -0.0111(9) 0.0015(10) -0.0029(9)
C6 0.0340(13) 0.0352(13) 0.0273(12) -0.0096(10) 0.0032(9) -0.0045(10)
C7 0.0225(12) 0.0253(11) 0.0376(12) -0.0125(9) -0.0014(9) 0.0016(9)
C8 0.0293(12) 0.0292(12) 0.0337(12) -0.0113(9) -0.0028(9) 0.0005(9)
C9 0.0402(14) 0.0267(12) 0.0315(12) -0.0077(9) -0.0064(10) -0.0018(10)
C10 0.0229(12) 0.0292(12) 0.0344(12) -0.0139(9) -0.0012(9) -0.0002(9)
C11 0.0216(12) 0.0311(12) 0.0361(12) -0.0131(10) 0.0006(9) 0.0008(9)
C12 0.0258(12) 0.0252(11) 0.0332(12) -0.0104(9) -0.0023(9) 0.0002(9)
C13 0.0430(16) 0.0356(14) 0.0369(14) -0.0162(11) 0.0173(11) -0.0051(11)
C14 0.0471(17) 0.0273(13) 0.0533(18) -0.0168(12) 0.0210(13) -0.0040(11)
C15 0.0299(13) 0.0259(12) 0.0375(13) -0.0098(10) 0.0026(10) 0.0031(9)
C16 0.0400(15) 0.0395(14) 0.0369(13) -0.0138(11) -0.0059(11) -0.0002(11)
C17 0.0440(15) 0.0338(13) 0.0358(13) -0.0096(10) 0.0022(11) -0.0049(11)
C18 0.0358(15) 0.0416(15) 0.0436(15) -0.0056(12) 0.0033(11) 0.0044(11)
C19 0.0405(15) 0.0455(16) 0.0421(14) -0.0217(12) 0.0030(11) -0.0081(12)
C20 0.0334(14) 0.0409(14) 0.0420(14) -0.0103(11) -0.0024(11) -0.0033(11)
C21 0.0474(16) 0.0394(15) 0.0393(14) -0.0138(11) -0.0015(12) -0.0049(12)
C22 0.064(2) 0.0445(17) 0.0497(17) -0.0193(13) 0.0032(14) -0.0089(14)
C23 0.071(2) 0.0354(15) 0.0557(18) -0.0183(13) 0.0349(16) -0.0094(15)
C24 0.058(2) 0.065(2) 0.079(2) -0.0406(19) 0.0244(18) -0.0193(17)
C25A 0.065(3) 0.036(2) 0.035(2) -0.0121(15) 0.0122(17) -0.0089(17)
C25B 0.045(9) 0.061(9) 0.093(12) -0.058(9) 0.028(8) -0.016(7)
loop_
_atom_type_symbol
_atom_type_description
_atom_type_scat_dispersion_real
_atom_type_scat_dispersion_imag
_atom_type_scat_source
C C 0.0181 0.0091 'International Tables Vol C Tables 4.2.6.8 and 6.1.1.4'
H H 0.0000 0.0000 'International Tables Vol C Tables 4.2.6.8 and 6.1.1.4'
N N 0.0311 0.0180 'International Tables Vol C Tables 4.2.6.8 and 6.1.1.4'
O O 0.0492 0.0322 'International Tables Vol C Tables 4.2.6.8 and 6.1.1.4'
S S 0.3331 0.5567 'International Tables Vol C Tables 4.2.6.8 and 6.1.1.4'
Cl Cl 0.3639 0.7018 'International Tables Vol C Tables 4.2.6.8 and 6.1.1.4'
Zn Zn -1.5491 0.6778 'International Tables Vol C Tables 4.2.6.8 and 6.1.1.4'
loop_
_geom_angle_atom_site_label_1
_geom_angle_atom_site_label_2
_geom_angle_atom_site_label_3
_geom_angle
_geom_angle_site_symmetry_1
_geom_angle_site_symmetry_3
O3 Zn1 N1 134.90(8) . .
O3 Zn1 N2 100.17(8) . 1_465
N1 Zn1 N2 109.62(8) . 1_465
O3 Zn1 Cl 104.51(7) . .
N1 Zn1 Cl 101.38(6) . .
N2 Zn1 Cl 102.22(6) 1_465 .
C3 S1 C15 101.70(11) . .
C12 S2 C15 103.45(12) . .
C14 O3 Zn1 104.12(18) . .
C5 N1 C8 117.5(2) . .
C5 N1 Zn1 122.73(15) . .
C8 N1 Zn1 119.69(16) . .
C10 N2 C2 117.9(2) . .
C10 N2 Zn1 121.94(16) . 1_645
C2 N2 Zn1 119.44(15) . 1_645
N2 C2 C11 123.1(2) . .
C4 C3 C9 117.6(2) . .
C4 C3 S1 124.46(18) . .
C9 C3 S1 117.93(19) . .
C8 C4 C3 119.4(2) . .
N1 C5 C9 123.0(2) . .
C16 C6 C20 117.2(2) . .
C16 C6 C17 122.3(2) . .
C20 C6 C17 120.5(2) . .
C10 C7 C12 118.9(2) . .
N1 C8 C4 123.2(2) . .
C5 C9 C3 119.4(2) . .
N2 C10 C7 122.9(2) . .
C2 C11 C12 119.0(2) . .
C7 C12 C11 118.2(2) . .
C7 C12 S2 125.95(18) . .
C11 C12 S2 115.85(19) . .
C19 C13 C18 117.8(3) . .
C19 C13 C23 118.7(3) . .
C18 C13 C23 123.4(3) . .
O2 C14 O3 123.0(3) . .
O2 C14 C23 121.9(3) . .
O3 C14 C23 115.1(3) . .
S2 C15 S1 110.37(14) . .
C19 C16 C6 121.6(3) . .
C6 C17 C21 113.3(2) . .
C20 C18 C13 121.2(3) . .
C13 C19 C16 121.1(3) . .
C18 C20 C6 121.1(3) . .
C24 C21 C22 110.8(3) . .
C24 C21 C17 111.5(3) . .
C22 C21 C17 111.0(2) . .
C25B C23 C13 124.9(7) . .
C25A C23 C13 114.6(3) . .
C25B C23 C14 126.4(6) . .
C25A C23 C14 112.1(3) . .
C13 C23 C14 106.1(2) . .
loop_
_geom_bond_atom_site_label_1
_geom_bond_atom_site_label_2
_geom_bond_distance
_geom_bond_site_symmetry_2
Zn1 O3 1.9567(19) .
Zn1 N1 2.0388(19) .
Zn1 N2 2.056(2) 1_465
Zn1 Cl 2.2862(7) .
S1 C3 1.756(2) .
S1 C15 1.817(3) .
S2 C12 1.758(2) .
S2 C15 1.797(2) .
O3 C14 1.257(4) .
N1 C5 1.342(3) .
N1 C8 1.343(3) .
N2 C10 1.343(3) .
N2 C2 1.344(3) .
N2 Zn1 2.0563(19) 1_645
O2 C14 1.246(4) .
C2 C11 1.373(4) .
C3 C4 1.388(3) .
C3 C9 1.397(3) .
C4 C8 1.376(3) .
C5 C9 1.375(4) .
C6 C16 1.388(4) .
C6 C20 1.395(4) .
C6 C17 1.508(4) .
C7 C10 1.383(3) .
C7 C12 1.391(3) .
C11 C12 1.400(3) .
C13 C19 1.383(4) .
C13 C18 1.390(4) .
C13 C23 1.529(4) .
C14 C23 1.533(4) .
C16 C19 1.385(4) .
C17 C21 1.545(4) .
C18 C20 1.386(4) .
C21 C24 1.508(5) .
C21 C22 1.524(4) .
C23 C25B 1.182(14) .
C23 C25A 1.478(5) .
loop_
_geom_hbond_atom_site_label_D
_geom_hbond_atom_site_label_H
_geom_hbond_atom_site_label_A
_geom_hbond_distance_DH
_geom_hbond_distance_HA
_geom_hbond_distance_DA
_geom_hbond_angle_DHA
_geom_hbond_site_symmetry_A
C2 H2 Cl 0.95 2.61 3.471(2) 151.4 1_745
C4 H4 Cl 0.95 2.71 3.397(3) 129.9 2_666
C5 H5 O2 0.95 2.37 3.065(3) 129.7 .
C7 H7 S1 0.95 2.92 3.573(2) 126.7 .
C8 H8 Cl 0.95 2.68 3.339(3) 127.3 .
C8 H8 Cl 0.95 2.93 3.515(2) 121.2 2_666
C15 H15B Cl 0.99 2.71 3.515(3) 138.4 2_766
