#------------------------------------------------------------------------------
#$Date: 2016-03-05 11:41:45 +0200 (Sat, 05 Mar 2016) $
#$Revision: 177798 $
#$URL: svn://www.crystallography.net/cod/cif/7/03/76/7037661.cif $
#------------------------------------------------------------------------------
#
# This file is available in the Crystallography Open Database (COD),
# http://www.crystallography.net/
#
# All data on this site have been placed in the public domain by the
# contributors.
#
data_7037661
loop_
_publ_author_name
'Cadman, Laura K.'
'Bristow, Jessica K.'
'Stubbs, Naomi E.'
'Tiana, Davide'
'Mahon, Mary F.'
'Walsh, Aron'
'Burrows, Andrew D.'
_publ_section_title
;
 Compositional control of pore geometry in multivariate metal-organic
 frameworks: an experimental and computational study.
;
_journal_issue                   10
_journal_name_full
'Dalton transactions (Cambridge, England : 2003)'
_journal_page_first              4316
_journal_page_last               4326
_journal_paper_doi               10.1039/c5dt04045k
_journal_volume                  45
_journal_year                    2016
_chemical_formula_moiety         '0.25(C88 H56 N15.2 O32 Zn8)'
_chemical_formula_sum            'C22 H21.8 N3.8 O8 Zn2'
_chemical_formula_weight         598.17
_chemical_name_systematic
;
 ?
;
_space_group_crystal_system      monoclinic
_space_group_IT_number           15
_space_group_name_Hall           '-I 2ya'
_space_group_name_H-M_alt        'I 1 2/a 1'
_symmetry_space_group_name_Hall  '-I 2ya'
_symmetry_space_group_name_H-M   'I 1 2/a 1'
_atom_sites_solution_hydrogens   geom
_audit_creation_date             2015-11-13
_audit_creation_method
;
Olex2 1.2
(compiled 2015.09.30 svn.r3233 for OlexSys, GUI svn.r5103)
;
_audit_update_record
;
2015-11-13 deposited with the CCDC.
2015-12-02 downloaded from the CCDC.
;
_cell_angle_alpha                90
_cell_angle_beta                 94.7265(19)
_cell_angle_gamma                90
_cell_formula_units_Z            4
_cell_length_a                   15.3434(4)
_cell_length_b                   14.7669(3)
_cell_length_c                   19.2363(4)
_cell_measurement_reflns_used    8256
_cell_measurement_temperature    150(2)
_cell_measurement_theta_max      71.5890
_cell_measurement_theta_min      5.7840
_cell_volume                     4343.63(17)
_computing_cell_refinement
;
CrysAlisPro, Agilent Technologies,
Version 1.171.37.34 (release 22-05-2014 CrysAlis171 .NET)
(compiled May 22 2014,16:03:01)
;
_computing_data_collection
;
CrysAlisPro, Agilent Technologies,
Version 1.171.37.34 (release 22-05-2014 CrysAlis171 .NET)
(compiled May 22 2014,16:03:01)
;
_computing_data_reduction
;
CrysAlisPro, Agilent Technologies,
Version 1.171.37.34 (release 22-05-2014 CrysAlis171 .NET)
(compiled May 22 2014,16:03:01)
;
_computing_molecular_graphics    'ORTEX (P.McArdle, 1995)'
_computing_publication_material  'SHELXL-97/2 (Sheldrick,1997)'
_computing_structure_refinement  'SHELXL-97 (Sheldrick, 1997)'
_computing_structure_solution    'SHELXS-97 (Sheldrick, 1990)'
_diffrn_ambient_environment      N~2~
_diffrn_ambient_temperature      150.00(10)
_diffrn_detector                 'CCD plate'
_diffrn_detector_type            EosS2
_diffrn_measured_fraction_theta_full 1.000
_diffrn_measured_fraction_theta_max 0.999
_diffrn_measurement_device       'four-circle diffractometer'
_diffrn_measurement_device_type  'SuperNova, Dual, Cu at zero, EosS2'
_diffrn_radiation_monochromator  mirror
_diffrn_radiation_probe          x-ray
_diffrn_radiation_type           CuK\a
_diffrn_radiation_wavelength     1.54184
_diffrn_reflns_av_R_equivalents  0.0526
_diffrn_reflns_av_unetI/netI     0.0308
_diffrn_reflns_laue_measured_fraction_full 1.000
_diffrn_reflns_laue_measured_fraction_max 0.999
_diffrn_reflns_limit_h_max       18
_diffrn_reflns_limit_h_min       -16
_diffrn_reflns_limit_k_max       17
_diffrn_reflns_limit_k_min       -18
_diffrn_reflns_limit_l_max       21
_diffrn_reflns_limit_l_min       -23
_diffrn_reflns_number            23630
_diffrn_reflns_point_group_measured_fraction_full 1.000
_diffrn_reflns_point_group_measured_fraction_max 0.999
_diffrn_reflns_theta_full        67.684
_diffrn_reflns_theta_max         71.823
_diffrn_reflns_theta_min         4.162
_diffrn_source                   'sealed X-ray tube'
_diffrn_source_type              'SuperNova (Cu) X-ray Source'
_exptl_absorpt_coefficient_mu    1.626
_exptl_absorpt_correction_T_max  1.00000
_exptl_absorpt_correction_T_min  0.46377
_exptl_absorpt_correction_type   multi-scan
_exptl_absorpt_process_details
;
CrysAlisPro, Agilent Technologies,
Version 1.171.37.34 (release 22-05-2014 CrysAlis171 .NET)
(compiled May 22 2014,16:03:01)
Empirical absorption correction using spherical harmonics,
 implemented in SCALE3 ABSPACK scaling algorithm.
;
_exptl_crystal_colour            orange-brown
_exptl_crystal_density_diffrn    0.915
_exptl_crystal_density_method    'not measured'
_exptl_crystal_description       tabloid
_exptl_crystal_F_000             1218
_exptl_crystal_size_max          0.29
_exptl_crystal_size_mid          0.23
_exptl_crystal_size_min          0.09
_refine_diff_density_max         0.611
_refine_diff_density_min         -0.568
_refine_diff_density_rms         0.076
_refine_ls_extinction_method     none
_refine_ls_goodness_of_fit_ref   1.099
_refine_ls_hydrogen_treatment    constr
_refine_ls_matrix_type           full
_refine_ls_number_parameters     208
_refine_ls_number_reflns         4259
_refine_ls_number_restraints     39
_refine_ls_restrained_S_all      1.132
_refine_ls_R_factor_all          0.0595
_refine_ls_R_factor_gt           0.0523
_refine_ls_shift/su_max          0.001
_refine_ls_shift/su_mean         0.000
_refine_ls_structure_factor_coef Fsqd
_refine_ls_weighting_details
'w=1/[\s^2^(Fo^2^)+(0.0966P)^2^+4.7843P] where P=(Fo^2^+2Fc^2^)/3'
_refine_ls_weighting_scheme      calc
_refine_ls_wR_factor_gt          0.1624
_refine_ls_wR_factor_ref         0.1702
_reflns_Friedel_coverage         0.000
_reflns_number_gt                3429
_reflns_number_total             4259
_reflns_threshold_expression     'I > 2\s(I)'
_iucr_refine_instructions_details
;
TITL s14adb4 in I2/a
REM I2/a (#15 in standard setting)
REM C11 H10.9 N1.9 O4 Zn1 = pre squeeze unit for 90% ndc
REM 0.75 moles of DMF per ZN atom (from TGA)
REM _exptl_crystal_size_max 0.2865
REM _exptl_crystal_size_mid 0.2273
REM _exptl_crystal_size_min 0.0877
REM pre squeeze R(int) 0.0504
REM s14adb4 in I2/a
REM 209 parameters refined using 36 restraints
REM Highest difference peak 0.607, deepest hole -0.567, 1-sigma level 0.071
CELL 1.54184 15.343398 14.766885 19.236327 90 94.7265 90
ZERR 4 0.000367 0.000329 0.000397 0 0.0019 0
LATT 2
SYMM 0.5-X,+Y,-Z
SFAC C H N O Zn
UNIT 88 87.2 15.2 32 8
DFIX 1.38 C7 N2 C3 N2B C4 N2A
ISOR 0.007 0.014 C9 C10 C11 C9A C10A C11A
 
L.S. 11 0 88
PLAN  3
SIZE 0.287 0.227 0.088
TEMP -123
GRID
BOND $H
CONF
MORE -1
ABIN
fmap 2
acta
MERG 2
SHEL 50 0
REM <olex2.extras>
REM <HklSrc "%.\\s14adb4.hkl">
REM </olex2.extras>
 
WGHT    0.096600    4.784300
FVAR       2.60007
ZN1   5    0.242686    0.250801    0.173085    11.00000    0.03552    0.03584 =
         0.03461   -0.00084    0.00343    0.00032
O1    4    0.124122    0.193521    0.184860    11.00000    0.04526    0.07121 =
         0.05157    0.02049   -0.00349   -0.01613
O2    4    0.137459    0.194136    0.300765    11.00000    0.04814    0.07906 =
         0.05505   -0.02302    0.01019   -0.01879
O3    4   -0.188088   -0.126359    0.311393    11.00000    0.07089    0.04512 =
         0.05498   -0.00515    0.02437   -0.01632
O4    4   -0.203248   -0.126969    0.195772    11.00000    0.07360    0.04703 =
         0.05353    0.00734   -0.01505   -0.02001
N1    3    0.246759    0.251020    0.066586    11.00000    0.03748    0.03575 =
         0.03521   -0.00076    0.00453    0.00095
N2    3   -0.007224    0.101985    0.119057    10.40000    0.09842    0.10311 =
         0.04913    0.01733    0.00026   -0.04763
N2A   3   -0.102905    0.012299    0.374929    10.40000    0.10434    0.09431 =
         0.04093   -0.01018    0.02217   -0.05334
N2B   3    0.012374    0.132580    0.366581    10.10000    0.08165    0.08620 =
         0.04757   -0.01063    0.01610   -0.04045
C1    1    0.100298    0.170824    0.243064    11.00000    0.03797    0.04280 =
         0.04806   -0.00112    0.00252   -0.00079
C2    1    0.022453    0.110440    0.244292    11.00000    0.04071    0.03883 =
         0.04087   -0.00037    0.00277   -0.00286
C3    1   -0.007354    0.086186    0.308096    11.00000    0.05332    0.05879 =
         0.03869   -0.00947    0.00817   -0.01084
C4    1   -0.073467    0.022585    0.311851    11.00000    0.05830    0.05863 =
         0.03826   -0.00352    0.01254   -0.01298
C5    1   -0.109470   -0.018394    0.250914    11.00000    0.04168    0.03906 =
         0.03987    0.00075    0.00254   -0.00242
C6    1   -0.082397    0.009482    0.187234    11.00000    0.05820    0.05442 =
         0.03309    0.00258   -0.00540   -0.01428
AFIX  43
H6    2   -0.109252   -0.016015    0.145467    11.00000   -1.20000
AFIX   0
C7    1   -0.017553    0.073198    0.183190    11.00000    0.05995    0.05752 =
         0.03670    0.00479    0.00220   -0.01292
C8    1   -0.171655   -0.095639    0.253063    11.00000    0.04070    0.03864 =
         0.04753   -0.00089    0.00383   -0.00095
PART 1
C9    1    0.191348    0.178512    0.034467    10.50000    0.09687    0.07034 =
         0.05042   -0.00901    0.01389   -0.03263
AFIX  23
H9A   2    0.140377    0.164311    0.060919    10.50000   -1.20000
H9B   2    0.224393    0.122680    0.025607    10.50000   -1.20000
AFIX   0
C10   1    0.338873    0.247125    0.048033    10.50000    0.05946    0.12128 =
         0.05917   -0.00065    0.00590   -0.00303
AFIX  23
H10A  2    0.378040    0.214104    0.082805    10.50000   -1.20000
H10B  2    0.363375    0.307443    0.038447    10.50000   -1.20000
AFIX   0
C11   1    0.213792    0.337915    0.033728    10.50000    0.10212    0.05928 =
         0.05097    0.00085    0.00427    0.02192
AFIX  23
H11A  2    0.222978    0.390445    0.065464    10.50000   -1.20000
H11B  2    0.151618    0.334313    0.015557    10.50000   -1.20000
AFIX   0
PART 0
PART 2
C9A   1    0.161328    0.231056    0.031509    10.50000    0.04780    0.10417 =
         0.04750    0.01266    0.00267   -0.00221
AFIX  23
H9AA  2    0.126161    0.286812    0.023261    10.50000   -1.20000
H9AB  2    0.128550    0.187622    0.058648    10.50000   -1.20000
AFIX   0
C10A  1    0.311153    0.183674    0.046478    10.50000    0.07677    0.07149 =
         0.03761    0.00392    0.00388    0.04268
AFIX  23
H10C  2    0.284697    0.122887    0.039361    10.50000   -1.20000
H10D  2    0.362266    0.179828    0.081288    10.50000   -1.20000
AFIX   0
C11A  1    0.274701    0.339535    0.043414    10.50000    0.10279    0.05658 =
         0.04980   -0.00242    0.01583   -0.01852
AFIX  23
H11C  2    0.339191    0.343977    0.044651    10.50000   -1.20000
H11D  2    0.251989    0.389111    0.071491    10.50000   -1.20000
AFIX   0
HKLF 4
 
REM  s14adb4 in I2/a
REM R1 =  0.0523 for    3429 Fo > 4sig(Fo)  and  0.0595 for all    4259 data
REM    208 parameters refined using     39 restraints
 
END  
     
WGHT      0.0965      4.7841 

REM Highest difference peak  0.611,  deepest hole -0.568,  1-sigma level  0.076
Q1    1   0.2534  0.1617  0.0422  11.00000  0.05    0.61
Q2    1   0.1695  0.2985  0.0373  11.00000  0.05    0.54
Q3    1   0.3231  0.3047  0.0472  11.00000  0.05    0.53

  REM The information below was added by Olex2.
  REM
  REM R1 = 0.0523 for 3429 Fo > 4sig(Fo) and 0.0595 for all 24104 data
  REM n/a parameters refined using n/a restraints
  REM Highest difference peak 0.61, deepest hole -0.57
  REM Mean Shift 0, Max Shift 0.001.
  
  REM +++ Tabular Listing of Refinement Information +++
  REM R1_all = 0.0595
  REM R1_gt = 0.0523
  REM wR_ref = 0.1702
  REM GOOF = 1.099
  REM Shift_max = 0.001
  REM Shift_mean = 0
  REM Reflections_all = 24104
  REM Reflections_gt = 3429
  REM Parameters = n/a
  REM Hole = -0.57
  REM Peak = 0.61
  REM Flack = n/a
  
  
;
_cod_data_source_file            c5dt04045k2.cif
_cod_data_source_block           s14adb4_sq
_cod_depositor_comments
'Adding full bibliography for 7037655--7037663.cif.'
_cod_original_formula_sum        'C22 H21.80 N3.80 O8 Zn2'
_cod_database_code               7037661
_shelxl_version_number           2014-3
_shelx_space_group_comment
;
The symmetry employed for this shelxl refinement is uniquely defined
by the following loop, which should always be used as a source of
symmetry information in preference to the above space-group names.
They are only intended as comments.
;
_shelx_estimated_absorpt_t_max   0.870
_shelx_estimated_absorpt_t_min   0.653
_shelx_fab_checksum              13948
_shelx_fab_file
;
    0    0    2    189.72      0.00
    0    0    4     11.88      0.00
    0    0    6     53.68      0.00
    0    0    8     48.00      0.00
    0    0   10     12.18      0.00
    0    0   12     12.68      0.00
    0    0   14      8.30      0.00
    0    0   16      5.38      0.00
    0    0   18      4.32      0.00
    0    0   20      2.81      0.00
    0    0   22      1.76      0.00
    0    1    3     19.88      0.00
    0    1    5      9.79      0.00
    0    1    7      2.75      0.00
    0    1    9      2.70      0.00
    0    1   11      0.06      0.00
    0    1   13     -0.58      0.00
    0    1   15     -0.12      0.00
    0    1   17      0.17      0.00
    0    1   19     -1.63      0.00
    0    1   21     -0.43      0.00
    0    1   23     -1.69      0.00
    0    2    0     17.02      0.00
    0    2    2     46.22      0.00
    0    2    4     33.01      0.00
    0    2    6     35.05      0.00
    0    2    8     25.97      0.00
    0    2   10     12.85      0.00
    0    2   12      5.46      0.00
    0    2   14      4.36      0.00
    0    2   16      3.14      0.00
    0    2   18      2.15      0.00
    0    2   20      1.96      0.00
    0    2   22      1.85      0.00
    0    3    1      3.20      0.00
    0    3    3      4.41      0.00
    0    3    5     24.97      0.00
    0    3    7     21.08      0.00
    0    3    9     12.52      0.00
    0    3   11      7.47      0.00
    0    3   13      5.41      0.00
    0    3   15      2.04      0.00
    0    3   17      1.98      0.00
    0    3   19      1.50      0.00
    0    3   21      1.54      0.00
    0    3   23      2.59      0.00
    0    4    0    -78.77      0.00
    0    4    2      3.53      0.00
    0    4    4     44.15      0.00
    0    4    6     13.95      0.00
    0    4    8      9.35      0.00
    0    4   10     -5.47      0.00
    0    4   12     -3.79      0.00
    0    4   14      3.01      0.00
    0    4   16      1.49      0.00
    0    4   18     -1.92      0.00
    0    4   20      0.94      0.00
    0    4   22      1.16      0.00
    0    5    1     27.77      0.00
    0    5    3      5.06      0.00
    0    5    5      3.30      0.00
    0    5    7     -0.76      0.00
    0    5    9      2.97      0.00
    0    5   11      5.10      0.00
    0    5   13      4.48      0.00
    0    5   15      1.69      0.00
    0    5   17      0.85      0.00
    0    5   19      2.11      0.00
    0    5   21      1.03      0.00
    0    6    0    -12.63      0.00
    0    6    2      7.86      0.00
    0    6    4      9.67      0.00
    0    6    6     21.15      0.00
    0    6    8      0.77      0.00
    0    6   10      5.55      0.00
    0    6   12      5.87      0.00
    0    6   14      4.10      0.00
    0    6   16      1.53      0.00
    0    6   18      0.22      0.00
    0    6   20      0.07      0.00
    0    6   22     -0.49      0.00
    0    7    1      0.81      0.00
    0    7    3      6.87      0.00
    0    7    5      0.32      0.00
    0    7    7     -2.92      0.00
    0    7    9     -0.93      0.00
    0    7   11     -0.96      0.00
    0    7   13      0.58      0.00
    0    7   15     -0.83      0.00
    0    7   17      3.33      0.00
    0    7   19      1.65      0.00
    0    7   21      1.17      0.00
    0    8    0      4.59      0.00
    0    8    2     13.09      0.00
    0    8    4     18.91      0.00
    0    8    6     -5.47      0.00
    0    8    8      2.70      0.00
    0    8   10     10.01      0.00
    0    8   12      6.53      0.00
    0    8   14     -2.66      0.00
    0    8   16      1.45      0.00
    0    8   18      2.50      0.00
    0    8   20      0.50      0.00
    0    9    1      2.56      0.00
    0    9    3     -0.72      0.00
    0    9    5     -1.96      0.00
    0    9    7      2.72      0.00
    0    9    9      0.75      0.00
    0    9   11     -1.22      0.00
    0    9   13     -0.15      0.00
    0    9   15      0.80      0.00
    0    9   17      1.79      0.00
    0    9   19     -1.52      0.00
    0   10    0      0.79      0.00
    0   10    2     14.05      0.00
    0   10    4     -1.31      0.00
    0   10    6      1.56      0.00
    0   10    8      7.44      0.00
    0   10   10      5.08      0.00
    0   10   12     -1.66      0.00
    0   10   14     -2.65      0.00
    0   10   16      0.37      0.00
    0   10   18     -0.57      0.00
    0   11    1     -0.09      0.00
    0   11    3      2.02      0.00
    0   11    5      0.64      0.00
    0   11    7     -1.35      0.00
    0   11    9      0.65      0.00
    0   11   11      2.24      0.00
    0   11   13      2.20      0.00
    0   11   15     -0.60      0.00
    0   11   17      0.54      0.00
    0   12    0      3.76      0.00
    0   12    2     -5.53      0.00
    0   12    4      2.28      0.00
    0   12    6      1.67      0.00
    0   12    8     -0.37      0.00
    0   12   10     -4.05      0.00
    0   12   12     -2.75      0.00
    0   12   14     -1.33      0.00
    0   12   16     -0.68      0.00
    0   13    1      3.24      0.00
    0   13    3      2.40      0.00
    0   13    5      3.05      0.00
    0   13    7      0.51      0.00
    0   13    9      0.30      0.00
    0   13   11     -0.99      0.00
    0   13   13     -1.74      0.00
    0   13   15     -0.23      0.00
    0   14    0     -0.36      0.00
    0   14    2      3.10      0.00
    0   14    4      0.43      0.00
    0   14    6      1.98      0.00
    0   14    8     -1.25      0.00
    0   14   10     -1.49      0.00
    0   14   12     -0.26      0.00
    0   14   14     -3.10      0.00
    0   15    1     -0.22      0.00
    0   15    3      0.56      0.00
    0   15    5      0.26      0.00
    0   15    7     -0.90      0.00
    0   15    9     -0.93      0.00
    0   15   11      0.61      0.00
    0   15   13      1.09      0.00
    0   16    0      1.29      0.00
    0   16    2     -0.41      0.00
    0   16    4     -2.94      0.00
    0   16    6      0.09      0.00
    0   16    8      1.64      0.00
    0   16   10     -0.05      0.00
    0   17    1      0.36      0.00
    0   17    3      0.80      0.00
    0   17    5     -0.06      0.00
    0   17    7     -1.55      0.00
    0   18    0      2.32      0.00
    0   18    2     -0.65      0.00
   -1    1   22      2.16      0.00
   -1    1   20     -0.33      0.00
   -1    1   18     -0.40      0.00
   -1    1   16     -0.88      0.00
   -1    1   14      0.43      0.00
   -1    1   12     -0.84      0.00
   -1    1   10      5.40      0.00
   -1    1    8      1.49      0.00
   -1    1    6     13.79      0.00
   -1    1    4     23.53      0.00
   -1    1    2    -56.72      0.00
    1    1    0    249.10      0.00
    1    1    2     37.27      0.00
    1    1    4     -0.29      0.00
    1    1    6      8.37      0.00
    1    1    8     11.69      0.00
    1    1   10      0.52      0.00
    1    1   12      2.75      0.00
    1    1   14     -0.65      0.00
    1    1   16     -0.50      0.00
    1    1   18      0.45      0.00
    1    1   20     -0.85      0.00
    1    1   22      0.84      0.00
   -1    2   23      0.97      0.00
   -1    2   21      1.68      0.00
   -1    2   19      2.29      0.00
   -1    2   17      0.67      0.00
   -1    2   15      1.98      0.00
   -1    2   13      4.35      0.00
   -1    2   11      4.38      0.00
   -1    2    9      9.84      0.00
   -1    2    7     14.06      0.00
   -1    2    5      9.50      0.00
   -1    2    3     82.88      0.00
   -1    2    1    141.90      0.00
    1    2    1    135.53      0.00
    1    2    3    114.63      0.00
    1    2    5     12.32      0.00
    1    2    7     10.07      0.00
    1    2    9     11.68      0.00
    1    2   11      4.95      0.00
    1    2   13      3.10      0.00
    1    2   15      3.03      0.00
    1    2   17      0.68      0.00
    1    2   19      0.17      0.00
    1    2   21     -0.50      0.00
    1    2   23     -2.05      0.00
   -1    3   22     -0.67      0.00
   -1    3   20      0.36      0.00
   -1    3   18      0.79      0.00
   -1    3   16      1.28      0.00
   -1    3   14      0.74      0.00
   -1    3   12      2.23      0.00
   -1    3   10      4.28      0.00
   -1    3    8     -5.06      0.00
   -1    3    6    -10.44      0.00
   -1    3    4     22.79      0.00
   -1    3    2    -50.96      0.00
    1    3    0    115.40      0.00
    1    3    2     -3.72      0.00
    1    3    4    -36.64      0.00
    1    3    6      6.75      0.00
    1    3    8     10.13      0.00
    1    3   10      6.12      0.00
    1    3   12      3.44      0.00
    1    3   14      1.66      0.00
    1    3   16      0.87      0.00
    1    3   18      0.98      0.00
    1    3   20     -1.18      0.00
    1    3   22     -0.06      0.00
   -1    4   23      0.86      0.00
   -1    4   21      0.79      0.00
   -1    4   19      2.23      0.00
   -1    4   17      0.80      0.00
   -1    4   15      0.35      0.00
   -1    4   13      2.34      0.00
   -1    4   11      2.65      0.00
   -1    4    9     -2.32      0.00
   -1    4    7    -10.15      0.00
   -1    4    5      6.34      0.00
   -1    4    3     -0.28      0.00
   -1    4    1      6.72      0.00
    1    4    1    -29.57      0.00
    1    4    3      3.85      0.00
    1    4    5     33.95      0.00
    1    4    7     13.43      0.00
    1    4    9      7.94      0.00
    1    4   11      5.92      0.00
    1    4   13      2.66      0.00
    1    4   15     -0.16      0.00
    1    4   17      0.26      0.00
    1    4   19      1.01      0.00
    1    4   21      1.42      0.00
   -1    5   22     -0.33      0.00
   -1    5   20      0.91      0.00
   -1    5   18      2.25      0.00
   -1    5   16      0.82      0.00
   -1    5   14     -1.48      0.00
   -1    5   12      4.52      0.00
   -1    5   10      6.77      0.00
   -1    5    8     -8.76      0.00
   -1    5    6     -6.59      0.00
   -1    5    4    -15.21      0.00
   -1    5    2     -2.56      0.00
    1    5    0     35.00      0.00
    1    5    2     17.89      0.00
    1    5    4      9.61      0.00
    1    5    6      8.81      0.00
    1    5    8     15.26      0.00
    1    5   10     -4.22      0.00
    1    5   12     -1.69      0.00
    1    5   14      3.85      0.00
    1    5   16      1.11      0.00
    1    5   18     -1.42      0.00
    1    5   20     -0.33      0.00
    1    5   22      0.94      0.00
   -1    6   21      0.14      0.00
   -1    6   19     -0.59      0.00
   -1    6   17      4.42      0.00
   -1    6   15      1.27      0.00
   -1    6   13     -5.69      0.00
   -1    6   11     -4.06      0.00
   -1    6    9      6.22      0.00
   -1    6    7      1.12      0.00
   -1    6    5    -15.76      0.00
   -1    6    3     -8.10      0.00
   -1    6    1     -6.49      0.00
    1    6    1      2.71      0.00
    1    6    3     -5.15      0.00
    1    6    5     -5.08      0.00
    1    6    7      7.89      0.00
    1    6    9     11.77      0.00
    1    6   11      1.57      0.00
    1    6   13     -2.88      0.00
    1    6   15      2.07      0.00
    1    6   17      1.57      0.00
    1    6   19      0.22      0.00
    1    6   21     -0.30      0.00
   -1    7   20      2.21      0.00
   -1    7   18      2.39      0.00
   -1    7   16      1.68      0.00
   -1    7   14     -1.06      0.00
   -1    7   12      1.09      0.00
   -1    7   10      1.53      0.00
   -1    7    8     -2.17      0.00
   -1    7    6    -16.34      0.00
   -1    7    4     -9.63      0.00
   -1    7    2    -15.47      0.00
    1    7    0      0.91      0.00
    1    7    2      5.88      0.00
    1    7    4      2.34      0.00
    1    7    6     15.16      0.00
    1    7    8     -3.50      0.00
    1    7   10     -2.35      0.00
    1    7   12      0.89      0.00
    1    7   14      6.02      0.00
    1    7   16      0.72      0.00
    1    7   18     -1.53      0.00
    1    7   20     -0.44      0.00
   -1    8   21     -1.10      0.00
   -1    8   19      0.24      0.00
   -1    8   17     -1.07      0.00
   -1    8   15      0.69      0.00
   -1    8   13     -2.80      0.00
   -1    8   11     -5.12      0.00
   -1    8    9     -2.20      0.00
   -1    8    7      7.09      0.00
   -1    8    5     -4.64      0.00
   -1    8    3    -11.06      0.00
   -1    8    1      0.51      0.00
    1    8    1      5.21      0.00
    1    8    3     -4.41      0.00
    1    8    5      1.55      0.00
    1    8    7      6.69      0.00
    1    8    9     -0.30      0.00
    1    8   11     -2.39      0.00
    1    8   13     -0.66      0.00
    1    8   15      0.24      0.00
    1    8   17      0.57      0.00
    1    8   19      2.70      0.00
    1    8   21     -0.43      0.00
   -1    9   20      4.65      0.00
   -1    9   18      1.55      0.00
   -1    9   16     -0.89      0.00
   -1    9   14      0.26      0.00
   -1    9   12     -2.73      0.00
   -1    9   10     -1.21      0.00
   -1    9    8      1.94      0.00
   -1    9    6      1.75      0.00
   -1    9    4     -9.25      0.00
   -1    9    2     -2.48      0.00
    1    9    0      4.40      0.00
    1    9    2      0.70      0.00
    1    9    4     10.97      0.00
    1    9    6     -1.79      0.00
    1    9    8     -1.87      0.00
    1    9   10      1.92      0.00
    1    9   12      2.95      0.00
    1    9   14      0.27      0.00
    1    9   16     -0.47      0.00
    1    9   18     -0.99      0.00
    1    9   20     -4.79      0.00
   -1   10   19      0.91      0.00
   -1   10   17     -0.28      0.00
   -1   10   15      0.16      0.00
   -1   10   13      2.63      0.00
   -1   10   11      1.99      0.00
   -1   10    9     -3.40      0.00
   -1   10    7     -4.53      0.00
   -1   10    5      3.16      0.00
   -1   10    3      0.22      0.00
   -1   10    1     -5.62      0.00
    1   10    1     -1.27      0.00
    1   10    3      3.03      0.00
    1   10    5      2.25      0.00
    1   10    7     -1.95      0.00
    1   10    9     -2.17      0.00
    1   10   11      0.26      0.00
    1   10   13      1.94      0.00
    1   10   15      1.83      0.00
    1   10   17      1.82      0.00
    1   10   19      0.61      0.00
   -1   11   18      4.62      0.00
   -1   11   16     -1.95      0.00
   -1   11   14      0.70      0.00
   -1   11   12     -1.46      0.00
   -1   11   10     -3.09      0.00
   -1   11    8      0.61      0.00
   -1   11    6     -0.63      0.00
   -1   11    4      0.80      0.00
   -1   11    2     -6.80      0.00
    1   11    0     -3.28      0.00
    1   11    2      8.14      0.00
    1   11    4     -0.31      0.00
    1   11    6     -1.79      0.00
    1   11    8      1.85      0.00
    1   11   10      5.77      0.00
    1   11   12      0.33      0.00
    1   11   14     -1.62      0.00
    1   11   16     -1.28      0.00
    1   11   18     -2.32      0.00
   -1   12   17      0.13      0.00
   -1   12   15      0.62      0.00
   -1   12   13     -0.83      0.00
   -1   12   11      0.53      0.00
   -1   12    9     -0.35      0.00
   -1   12    7     -3.41      0.00
   -1   12    5     -0.11      0.00
   -1   12    3      2.20      0.00
   -1   12    1      0.81      0.00
    1   12    1      1.77      0.00
    1   12    3      4.22      0.00
    1   12    5     -1.10      0.00
    1   12    7     -3.02      0.00
    1   12    9      0.85      0.00
    1   12   11      4.17      0.00
    1   12   13      2.64      0.00
    1   12   15     -0.86      0.00
    1   12   17      2.93      0.00
   -1   13   16     -2.05      0.00
   -1   13   14     -0.22      0.00
   -1   13   12      0.65      0.00
   -1   13   10     -0.42      0.00
   -1   13    8      0.00      0.00
   -1   13    6      2.54      0.00
   -1   13    4     -1.17      0.00
   -1   13    2      3.07      0.00
    1   13    0     -1.00      0.00
    1   13    2     -3.38      0.00
    1   13    4      3.04      0.00
    1   13    6     -0.12      0.00
    1   13    8     -0.77      0.00
    1   13   10      0.90      0.00
    1   13   12      0.14      0.00
    1   13   14      0.41      0.00
    1   13   16     -0.89      0.00
   -1   14   15      0.35      0.00
   -1   14   13      1.81      0.00
   -1   14   11      0.41      0.00
   -1   14    9     -0.42      0.00
   -1   14    7      1.15      0.00
   -1   14    5     -0.03      0.00
   -1   14    3     -1.97      0.00
   -1   14    1     -1.17      0.00
    1   14    1      3.51      0.00
    1   14    3     -1.18      0.00
    1   14    5      2.20      0.00
    1   14    7      3.27      0.00
    1   14    9      0.96      0.00
    1   14   11     -1.02      0.00
    1   14   13     -0.13      0.00
   -1   15   12      0.55      0.00
   -1   15   10      1.07      0.00
   -1   15    8      1.67      0.00
   -1   15    6     -0.84      0.00
   -1   15    4     -0.59      0.00
   -1   15    2     -0.86      0.00
    1   15    0     -1.29      0.00
    1   15    2      1.13      0.00
    1   15    4      1.37      0.00
    1   15    6      1.12      0.00
    1   15    8     -1.86      0.00
    1   15   10     -0.46      0.00
    1   15   12     -1.64      0.00
   -1   16   11     -0.13      0.00
   -1   16    9     -1.55      0.00
   -1   16    7     -0.13      0.00
   -1   16    5      1.31      0.00
   -1   16    3     -1.05      0.00
   -1   16    1     -2.64      0.00
    1   16    1     -1.67      0.00
    1   16    3     -1.15      0.00
    1   16    5      0.90      0.00
    1   16    7     -0.13      0.00
    1   16    9     -2.01      0.00
    1   16   11     -0.38      0.00
   -1   17    8      2.04      0.00
   -1   17    6     -1.36      0.00
   -1   17    4     -0.85      0.00
   -1   17    2     -0.29      0.00
    1   17    0     -0.12      0.00
    1   17    2     -0.44      0.00
    1   17    4     -0.31      0.00
    1   17    6      1.16      0.00
    1   17    8     -1.40      0.00
   -1   18    3      0.01      0.00
   -1   18    1     -0.80      0.00
    1   18    1      0.85      0.00
    1   18    3      0.99      0.00
   -2    0   22      4.21      0.00
   -2    0   20      2.38      0.00
   -2    0   18      5.57      0.00
   -2    0   16      2.21      0.00
   -2    0   14      5.93      0.00
   -2    0   12      3.47      0.00
   -2    0   10      9.96      0.00
   -2    0    8      6.05      0.00
   -2    0    6     26.14      0.00
   -2    0    4      8.48      0.00
   -2    0    2     -8.46      0.00
    2    0    0     16.69      0.00
    2    0    2     76.81      0.00
    2    0    4     15.61      0.00
    2    0    6     21.99      0.00
    2    0    8      6.98      0.00
    2    0   10      9.74      0.00
    2    0   12      3.45      0.00
    2    0   14      2.38      0.00
    2    0   16      0.43      0.00
    2    0   18      0.52      0.00
    2    0   20      1.79      0.00
    2    0   22      0.24      0.00
   -2    1   23     -0.76      0.00
   -2    1   21      1.78      0.00
   -2    1   19      0.35      0.00
   -2    1   17      0.35      0.00
   -2    1   15      0.89      0.00
   -2    1   13      2.73      0.00
   -2    1   11      1.76      0.00
   -2    1    9      9.41      0.00
   -2    1    7      6.93      0.00
   -2    1    5      5.44      0.00
   -2    1    3     90.88      0.00
   -2    1    1    119.85      0.00
    2    1    1   -155.80      0.00
    2    1    3   -106.73      0.00
    2    1    5    -20.50      0.00
    2    1    7    -17.30      0.00
    2    1    9    -23.24      0.00
    2    1   11    -12.33      0.00
    2    1   13     -7.54      0.00
    2    1   15     -5.36      0.00
    2    1   17     -2.78      0.00
    2    1   19     -1.83      0.00
    2    1   21     -0.34      0.00
    2    1   23     -0.25      0.00
   -2    2   22      0.52      0.00
   -2    2   20      1.25      0.00
   -2    2   18      3.53      0.00
   -2    2   16      3.21      0.00
   -2    2   14     -0.11      0.00
   -2    2   12      3.73      0.00
   -2    2   10      5.74      0.00
   -2    2    8     -6.12      0.00
   -2    2    6    -18.36      0.00
   -2    2    4     23.61      0.00
   -2    2    2    -14.40      0.00
    2    2    0    -35.88      0.00
    2    2    2     21.35      0.00
    2    2    4     58.95      0.00
    2    2    6     -3.64      0.00
    2    2    8     -3.48      0.00
    2    2   10      3.42      0.00
    2    2   12      0.52      0.00
    2    2   14     -5.00      0.00
    2    2   16     -2.58      0.00
    2    2   18     -0.68      0.00
    2    2   20      0.24      0.00
    2    2   22     -0.55      0.00
   -2    3   23      0.40      0.00
   -2    3   21     -0.61      0.00
   -2    3   19      0.10      0.00
   -2    3   17      3.23      0.00
   -2    3   15      3.56      0.00
   -2    3   13      1.99      0.00
   -2    3   11      6.07      0.00
   -2    3    9     11.52      0.00
   -2    3    7      3.41      0.00
   -2    3    5      6.86      0.00
   -2    3    3    -28.08      0.00
   -2    3    1    -42.61      0.00
    2    3    1     81.81      0.00
    2    3    3     41.46      0.00
    2    3    5     -6.13      0.00
    2    3    7     -4.40      0.00
    2    3    9     -7.74      0.00
    2    3   11     -2.31      0.00
    2    3   13      1.71      0.00
    2    3   15     -0.16      0.00
    2    3   17     -1.36      0.00
    2    3   19      0.78      0.00
    2    3   21     -0.25      0.00
   -2    4   22      0.59      0.00
   -2    4   20      0.23      0.00
   -2    4   18     -0.62      0.00
   -2    4   16     -0.29      0.00
   -2    4   14      0.09      0.00
   -2    4   12     -3.91      0.00
   -2    4   10     -8.36      0.00
   -2    4    8    -13.38      0.00
   -2    4    6    -10.91      0.00
   -2    4    4    -33.75      0.00
   -2    4    2    -11.39      0.00
    2    4    0    -50.63      0.00
    2    4    2    -35.10      0.00
    2    4    4    -20.08      0.00
    2    4    6     -6.68      0.00
    2    4    8    -11.07      0.00
    2    4   10     -5.68      0.00
    2    4   12     -4.55      0.00
    2    4   14     -5.43      0.00
    2    4   16     -2.40      0.00
    2    4   18     -2.21      0.00
    2    4   20     -2.23      0.00
    2    4   22     -1.16      0.00
   -2    5   21      1.26      0.00
   -2    5   19     -0.42      0.00
   -2    5   17      2.37      0.00
   -2    5   15      2.72      0.00
   -2    5   13     -1.13      0.00
   -2    5   11      0.20      0.00
   -2    5    9      8.13      0.00
   -2    5    7     11.94      0.00
   -2    5    5     -7.24      0.00
   -2    5    3    -23.59      0.00
   -2    5    1    -21.53      0.00
    2    5    1     21.20      0.00
    2    5    3     22.97      0.00
    2    5    5     12.89      0.00
    2    5    7     -9.15      0.00
    2    5    9     -6.35      0.00
    2    5   11      2.41      0.00
    2    5   13      2.02      0.00
    2    5   15     -3.29      0.00
    2    5   17     -2.63      0.00
    2    5   19      0.40      0.00
    2    5   21      0.48      0.00
   -2    6   22     -0.78      0.00
   -2    6   20     -1.51      0.00
   -2    6   18     -0.93      0.00
   -2    6   16      0.12      0.00
   -2    6   14      3.65      0.00
   -2    6   12     -0.38      0.00
   -2    6   10     -6.12      0.00
   -2    6    8      1.97      0.00
   -2    6    6      0.98      0.00
   -2    6    4    -16.01      0.00
   -2    6    2    -24.92      0.00
    2    6    0     32.65      0.00
    2    6    2    -19.25      0.00
    2    6    4    -16.55      0.00
    2    6    6      3.11      0.00
    2    6    8     11.32      0.00
    2    6   10     -2.21      0.00
    2    6   12      2.43      0.00
    2    6   14      2.60      0.00
    2    6   16      0.20      0.00
    2    6   18     -0.71      0.00
    2    6   20     -1.10      0.00
   -2    7   21      0.44      0.00
   -2    7   19      0.45      0.00
   -2    7   17     -2.00      0.00
   -2    7   15     -0.55      0.00
   -2    7   13      3.65      0.00
   -2    7   11     -0.60      0.00
   -2    7    9     -8.84      0.00
   -2    7    7     -0.12      0.00
   -2    7    5      6.45      0.00
   -2    7    3     -4.57      0.00
   -2    7    1    -14.12      0.00
    2    7    1     -1.38      0.00
    2    7    3      5.55      0.00
    2    7    5     -7.26      0.00
    2    7    7     -1.52      0.00
    2    7    9      4.76      0.00
    2    7   11     -2.51      0.00
    2    7   13     -5.90      0.00
    2    7   15     -1.56      0.00
    2    7   17     -0.42      0.00
    2    7   19     -0.75      0.00
    2    7   21      1.61      0.00
   -2    8   20      0.21      0.00
   -2    8   18      0.87      0.00
   -2    8   16     -1.12      0.00
   -2    8   14      0.57      0.00
   -2    8   12     -0.13      0.00
   -2    8   10      1.39      0.00
   -2    8    8     -2.21      0.00
   -2    8    6      1.75      0.00
   -2    8    4      1.81      0.00
   -2    8    2     10.39      0.00
    2    8    0      4.97      0.00
    2    8    2      9.48      0.00
    2    8    4     -4.10      0.00
    2    8    6      4.91      0.00
    2    8    8      2.31      0.00
    2    8   10      4.33      0.00
    2    8   12      4.51      0.00
    2    8   14      2.81      0.00
    2    8   16      0.78      0.00
    2    8   18      0.92      0.00
    2    8   20      1.09      0.00
   -2    9   19     -1.72      0.00
   -2    9   17      0.21      0.00
   -2    9   15     -0.54      0.00
   -2    9   13      3.81      0.00
   -2    9   11      4.95      0.00
   -2    9    9     -0.87      0.00
   -2    9    7     -6.88      0.00
   -2    9    5      4.05      0.00
   -2    9    3      4.13      0.00
   -2    9    1     -4.83      0.00
    2    9    1      2.58      0.00
    2    9    3    -11.82      0.00
    2    9    5     -4.15      0.00
    2    9    7      8.79      0.00
    2    9    9      0.41      0.00
    2    9   11     -5.56      0.00
    2    9   13     -4.52      0.00
    2    9   15      0.24      0.00
    2    9   17     -0.35      0.00
    2    9   19      0.26      0.00
   -2   10   18     -0.98      0.00
   -2   10   16     -1.67      0.00
   -2   10   14      0.36      0.00
   -2   10   12     -1.59      0.00
   -2   10   10     -1.21      0.00
   -2   10    8      1.81      0.00
   -2   10    6     -4.52      0.00
   -2   10    4     -1.30      0.00
   -2   10    2      1.76      0.00
    2   10    0      9.43      0.00
    2   10    2      2.76      0.00
    2   10    4      0.07      0.00
    2   10    6     -1.54      0.00
    2   10    8      3.97      0.00
    2   10   10      0.39      0.00
    2   10   12      0.12      0.00
    2   10   14      0.46      0.00
    2   10   16      1.34      0.00
    2   10   18     -0.71      0.00
   -2   11   17     -0.21      0.00
   -2   11   15      0.19      0.00
   -2   11   13      0.94      0.00
   -2   11   11      1.68      0.00
   -2   11    9      1.79      0.00
   -2   11    7     -1.60      0.00
   -2   11    5     -0.88      0.00
   -2   11    3      1.88      0.00
   -2   11    1      1.19      0.00
    2   11    1     -0.73      0.00
    2   11    3     -0.67      0.00
    2   11    5     -0.37      0.00
    2   11    7     -1.26      0.00
    2   11    9     -3.04      0.00
    2   11   11     -2.80      0.00
    2   11   13     -1.54      0.00
    2   11   15      2.39      0.00
    2   11   17     -0.40      0.00
   -2   12   16     -1.18      0.00
   -2   12   14      0.36      0.00
   -2   12   12     -0.36      0.00
   -2   12   10     -1.82      0.00
   -2   12    8     -4.33      0.00
   -2   12    6      1.46      0.00
   -2   12    4     -2.67      0.00
   -2   12    2      0.61      0.00
    2   12    0     -0.12      0.00
    2   12    2      2.19      0.00
    2   12    4     -1.55      0.00
    2   12    6     -0.43      0.00
    2   12    8     -1.23      0.00
    2   12   10     -0.34      0.00
    2   12   12     -0.95      0.00
    2   12   14     -1.45      0.00
    2   12   16     -0.27      0.00
   -2   13   15      0.50      0.00
   -2   13   13      0.57      0.00
   -2   13   11      0.09      0.00
   -2   13    9      1.29      0.00
   -2   13    7      3.62      0.00
   -2   13    5      1.28      0.00
   -2   13    3     -0.69      0.00
   -2   13    1     -0.48      0.00
    2   13    1      0.87      0.00
    2   13    3      4.04      0.00
    2   13    5     -0.79      0.00
    2   13    7     -3.56      0.00
    2   13    9     -2.21      0.00
    2   13   11      1.10      0.00
    2   13   13      0.22      0.00
    2   13   15     -0.47      0.00
   -2   14   14      1.94      0.00
   -2   14   12      0.77      0.00
   -2   14   10      1.26      0.00
   -2   14    8     -1.80      0.00
   -2   14    6     -2.00      0.00
   -2   14    4      3.16      0.00
   -2   14    2     -1.32      0.00
    2   14    0     -4.06      0.00
    2   14    2     -0.45      0.00
    2   14    4      3.66      0.00
    2   14    6     -2.17      0.00
    2   14    8     -2.26      0.00
    2   14   10      0.91      0.00
    2   14   12      2.54      0.00
    2   14   14      0.94      0.00
   -2   15   13     -1.09      0.00
   -2   15   11      0.29      0.00
   -2   15    9     -0.27      0.00
   -2   15    7      0.77      0.00
   -2   15    5      0.10      0.00
   -2   15    3      0.72      0.00
   -2   15    1     -0.25      0.00
    2   15    1      1.88      0.00
    2   15    3     -1.67      0.00
    2   15    5      2.41      0.00
    2   15    7      2.46      0.00
    2   15    9     -0.75      0.00
    2   15   11     -0.86      0.00
   -2   16   10     -0.62      0.00
   -2   16    8      0.23      0.00
   -2   16    6     -0.15      0.00
   -2   16    4     -0.34      0.00
   -2   16    2      0.25      0.00
    2   16    0     -2.71      0.00
    2   16    2      1.32      0.00
    2   16    4      0.46      0.00
    2   16    6     -0.58      0.00
    2   16    8     -0.03      0.00
    2   16   10      0.87      0.00
   -2   17    7      0.88      0.00
   -2   17    5     -2.52      0.00
   -2   17    3      0.78      0.00
   -2   17    1      1.67      0.00
    2   17    1     -2.38      0.00
    2   17    3     -2.21      0.00
    2   17    5      1.20      0.00
    2   17    7      0.39      0.00
   -2   18    2      1.06      0.00
    2   18    0     -1.10      0.00
    2   18    2      0.48      0.00
   -3    1   22     -0.28      0.00
   -3    1   20     -1.63      0.00
   -3    1   18     -3.24      0.00
   -3    1   16      0.53      0.00
   -3    1   14     -1.48      0.00
   -3    1   12      0.41      0.00
   -3    1   10      0.20      0.00
   -3    1    8      5.86      0.00
   -3    1    6      0.17      0.00
   -3    1    4     44.69      0.00
   -3    1    2     -3.40      0.00
    3    1    0    122.69      0.00
    3    1    2     43.80      0.00
    3    1    4    -31.73      0.00
    3    1    6     10.27      0.00
    3    1    8      5.66      0.00
    3    1   10      3.95      0.00
    3    1   12      0.50      0.00
    3    1   14      0.23      0.00
    3    1   16     -1.23      0.00
    3    1   18      0.18      0.00
    3    1   20     -0.15      0.00
    3    1   22      1.14      0.00
   -3    2   23      0.29      0.00
   -3    2   21     -0.79      0.00
   -3    2   19      1.46      0.00
   -3    2   17      1.13      0.00
   -3    2   15      2.32      0.00
   -3    2   13     -0.78      0.00
   -3    2   11      3.30      0.00
   -3    2    9      1.33      0.00
   -3    2    7      1.90      0.00
   -3    2    5      1.08      0.00
   -3    2    3    -45.34      0.00
   -3    2    1    -41.78      0.00
    3    2    1    -79.09      0.00
    3    2    3    -23.16      0.00
    3    2    5      5.92      0.00
    3    2    7      6.97      0.00
    3    2    9     -1.10      0.00
    3    2   11      0.49      0.00
    3    2   13     -1.71      0.00
    3    2   15      0.08      0.00
    3    2   17      1.37      0.00
    3    2   19      0.01      0.00
    3    2   21      0.49      0.00
   -3    3   22     -1.14      0.00
   -3    3   20     -1.11      0.00
   -3    3   18     -2.96      0.00
   -3    3   16     -0.73      0.00
   -3    3   14      2.92      0.00
   -3    3   12     -2.07      0.00
   -3    3   10     -5.59      0.00
   -3    3    8      0.41      0.00
   -3    3    6     11.51      0.00
   -3    3    4    -22.49      0.00
   -3    3    2    -19.84      0.00
    3    3    0     62.33      0.00
    3    3    2     33.59      0.00
    3    3    4     29.50      0.00
    3    3    6    -13.05      0.00
    3    3    8     -0.26      0.00
    3    3   10      7.71      0.00
    3    3   12      0.08      0.00
    3    3   14     -3.28      0.00
    3    3   16     -1.41      0.00
    3    3   18      1.10      0.00
    3    3   20      0.18      0.00
    3    3   22     -0.05      0.00
   -3    4   23     -0.09      0.00
   -3    4   21      1.37      0.00
   -3    4   19      1.19      0.00
   -3    4   17     -1.91      0.00
   -3    4   15     -2.61      0.00
   -3    4   13      1.08      0.00
   -3    4   11     -0.76      0.00
   -3    4    9    -12.38      0.00
   -3    4    7     -0.66      0.00
   -3    4    5     10.03      0.00
   -3    4    3    -37.33      0.00
   -3    4    1    -52.32      0.00
    3    4    1    -44.39      0.00
    3    4    3    -28.44      0.00
    3    4    5     20.14      0.00
    3    4    7      7.34      0.00
    3    4    9     -9.15      0.00
    3    4   11      0.16      0.00
    3    4   13      3.76      0.00
    3    4   15     -0.80      0.00
    3    4   17      0.05      0.00
    3    4   19      1.28      0.00
    3    4   21      1.13      0.00
   -3    5   22     -0.52      0.00
   -3    5   20     -1.20      0.00
   -3    5   18     -0.12      0.00
   -3    5   16     -0.71      0.00
   -3    5   14     -1.02      0.00
   -3    5   12      1.58      0.00
   -3    5   10     -0.18      0.00
   -3    5    8      3.04      0.00
   -3    5    6     -0.80      0.00
   -3    5    4     -2.41      0.00
   -3    5    2     -4.66      0.00
    3    5    0    -47.20      0.00
    3    5    2     23.85      0.00
    3    5    4     22.61      0.00
    3    5    6      6.42      0.00
    3    5    8     -6.18      0.00
    3    5   10     -3.10      0.00
    3    5   12     -5.46      0.00
    3    5   14     -3.31      0.00
    3    5   16      0.22      0.00
    3    5   18     -0.81      0.00
    3    5   20      0.10      0.00
    3    5   22      0.49      0.00
   -3    6   21      0.08      0.00
   -3    6   19     -0.63      0.00
   -3    6   17     -1.69      0.00
   -3    6   15     -1.64      0.00
   -3    6   13      1.01      0.00
   -3    6   11     -1.91      0.00
   -3    6    9    -12.08      0.00
   -3    6    7    -13.48      0.00
   -3    6    5     -3.75      0.00
   -3    6    3      0.12      0.00
   -3    6    1     -9.03      0.00
    3    6    1      4.69      0.00
    3    6    3      1.10      0.00
    3    6    5      4.41      0.00
    3    6    7     -7.78      0.00
    3    6    9     -4.30      0.00
    3    6   11      3.75      0.00
    3    6   13      3.93      0.00
    3    6   15     -1.65      0.00
    3    6   17     -0.46      0.00
    3    6   19     -0.25      0.00
    3    6   21     -1.10      0.00
   -3    7   20      1.21      0.00
   -3    7   18      1.65      0.00
   -3    7   16      1.05      0.00
   -3    7   14     -1.53      0.00
   -3    7   12     -0.84      0.00
   -3    7   10      3.76      0.00
   -3    7    8     -6.23      0.00
   -3    7    6    -13.26      0.00
   -3    7    4     -4.01      0.00
   -3    7    2     15.82      0.00
    3    7    0      4.41      0.00
    3    7    2    -18.54      0.00
    3    7    4      8.48      0.00
    3    7    6     11.24      0.00
    3    7    8     -0.52      0.00
    3    7   10     -7.52      0.00
    3    7   12      0.55      0.00
    3    7   14      4.46      0.00
    3    7   16      0.56      0.00
    3    7   18     -0.05      0.00
    3    7   20      0.08      0.00
   -3    8   21     -1.07      0.00
   -3    8   19     -0.97      0.00
   -3    8   17     -0.86      0.00
   -3    8   15     -1.88      0.00
   -3    8   13     -2.19      0.00
   -3    8   11     -0.86      0.00
   -3    8    9      0.67      0.00
   -3    8    7     -5.52      0.00
   -3    8    5     -7.15      0.00
   -3    8    3     -2.55      0.00
   -3    8    1      6.84      0.00
    3    8    1      5.97      0.00
    3    8    3      7.24      0.00
    3    8    5     -3.75      0.00
    3    8    7     -3.76      0.00
    3    8    9      1.23      0.00
    3    8   11      0.19      0.00
    3    8   13     -0.27      0.00
    3    8   15     -2.15      0.00
    3    8   17     -2.22      0.00
    3    8   19     -1.89      0.00
   -3    9   20     -2.83      0.00
   -3    9   18     -0.87      0.00
   -3    9   16     -0.82      0.00
   -3    9   14     -0.30      0.00
   -3    9   12     -2.83      0.00
   -3    9   10     -3.13      0.00
   -3    9    8      1.74      0.00
   -3    9    6     -4.54      0.00
   -3    9    4     -5.47      0.00
   -3    9    2     -3.44      0.00
    3    9    0     -1.13      0.00
    3    9    2      0.82      0.00
    3    9    4     -1.16      0.00
    3    9    6      3.12      0.00
    3    9    8      0.56      0.00
    3    9   10      4.05      0.00
    3    9   12      5.11      0.00
    3    9   14      2.00      0.00
    3    9   16      0.35      0.00
    3    9   18      1.16      0.00
   -3   10   19      0.98      0.00
   -3   10   17     -1.15      0.00
   -3   10   15      0.30      0.00
   -3   10   13      0.12      0.00
   -3   10   11      0.38      0.00
   -3   10    9      0.40      0.00
   -3   10    7     -0.81      0.00
   -3   10    5     -3.09      0.00
   -3   10    3     -3.05      0.00
   -3   10    1      0.26      0.00
    3   10    1     -1.09      0.00
    3   10    3     -4.71      0.00
    3   10    5     -1.82      0.00
    3   10    7      3.31      0.00
    3   10    9      3.04      0.00
    3   10   11     -1.54      0.00
    3   10   13      0.05      0.00
    3   10   15      0.12      0.00
    3   10   17     -0.48      0.00
    3   10   19     -1.18      0.00
   -3   11   18     -3.32      0.00
   -3   11   16     -1.03      0.00
   -3   11   14     -0.33      0.00
   -3   11   12     -0.41      0.00
   -3   11   10     -1.66      0.00
   -3   11    8     -4.36      0.00
   -3   11    6      5.10      0.00
   -3   11    4      2.78      0.00
   -3   11    2     -0.82      0.00
    3   11    0      8.19      0.00
    3   11    2      1.51      0.00
    3   11    4     -5.87      0.00
    3   11    6     -3.17      0.00
    3   11    8      7.68      0.00
    3   11   10      4.55      0.00
    3   11   12      1.43      0.00
    3   11   14      0.53      0.00
    3   11   16      1.42      0.00
    3   11   18      3.44      0.00
   -3   12   17     -2.16      0.00
   -3   12   15      2.40      0.00
   -3   12   13     -0.36      0.00
   -3   12   11      0.37      0.00
   -3   12    9      2.88      0.00
   -3   12    7      1.64      0.00
   -3   12    5     -2.47      0.00
   -3   12    3      0.73      0.00
   -3   12    1      1.79      0.00
    3   12    1      4.12      0.00
    3   12    3      3.48      0.00
    3   12    5     -1.75      0.00
    3   12    7      0.71      0.00
    3   12    9      3.36      0.00
    3   12   11      0.05      0.00
    3   12   13     -0.53      0.00
    3   12   15      2.24      0.00
    3   12   17      2.56      0.00
   -3   13   16     -0.29      0.00
   -3   13   14     -0.26      0.00
   -3   13   12      0.07      0.00
   -3   13   10      0.38      0.00
   -3   13    8      0.29      0.00
   -3   13    6      0.45      0.00
   -3   13    4      4.45      0.00
   -3   13    2     -0.41      0.00
    3   13    0      2.96      0.00
    3   13    2     -0.07      0.00
    3   13    4     -1.85      0.00
    3   13    6      2.30      0.00
    3   13    8      2.94      0.00
    3   13   10      0.61      0.00
    3   13   12      0.44      0.00
    3   13   14      1.24      0.00
   -3   14   13     -1.00      0.00
   -3   14   11      1.30      0.00
   -3   14    9      0.80      0.00
   -3   14    7      0.28      0.00
   -3   14    5     -1.41      0.00
   -3   14    3     -0.18      0.00
   -3   14    1      2.20      0.00
    3   14    1      1.67      0.00
    3   14    3      3.16      0.00
    3   14    5     -1.98      0.00
    3   14    7     -1.35      0.00
    3   14    9      0.88      0.00
    3   14   11     -1.21      0.00
    3   14   13      1.32      0.00
   -3   15   12     -0.83      0.00
   -3   15   10     -0.32      0.00
   -3   15    8      1.62      0.00
   -3   15    6      1.28      0.00
   -3   15    4     -2.78      0.00
   -3   15    2     -0.02      0.00
    3   15    0     -1.64      0.00
    3   15    2     -1.23      0.00
    3   15    4      4.02      0.00
    3   15    6      0.18      0.00
    3   15    8     -0.87      0.00
    3   15   10     -0.51      0.00
    3   15   12      2.75      0.00
   -3   16    9     -0.07      0.00
   -3   16    7     -1.51      0.00
   -3   16    5     -1.15      0.00
   -3   16    3     -0.81      0.00
   -3   16    1      0.54      0.00
    3   16    1      1.44      0.00
    3   16    3      0.44      0.00
    3   16    5      2.21      0.00
    3   16    7      0.89      0.00
    3   16    9     -0.82      0.00
   -3   17    6      3.76      0.00
   -3   17    4     -0.12      0.00
   -3   17    2      0.00      0.00
    3   17    0     -2.12      0.00
    3   17    2      0.54      0.00
    3   17    4      1.32      0.00
    3   17    6     -0.22      0.00
   -4    0   22      2.87      0.00
   -4    0   20      0.57      0.00
   -4    0   18     -0.36      0.00
   -4    0   16      2.67      0.00
   -4    0   14      1.89      0.00
   -4    0   12     -4.88      0.00
   -4    0   10     -8.25      0.00
   -4    0    8      2.09      0.00
   -4    0    6      5.08      0.00
   -4    0    4     45.58      0.00
   -4    0    2     -9.73      0.00
    4    0    0   -104.11      0.00
    4    0    2    -25.69      0.00
    4    0    4     19.38      0.00
    4    0    6      1.09      0.00
    4    0    8     -2.80      0.00
    4    0   10     -8.77      0.00
    4    0   12     -3.77      0.00
    4    0   14     -0.10      0.00
    4    0   16      1.83      0.00
    4    0   18     -0.92      0.00
    4    0   20     -0.79      0.00
    4    0   22     -0.47      0.00
   -4    1   23     -0.51      0.00
   -4    1   21     -0.63      0.00
   -4    1   19      1.93      0.00
   -4    1   17     -1.43      0.00
   -4    1   15     -0.05      0.00
   -4    1   13     -0.98      0.00
   -4    1   11      0.64      0.00
   -4    1    9    -10.64      0.00
   -4    1    7     -6.97      0.00
   -4    1    5      0.13      0.00
   -4    1    3    -16.29      0.00
   -4    1    1     -8.53      0.00
    4    1    1      9.96      0.00
    4    1    3    -23.41      0.00
    4    1    5    -30.59      0.00
    4    1    7    -12.16      0.00
    4    1    9      4.28      0.00
    4    1   11     -5.28      0.00
    4    1   13     -3.13      0.00
    4    1   15     -0.38      0.00
    4    1   17     -1.76      0.00
    4    1   19     -3.12      0.00
    4    1   21     -1.43      0.00
   -4    2   22      1.85      0.00
   -4    2   20      1.67      0.00
   -4    2   18      2.20      0.00
   -4    2   16      1.17      0.00
   -4    2   14     -0.60      0.00
   -4    2   12     -3.32      0.00
   -4    2   10     -4.75      0.00
   -4    2    8    -15.48      0.00
   -4    2    6    -16.15      0.00
   -4    2    4    -36.20      0.00
   -4    2    2    -39.76      0.00
    4    2    0    -60.89      0.00
    4    2    2    -25.30      0.00
    4    2    4    -27.96      0.00
    4    2    6     -8.28      0.00
    4    2    8    -13.26      0.00
    4    2   10     -7.19      0.00
    4    2   12     -6.23      0.00
    4    2   14     -5.62      0.00
    4    2   16     -4.00      0.00
    4    2   18     -2.68      0.00
    4    2   20     -1.92      0.00
    4    2   22     -0.11      0.00
   -4    3   23     -0.15      0.00
   -4    3   21     -1.13      0.00
   -4    3   19     -0.27      0.00
   -4    3   17      0.07      0.00
   -4    3   15     -2.20      0.00
   -4    3   13      0.60      0.00
   -4    3   11     -0.40      0.00
   -4    3    9     -6.45      0.00
   -4    3    7      0.56      0.00
   -4    3    5     10.10      0.00
   -4    3    3    -27.65      0.00
   -4    3    1    -46.48      0.00
    4    3    1     51.00      0.00
    4    3    3     38.74      0.00
    4    3    5    -18.28      0.00
    4    3    7     -2.27      0.00
    4    3    9      8.78      0.00
    4    3   11      2.04      0.00
    4    3   13     -3.73      0.00
    4    3   15      1.86      0.00
    4    3   17      0.27      0.00
    4    3   19     -1.08      0.00
    4    3   21     -1.06      0.00
   -4    4   22      2.20      0.00
   -4    4   20      1.23      0.00
   -4    4   18      1.71      0.00
   -4    4   16     -1.33      0.00
   -4    4   14     -4.77      0.00
   -4    4   12     -2.81      0.00
   -4    4   10     -5.82      0.00
   -4    4    8    -15.88      0.00
   -4    4    6    -36.85      0.00
   -4    4    4    -28.93      0.00
   -4    4    2    -19.19      0.00
    4    4    0     19.97      0.00
    4    4    2    -36.68      0.00
    4    4    4    -33.49      0.00
    4    4    6    -41.49      0.00
    4    4    8    -13.47      0.00
    4    4   10     -4.68      0.00
    4    4   12     -8.27      0.00
    4    4   14     -9.78      0.00
    4    4   16     -5.88      0.00
    4    4   18     -1.56      0.00
    4    4   20     -2.59      0.00
    4    4   22     -1.44      0.00
   -4    5   21     -0.40      0.00
   -4    5   19     -0.47      0.00
   -4    5   17      2.10      0.00
   -4    5   15      2.25      0.00
   -4    5   13     -1.49      0.00
   -4    5   11     -2.25      0.00
   -4    5    9      2.12      0.00
   -4    5    7     -7.33      0.00
   -4    5    5    -25.91      0.00
   -4    5    3      1.94      0.00
   -4    5    1     20.75      0.00
    4    5    1    -23.57      0.00
    4    5    3     -0.20      0.00
    4    5    5     22.54      0.00
    4    5    7      3.74      0.00
    4    5    9     -5.49      0.00
    4    5   11      3.09      0.00
    4    5   13      0.50      0.00
    4    5   15     -3.79      0.00
    4    5   17     -1.73      0.00
    4    5   19      0.32      0.00
    4    5   21      0.01      0.00
   -4    6   22      2.60      0.00
   -4    6   20     -0.27      0.00
   -4    6   18      0.66      0.00
   -4    6   16      1.29      0.00
   -4    6   14      1.77      0.00
   -4    6   12     -1.93      0.00
   -4    6   10     -1.73      0.00
   -4    6    8     -6.01      0.00
   -4    6    6    -11.01      0.00
   -4    6    4    -24.11      0.00
   -4    6    2     -8.42      0.00
    4    6    0     -7.60      0.00
    4    6    2      6.65      0.00
    4    6    4    -19.56      0.00
    4    6    6     -8.24      0.00
    4    6    8     -1.81      0.00
    4    6   10     -0.17      0.00
    4    6   12     -5.81      0.00
    4    6   14     -3.89      0.00
    4    6   16     -0.46      0.00
    4    6   18     -0.64      0.00
    4    6   20     -0.55      0.00
   -4    7   21     -0.93      0.00
   -4    7   19      0.17      0.00
   -4    7   17      1.15      0.00
   -4    7   15     -0.49      0.00
   -4    7   13     -1.73      0.00
   -4    7   11     -2.82      0.00
   -4    7    9      1.23      0.00
   -4    7    7     -1.44      0.00
   -4    7    5    -10.03      0.00
   -4    7    3     -3.96      0.00
   -4    7    1     10.93      0.00
    4    7    1    -19.39      0.00
    4    7    3     -6.80      0.00
    4    7    5      9.53      0.00
    4    7    7      1.74      0.00
    4    7    9      0.25      0.00
    4    7   11      2.15      0.00
    4    7   13     -1.67      0.00
    4    7   15     -2.24      0.00
    4    7   17      1.21      0.00
    4    7   19      0.87      0.00
   -4    8   20     -1.60      0.00
   -4    8   18      0.08      0.00
   -4    8   16     -0.77      0.00
   -4    8   14     -0.17      0.00
   -4    8   12     -1.85      0.00
   -4    8   10     -4.78      0.00
   -4    8    8     -0.19      0.00
   -4    8    6      3.18      0.00
   -4    8    4      1.94      0.00
   -4    8    2    -10.46      0.00
    4    8    0     -8.03      0.00
    4    8    2     -7.18      0.00
    4    8    4     13.26      0.00
    4    8    6      7.73      0.00
    4    8    8     -4.23      0.00
    4    8   10     -5.75      0.00
    4    8   12     -0.76      0.00
    4    8   14      3.15      0.00
    4    8   16     -0.77      0.00
    4    8   18      0.80      0.00
    4    8   20      2.96      0.00
   -4    9   19      0.71      0.00
   -4    9   17      0.73      0.00
   -4    9   15      1.35      0.00
   -4    9   13      0.17      0.00
   -4    9   11      1.69      0.00
   -4    9    9      0.18      0.00
   -4    9    7     -0.63      0.00
   -4    9    5     -0.72      0.00
   -4    9    3      4.12      0.00
   -4    9    1      1.28      0.00
    4    9    1     -2.48      0.00
    4    9    3     -8.02      0.00
    4    9    5      1.75      0.00
    4    9    7      5.02      0.00
    4    9    9     -2.34      0.00
    4    9   11     -1.33      0.00
    4    9   13     -1.45      0.00
    4    9   15     -1.26      0.00
    4    9   17     -1.25      0.00
    4    9   19     -1.95      0.00
   -4   10   18     -1.67      0.00
   -4   10   16     -1.21      0.00
   -4   10   14     -0.09      0.00
   -4   10   12     -0.32      0.00
   -4   10   10     -2.07      0.00
   -4   10    8     -2.70      0.00
   -4   10    6      4.80      0.00
   -4   10    4      2.09      0.00
   -4   10    2      0.16      0.00
    4   10    0     -6.24      0.00
    4   10    2     -1.88      0.00
    4   10    4      2.97      0.00
    4   10    6      4.25      0.00
    4   10    8     -4.11      0.00
    4   10   10     -1.05      0.00
    4   10   12      1.06      0.00
    4   10   14      2.30      0.00
    4   10   16      0.51      0.00
    4   10   18     -1.04      0.00
   -4   11   17     -0.16      0.00
   -4   11   15      1.97      0.00
   -4   11   13     -0.70      0.00
   -4   11   11      0.40      0.00
   -4   11    9      2.21      0.00
   -4   11    7      1.81      0.00
   -4   11    5     -1.06      0.00
   -4   11    3      5.85      0.00
   -4   11    1      5.51      0.00
    4   11    1     -5.16      0.00
    4   11    3     -7.82      0.00
    4   11    5      0.49      0.00
    4   11    7     -0.48      0.00
    4   11    9     -1.22      0.00
    4   11   11      0.04      0.00
    4   11   13      0.76      0.00
    4   11   15     -0.21      0.00
    4   11   17     -2.83      0.00
   -4   12   16     -1.16      0.00
   -4   12   14     -0.13      0.00
   -4   12   12      0.36      0.00
   -4   12   10     -0.49      0.00
   -4   12    8      0.09      0.00
   -4   12    6     -2.67      0.00
   -4   12    4     -2.67      0.00
   -4   12    2     -2.58      0.00
    4   12    0      4.30      0.00
    4   12    2     -2.61      0.00
    4   12    4     -6.75      0.00
    4   12    6     -3.37      0.00
    4   12    8      0.84      0.00
    4   12   10      1.80      0.00
    4   12   12      0.34      0.00
    4   12   14     -0.95      0.00
    4   12   16     -1.65      0.00
   -4   13   15     -1.12      0.00
   -4   13   13     -2.28      0.00
   -4   13   11      0.22      0.00
   -4   13    9     -1.19      0.00
   -4   13    7      2.05      0.00
   -4   13    5      3.23      0.00
   -4   13    3     -1.06      0.00
   -4   13    1     -1.60      0.00
    4   13    1      4.89      0.00
    4   13    3      5.61      0.00
    4   13    5     -1.43      0.00
    4   13    7     -1.16      0.00
    4   13    9      2.75      0.00
    4   13   11      3.26      0.00
    4   13   13      0.56      0.00
    4   13   15      0.40      0.00
   -4   14   14     -2.08      0.00
   -4   14   12      0.92      0.00
   -4   14   10      2.28      0.00
   -4   14    8      0.94      0.00
   -4   14    6     -2.08      0.00
   -4   14    4     -3.45      0.00
   -4   14    2     -0.46      0.00
    4   14    0      0.37      0.00
    4   14    2      0.37      0.00
    4   14    4     -2.13      0.00
    4   14    6     -0.86      0.00
    4   14    8      0.90      0.00
    4   14   10      1.88      0.00
    4   14   12      2.28      0.00
   -4   15   11     -0.61      0.00
   -4   15    9     -1.36      0.00
   -4   15    7     -0.39      0.00
   -4   15    5      2.06      0.00
   -4   15    3     -0.39      0.00
   -4   15    1     -1.47      0.00
    4   15    1      2.83      0.00
    4   15    3      1.44      0.00
    4   15    5     -3.31      0.00
    4   15    7     -0.88      0.00
    4   15    9      3.52      0.00
    4   15   11      0.19      0.00
   -4   16   10     -0.13      0.00
   -4   16    8      2.01      0.00
   -4   16    6      0.67      0.00
   -4   16    4     -1.06      0.00
   -4   16    2     -0.78      0.00
    4   16    0     -0.12      0.00
    4   16    2     -1.32      0.00
    4   16    4      1.23      0.00
    4   16    6     -0.56      0.00
    4   16    8      0.17      0.00
   -4   17    7      1.13      0.00
   -4   17    5      0.68      0.00
   -4   17    3      1.39      0.00
   -4   17    1      0.52      0.00
    4   17    1      2.38      0.00
    4   17    3     -0.25      0.00
    4   17    5     -0.24      0.00
   -5    1   22     -0.42      0.00
   -5    1   20     -0.93      0.00
   -5    1   18     -1.74      0.00
   -5    1   16     -1.35      0.00
   -5    1   14     -2.26      0.00
   -5    1   12      3.02      0.00
   -5    1   10      6.14      0.00
   -5    1    8     -0.66      0.00
   -5    1    6      2.27      0.00
   -5    1    4    -10.09      0.00
   -5    1    2     -3.31      0.00
    5    1    0     30.76      0.00
    5    1    2      8.53      0.00
    5    1    4      1.80      0.00
    5    1    6      8.04      0.00
    5    1    8      8.32      0.00
    5    1   10     -3.38      0.00
    5    1   12     -1.24      0.00
    5    1   14      1.27      0.00
    5    1   16      1.19      0.00
    5    1   18     -0.43      0.00
    5    1   20     -0.70      0.00
    5    1   22      1.07      0.00
   -5    2   23     -0.25      0.00
   -5    2   21     -0.63      0.00
   -5    2   19     -0.58      0.00
   -5    2   17      3.41      0.00
   -5    2   15     -0.13      0.00
   -5    2   13     -2.90      0.00
   -5    2   11     -2.24      0.00
   -5    2    9     10.30      0.00
   -5    2    7      8.58      0.00
   -5    2    5     -3.86      0.00
   -5    2    3    -20.80      0.00
   -5    2    1    -17.13      0.00
    5    2    1    -24.49      0.00
    5    2    3    -29.52      0.00
    5    2    5    -14.04      0.00
    5    2    7      6.42      0.00
    5    2    9     10.03      0.00
    5    2   11     -4.23      0.00
    5    2   13      1.27      0.00
    5    2   15      2.66      0.00
    5    2   17      2.14      0.00
    5    2   19     -0.04      0.00
    5    2   21      0.90      0.00
   -5    3   22     -1.49      0.00
   -5    3   20     -1.28      0.00
   -5    3   18     -2.10      0.00
   -5    3   16     -2.38      0.00
   -5    3   14      1.03      0.00
   -5    3   12      3.12      0.00
   -5    3   10     -1.01      0.00
   -5    3    8      5.26      0.00
   -5    3    6     -3.82      0.00
   -5    3    4    -15.67      0.00
   -5    3    2     -1.27      0.00
    5    3    0    -53.26      0.00
    5    3    2     10.82      0.00
    5    3    4     10.95      0.00
    5    3    6      3.49      0.00
    5    3    8     -8.87      0.00
    5    3   10     -0.03      0.00
    5    3   12     -3.43      0.00
    5    3   14     -3.21      0.00
    5    3   16      0.04      0.00
    5    3   18     -0.82      0.00
    5    3   20     -1.09      0.00
   -5    4   21      0.28      0.00
   -5    4   19     -0.22      0.00
   -5    4   17      1.18      0.00
   -5    4   15      1.04      0.00
   -5    4   13     -0.18      0.00
   -5    4   11     -0.98      0.00
   -5    4    9      3.97      0.00
   -5    4    7     -4.34      0.00
   -5    4    5    -20.60      0.00
   -5    4    3      0.87      0.00
   -5    4    1     18.06      0.00
    5    4    1     27.28      0.00
    5    4    3     -0.33      0.00
    5    4    5    -24.11      0.00
    5    4    7     -3.61      0.00
    5    4    9      5.71      0.00
    5    4   11     -3.13      0.00
    5    4   13     -2.32      0.00
    5    4   15      4.94      0.00
    5    4   17      1.25      0.00
    5    4   19     -0.24      0.00
    5    4   21      0.80      0.00
   -5    5   22     -0.68      0.00
   -5    5   20     -1.58      0.00
   -5    5   18     -1.39      0.00
   -5    5   16      0.33      0.00
   -5    5   14      3.51      0.00
   -5    5   12      2.43      0.00
   -5    5   10      0.78      0.00
   -5    5    8      7.77      0.00
   -5    5    6     18.51      0.00
   -5    5    4     -3.67      0.00
   -5    5    2      5.34      0.00
    5    5    0    -22.74      0.00
    5    5    2     -9.08      0.00
    5    5    4      9.87      0.00
    5    5    6    -18.40      0.00
    5    5    8     -8.98      0.00
    5    5   10     -4.16      0.00
    5    5   12     -5.46      0.00
    5    5   14     -8.53      0.00
    5    5   16     -2.19      0.00
    5    5   18     -0.83      0.00
    5    5   20      0.35      0.00
   -5    6   21      0.51      0.00
   -5    6   19      0.19      0.00
   -5    6   17     -0.53      0.00
   -5    6   15     -1.18      0.00
   -5    6   13     -0.56      0.00
   -5    6   11     -1.81      0.00
   -5    6    9     -3.86      0.00
   -5    6    7     -6.68      0.00
   -5    6    5      2.36      0.00
   -5    6    3     12.09      0.00
   -5    6    1      8.57      0.00
    5    6    1     19.20      0.00
    5    6    3     20.24      0.00
    5    6    5     -1.74      0.00
    5    6    7    -12.40      0.00
    5    6    9     -3.40      0.00
    5    6   11      3.25      0.00
    5    6   13      2.76      0.00
    5    6   15     -1.06      0.00
    5    6   17     -2.25      0.00
    5    6   19     -1.20      0.00
   -5    7   20      0.91      0.00
   -5    7   18      1.22      0.00
   -5    7   16      1.14      0.00
   -5    7   14      0.26      0.00
   -5    7   12      0.98      0.00
   -5    7   10     -1.99      0.00
   -5    7    8     -2.50      0.00
   -5    7    6      1.03      0.00
   -5    7    4     12.02      0.00
   -5    7    2      4.86      0.00
    5    7    0      2.13      0.00
    5    7    2     -6.99      0.00
    5    7    4    -18.90      0.00
    5    7    6     -5.64      0.00
    5    7    8     -0.54      0.00
    5    7   10     -1.03      0.00
    5    7   12     -3.37      0.00
    5    7   14     -2.89      0.00
    5    7   16      0.06      0.00
    5    7   18     -0.23      0.00
    5    7   20     -0.07      0.00
   -5    8   19      0.93      0.00
   -5    8   17     -0.77      0.00
   -5    8   15     -0.74      0.00
   -5    8   13     -2.13      0.00
   -5    8   11      0.27      0.00
   -5    8    9     -1.50      0.00
   -5    8    7     -1.35      0.00
   -5    8    5      1.86      0.00
   -5    8    3      9.81      0.00
   -5    8    1      3.09      0.00
    5    8    1     -1.20      0.00
    5    8    3     10.27      0.00
    5    8    5      2.38      0.00
    5    8    7     -3.84      0.00
    5    8    9      3.67      0.00
    5    8   11      3.44      0.00
    5    8   13     -0.64      0.00
    5    8   15     -2.27      0.00
    5    8   17     -0.14      0.00
    5    8   19      0.73      0.00
   -5    9   20      1.74      0.00
   -5    9   18      0.60      0.00
   -5    9   16      0.41      0.00
   -5    9   14      1.67      0.00
   -5    9   12     -0.27      0.00
   -5    9   10     -1.62      0.00
   -5    9    8     -1.92      0.00
   -5    9    6     -0.92      0.00
   -5    9    4     -3.45      0.00
   -5    9    2      7.19      0.00
    5    9    0     -5.70      0.00
    5    9    2     -3.08      0.00
    5    9    4      4.95      0.00
    5    9    6      0.70      0.00
    5    9    8      0.86      0.00
    5    9   10     -0.33      0.00
    5    9   12      1.14      0.00
    5    9   14     -0.77      0.00
    5    9   16     -2.65      0.00
    5    9   18      0.51      0.00
   -5   10   19      0.38      0.00
   -5   10   17     -0.16      0.00
   -5   10   15      0.32      0.00
   -5   10   13      0.51      0.00
   -5   10   11      0.61      0.00
   -5   10    9      0.52      0.00
   -5   10    7      2.40      0.00
   -5   10    5      1.81      0.00
   -5   10    3     -1.83      0.00
   -5   10    1     -2.84      0.00
    5   10    1     -8.74      0.00
    5   10    3     -6.74      0.00
    5   10    5      5.79      0.00
    5   10    7      8.45      0.00
    5   10    9      0.09      0.00
    5   10   11     -0.76      0.00
    5   10   13     -0.89      0.00
    5   10   15     -0.15      0.00
    5   10   17     -0.88      0.00
   -5   11   18      1.98      0.00
   -5   11   16      0.10      0.00
   -5   11   14      0.25      0.00
   -5   11   12      1.77      0.00
   -5   11   10      1.75      0.00
   -5   11    8     -1.79      0.00
   -5   11    6     -3.71      0.00
   -5   11    4      0.87      0.00
   -5   11    2      0.72      0.00
    5   11    0     -2.47      0.00
    5   11    2      0.33      0.00
    5   11    4     -0.13      0.00
    5   11    6      2.41      0.00
    5   11    8      0.22      0.00
    5   11   10     -0.31      0.00
    5   11   12     -0.13      0.00
    5   11   14      1.06      0.00
    5   11   16     -0.44      0.00
   -5   12   17      0.26      0.00
   -5   12   15     -0.07      0.00
   -5   12   13     -1.02      0.00
   -5   12   11     -0.25      0.00
   -5   12    9     -0.27      0.00
   -5   12    7      2.04      0.00
   -5   12    5      2.10      0.00
   -5   12    3     -4.85      0.00
   -5   12    1     -8.03      0.00
    5   12    1     -5.67      0.00
    5   12    3     -8.33      0.00
    5   12    5      3.06      0.00
    5   12    7      3.32      0.00
    5   12    9     -1.87      0.00
    5   12   11     -0.13      0.00
    5   12   13     -1.67      0.00
    5   12   15      0.10      0.00
   -5   13   14      0.00      0.00
   -5   13   12      2.13      0.00
   -5   13   10      1.62      0.00
   -5   13    8     -0.60      0.00
   -5   13    6     -1.77      0.00
   -5   13    4      2.48      0.00
   -5   13    2      1.61      0.00
    5   13    0      5.24      0.00
    5   13    2     -1.93      0.00
    5   13    4     -4.50      0.00
    5   13    6      0.71      0.00
    5   13    8      1.10      0.00
    5   13   10      0.51      0.00
    5   13   12      0.38      0.00
    5   13   14     -0.08      0.00
   -5   14   13      1.96      0.00
   -5   14   11     -0.61      0.00
   -5   14    9     -0.32      0.00
   -5   14    7     -0.16      0.00
   -5   14    5      0.02      0.00
   -5   14    3     -0.49      0.00
   -5   14    1      0.12      0.00
    5   14    1      1.42      0.00
    5   14    3      3.53      0.00
    5   14    5     -0.03      0.00
    5   14    7     -0.57      0.00
    5   14    9     -1.42      0.00
    5   14   11      0.78      0.00
    5   14   13      0.88      0.00
   -5   15   12      1.44      0.00
   -5   15   10     -1.45      0.00
   -5   15    8      0.47      0.00
   -5   15    6     -0.12      0.00
   -5   15    4     -0.99      0.00
   -5   15    2     -1.36      0.00
    5   15    0      0.99      0.00
    5   15    2      0.50      0.00
    5   15    4     -0.65      0.00
    5   15    6      0.24      0.00
    5   15    8      0.49      0.00
    5   15   10      1.38      0.00
   -5   16    9      1.40      0.00
   -5   16    7      0.05      0.00
   -5   16    5     -1.95      0.00
   -5   16    3      0.41      0.00
   -5   16    1      0.26      0.00
    5   16    1      1.19      0.00
    5   16    3      2.53      0.00
    5   16    5     -1.24      0.00
    5   16    7     -1.28      0.00
   -5   17    6     -2.65      0.00
   -5   17    4      0.65      0.00
   -5   17    2      0.11      0.00
    5   17    0      2.16      0.00
    5   17    2     -0.99      0.00
    5   17    4     -2.39      0.00
   -6    0   22     -0.67      0.00
   -6    0   20     -1.31      0.00
   -6    0   18     -4.11      0.00
   -6    0   16     -1.85      0.00
   -6    0   14      1.29      0.00
   -6    0   12      2.50      0.00
   -6    0   10      0.26      0.00
   -6    0    8      7.92      0.00
   -6    0    6     24.70      0.00
   -6    0    4     14.25      0.00
   -6    0    2      8.93      0.00
    6    0    0    -12.23      0.00
    6    0    2     -1.93      0.00
    6    0    4      8.11      0.00
    6    0    6     13.49      0.00
    6    0    8      1.56      0.00
    6    0   10      1.06      0.00
    6    0   12      5.88      0.00
    6    0   14      5.94      0.00
    6    0   16      1.86      0.00
    6    0   18      0.58      0.00
    6    0   20      2.40      0.00
   -6    1   21      0.34      0.00
   -6    1   19      0.07      0.00
   -6    1   17      2.05      0.00
   -6    1   15     -0.66      0.00
   -6    1   13     -4.59      0.00
   -6    1   11     -3.24      0.00
   -6    1    9      5.45      0.00
   -6    1    7      1.53      0.00
   -6    1    5     -5.04      0.00
   -6    1    3    -13.10      0.00
   -6    1    1     -2.11      0.00
    6    1    1     -2.96      0.00
    6    1    3      2.08      0.00
    6    1    5     11.62      0.00
    6    1    7     -4.86      0.00
    6    1    9     -9.39      0.00
    6    1   11      3.98      0.00
    6    1   13      3.92      0.00
    6    1   15      0.52      0.00
    6    1   17     -1.46      0.00
    6    1   19     -1.21      0.00
    6    1   21     -0.34      0.00
   -6    2   22     -0.41      0.00
   -6    2   20     -0.55      0.00
   -6    2   18     -0.85      0.00
   -6    2   16     -1.12      0.00
   -6    2   14      1.91      0.00
   -6    2   12      2.94      0.00
   -6    2   10     -3.69      0.00
   -6    2    8      3.83      0.00
   -6    2    6     -3.33      0.00
   -6    2    4    -20.37      0.00
   -6    2    2    -19.10      0.00
    6    2    0     30.52      0.00
    6    2    2    -21.98      0.00
    6    2    4    -18.80      0.00
    6    2    6      3.70      0.00
    6    2    8      9.99      0.00
    6    2   10     -5.46      0.00
    6    2   12      1.98      0.00
    6    2   14      4.33      0.00
    6    2   16     -2.38      0.00
    6    2   18     -2.38      0.00
    6    2   20      0.09      0.00
   -6    3   21      0.51      0.00
   -6    3   19     -0.13      0.00
   -6    3   17     -1.11      0.00
   -6    3   15     -0.55      0.00
   -6    3   13      2.38      0.00
   -6    3   11      1.43      0.00
   -6    3    9     -5.25      0.00
   -6    3    7     -4.99      0.00
   -6    3    5      2.23      0.00
   -6    3    3      5.02      0.00
   -6    3    1     -2.72      0.00
    6    3    1      2.59      0.00
    6    3    3      5.12      0.00
    6    3    5      0.80      0.00
    6    3    7     13.82      0.00
    6    3    9      9.91      0.00
    6    3   11      0.88      0.00
    6    3   13      4.73      0.00
    6    3   15      3.04      0.00
    6    3   17      2.66      0.00
    6    3   19      0.95      0.00
    6    3   21     -0.60      0.00
   -6    4   22      0.01      0.00
   -6    4   20      0.16      0.00
   -6    4   18      0.41      0.00
   -6    4   16     -0.66      0.00
   -6    4   14     -0.95      0.00
   -6    4   12      0.14      0.00
   -6    4   10      1.16      0.00
   -6    4    8     -3.06      0.00
   -6    4    6     -3.69      0.00
   -6    4    4     -5.96      0.00
   -6    4    2      5.06      0.00
    6    4    0     -2.46      0.00
    6    4    2     -5.04      0.00
    6    4    4    -24.86      0.00
    6    4    6    -11.19      0.00
    6    4    8     -5.46      0.00
    6    4   10     -0.25      0.00
    6    4   12     -3.74      0.00
    6    4   14     -1.08      0.00
    6    4   16     -2.39      0.00
    6    4   18     -0.77      0.00
    6    4   20     -1.57      0.00
   -6    5   21      2.07      0.00
   -6    5   19      2.07      0.00
   -6    5   17     -0.16      0.00
   -6    5   15      1.23      0.00
   -6    5   13     -0.29      0.00
   -6    5   11     -1.05      0.00
   -6    5    9     -4.85      0.00
   -6    5    7     -9.20      0.00
   -6    5    5      0.26      0.00
   -6    5    3     13.57      0.00
   -6    5    1      7.87      0.00
    6    5    1    -14.58      0.00
    6    5    3    -18.46      0.00
    6    5    5      1.37      0.00
    6    5    7     11.93      0.00
    6    5    9      3.28      0.00
    6    5   11     -2.46      0.00
    6    5   13     -1.70      0.00
    6    5   15      1.72      0.00
    6    5   17      1.28      0.00
    6    5   19      1.08      0.00
   -6    6   20      0.09      0.00
   -6    6   18      1.90      0.00
   -6    6   16      1.35      0.00
   -6    6   14     -0.35      0.00
   -6    6   12      0.27      0.00
   -6    6   10      0.73      0.00
   -6    6    8     -5.82      0.00
   -6    6    6    -10.90      0.00
   -6    6    4      3.94      0.00
   -6    6    2      5.30      0.00
    6    6    0     -9.22      0.00
    6    6    2      7.87      0.00
    6    6    4      6.80      0.00
    6    6    6    -10.71      0.00
    6    6    8     -2.61      0.00
    6    6   10      0.22      0.00
    6    6   12     -1.99      0.00
    6    6   14     -3.78      0.00
    6    6   16      2.23      0.00
    6    6   18      0.19      0.00
    6    6   20      1.12      0.00
   -6    7   21     -2.39      0.00
   -6    7   19     -0.09      0.00
   -6    7   17     -0.35      0.00
   -6    7   15     -0.89      0.00
   -6    7   13     -0.66      0.00
   -6    7   11     -1.67      0.00
   -6    7    9     -2.14      0.00
   -6    7    7      1.13      0.00
   -6    7    5     -4.37      0.00
   -6    7    3     -9.19      0.00
   -6    7    1     -7.75      0.00
    6    7    1      7.71      0.00
    6    7    3      6.71      0.00
    6    7    5     -3.02      0.00
    6    7    7     -5.10      0.00
    6    7    9     -0.80      0.00
    6    7   11      0.07      0.00
    6    7   13      1.18      0.00
    6    7   15      0.77      0.00
    6    7   17     -0.08      0.00
    6    7   19     -1.69      0.00
   -6    8   20     -0.89      0.00
   -6    8   18      0.42      0.00
   -6    8   16     -0.57      0.00
   -6    8   14     -0.25      0.00
   -6    8   12     -1.52      0.00
   -6    8   10      0.82      0.00
   -6    8    8     -0.01      0.00
   -6    8    6      0.79      0.00
   -6    8    4      2.23      0.00
   -6    8    2      4.54      0.00
    6    8    0     -7.28      0.00
    6    8    2     -1.48      0.00
    6    8    4      5.28      0.00
    6    8    6      2.37      0.00
    6    8    8     -4.50      0.00
    6    8   10     -1.50      0.00
    6    8   12     -1.56      0.00
    6    8   14      0.90      0.00
    6    8   16      2.59      0.00
    6    8   18      0.99      0.00
   -6    9   19     -0.05      0.00
   -6    9   17     -0.31      0.00
   -6    9   15     -0.02      0.00
   -6    9   13      0.97      0.00
   -6    9   11      0.01      0.00
   -6    9    9      0.83      0.00
   -6    9    7      1.53      0.00
   -6    9    5      0.92      0.00
   -6    9    3    -10.23      0.00
   -6    9    1    -12.22      0.00
    6    9    1     10.72      0.00
    6    9    3      9.50      0.00
    6    9    5     -6.17      0.00
    6    9    7     -6.92      0.00
    6    9    9      2.88      0.00
    6    9   11      1.27      0.00
    6    9   13      0.97      0.00
    6    9   15     -0.80      0.00
    6    9   17      2.10      0.00
   -6   10   18     -0.75      0.00
   -6   10   16     -1.51      0.00
   -6   10   14     -1.95      0.00
   -6   10   12      1.71      0.00
   -6   10   10      2.92      0.00
   -6   10    8      0.49      0.00
   -6   10    6      1.00      0.00
   -6   10    4      8.71      0.00
   -6   10    2     -0.54      0.00
    6   10    0     -9.72      0.00
    6   10    2     -0.86      0.00
    6   10    4      9.18      0.00
    6   10    6      0.35      0.00
    6   10    8     -0.11      0.00
    6   10   10      0.49      0.00
    6   10   12      1.04      0.00
    6   10   14     -0.60      0.00
    6   10   16     -0.09      0.00
   -6   11   17     -1.92      0.00
   -6   11   15     -1.00      0.00
   -6   11   13     -2.75      0.00
   -6   11   11     -1.98      0.00
   -6   11    9     -0.64      0.00
   -6   11    7     -1.20      0.00
   -6   11    5     -2.14      0.00
   -6   11    3      0.60      0.00
   -6   11    1     -1.46      0.00
    6   11    1     -6.54      0.00
    6   11    3     -3.25      0.00
    6   11    5      1.37      0.00
    6   11    7      0.97      0.00
    6   11    9      1.88      0.00
    6   11   11      0.87      0.00
    6   11   13      3.02      0.00
    6   11   15      0.90      0.00
   -6   12   16      1.78      0.00
   -6   12   14     -0.23      0.00
   -6   12   12      1.05      0.00
   -6   12   10     -0.79      0.00
   -6   12    8      1.39      0.00
   -6   12    6      0.50      0.00
   -6   12    4      1.00      0.00
   -6   12    2     -1.22      0.00
    6   12    0     -0.93      0.00
    6   12    2     -0.57      0.00
    6   12    4     -2.88      0.00
    6   12    6     -1.05      0.00
    6   12    8      0.11      0.00
    6   12   10      0.09      0.00
    6   12   12     -1.51      0.00
    6   12   14     -1.75      0.00
   -6   13   15     -0.08      0.00
   -6   13   13     -0.51      0.00
   -6   13   11     -1.78      0.00
   -6   13    9     -2.00      0.00
   -6   13    7     -1.73      0.00
   -6   13    5     -0.31      0.00
   -6   13    3      1.31      0.00
   -6   13    1      2.31      0.00
    6   13    1     -4.26      0.00
    6   13    3     -4.79      0.00
    6   13    5      2.48      0.00
    6   13    7      3.31      0.00
    6   13    9      0.64      0.00
    6   13   11      2.07      0.00
    6   13   13     -0.54      0.00
   -6   14   12     -1.66      0.00
   -6   14   10      0.15      0.00
   -6   14    8      1.86      0.00
   -6   14    6      0.35      0.00
   -6   14    4     -2.54      0.00
   -6   14    2     -0.94      0.00
    6   14    0      2.98      0.00
    6   14    2     -0.70      0.00
    6   14    4     -3.48      0.00
    6   14    6     -1.01      0.00
    6   14    8      0.64      0.00
    6   14   10      0.36      0.00
    6   14   12     -2.07      0.00
   -6   15   11      0.54      0.00
   -6   15    9     -0.62      0.00
   -6   15    7     -2.24      0.00
   -6   15    5     -1.39      0.00
   -6   15    3      0.46      0.00
   -6   15    1      0.44      0.00
    6   15    1     -1.04      0.00
    6   15    3     -2.59      0.00
    6   15    5     -0.88      0.00
    6   15    7      1.51      0.00
    6   15    9     -1.29      0.00
   -6   16    8     -2.22      0.00
   -6   16    6      1.80      0.00
   -6   16    4      0.64      0.00
   -6   16    2      0.91      0.00
    6   16    0      1.00      0.00
    6   16    2     -0.17      0.00
    6   16    4      0.41      0.00
    6   16    6      1.98      0.00
   -6   17    3     -0.25      0.00
   -6   17    1     -0.45      0.00
    6   17    1     -0.56      0.00
    6   17    3     -0.05      0.00
   -7    1   22     -0.68      0.00
   -7    1   20     -1.28      0.00
   -7    1   18      0.49      0.00
   -7    1   16     -0.27      0.00
   -7    1   14     -2.87      0.00
   -7    1   12      3.24      0.00
   -7    1   10      6.19      0.00
   -7    1    8      0.30      0.00
   -7    1    6    -10.99      0.00
   -7    1    4     -6.94      0.00
   -7    1    2     -4.34      0.00
    7    1    0      5.32      0.00
    7    1    2      8.63      0.00
    7    1    4      4.63      0.00
    7    1    6     15.67      0.00
    7    1    8     -0.13      0.00
    7    1   10     -3.26      0.00
    7    1   12      0.58      0.00
    7    1   14      2.71      0.00
    7    1   16      2.94      0.00
    7    1   18     -0.18      0.00
    7    1   20     -0.28      0.00
   -7    2   21      0.74      0.00
   -7    2   19      0.58      0.00
   -7    2   17      0.54      0.00
   -7    2   15      2.54      0.00
   -7    2   13      3.50      0.00
   -7    2   11      0.60      0.00
   -7    2    9     -2.39      0.00
   -7    2    7      3.04      0.00
   -7    2    5      2.91      0.00
   -7    2    3     -1.33      0.00
   -7    2    1     -5.82      0.00
    7    2    1    -12.58      0.00
    7    2    3    -10.66      0.00
    7    2    5      6.22      0.00
    7    2    7     -5.27      0.00
    7    2    9     -9.20      0.00
    7    2   11      0.17      0.00
    7    2   13      0.86      0.00
    7    2   15      0.99      0.00
    7    2   17      0.15      0.00
    7    2   19     -0.71      0.00
    7    2   21      1.77      0.00
   -7    3   22     -1.34      0.00
   -7    3   20     -0.28      0.00
   -7    3   18      0.93      0.00
   -7    3   16     -0.73      0.00
   -7    3   14     -1.50      0.00
   -7    3   12      0.20      0.00
   -7    3   10      7.45      0.00
   -7    3    8     -1.79      0.00
   -7    3    6     -6.30      0.00
   -7    3    4      3.55      0.00
   -7    3    2     22.54      0.00
    7    3    0      0.71      0.00
    7    3    2    -16.97      0.00
    7    3    4      4.32      0.00
    7    3    6     11.56      0.00
    7    3    8      3.73      0.00
    7    3   10     -7.67      0.00
    7    3   12      1.69      0.00
    7    3   14      4.26      0.00
    7    3   16     -1.64      0.00
    7    3   18     -2.36      0.00
    7    3   20     -0.72      0.00
   -7    4   21     -0.78      0.00
   -7    4   19      0.76      0.00
   -7    4   17      0.68      0.00
   -7    4   15      3.16      0.00
   -7    4   13      1.28      0.00
   -7    4   11     -1.33      0.00
   -7    4    9      1.18      0.00
   -7    4    7     -3.54      0.00
   -7    4    5     -9.07      0.00
   -7    4    3      2.05      0.00
   -7    4    1      9.04      0.00
    7    4    1     12.18      0.00
    7    4    3      0.38      0.00
    7    4    5    -11.34      0.00
    7    4    7     -2.79      0.00
    7    4    9     -0.70      0.00
    7    4   11     -3.75      0.00
    7    4   13      1.81      0.00
    7    4   15      4.09      0.00
    7    4   17      1.85      0.00
    7    4   19      0.97      0.00
   -7    5   20     -0.58      0.00
   -7    5   18      0.20      0.00
   -7    5   16      1.21      0.00
   -7    5   14      0.53      0.00
   -7    5   12      1.04      0.00
   -7    5   10      1.91      0.00
   -7    5    8      0.31      0.00
   -7    5    6      3.84      0.00
   -7    5    4     11.08      0.00
   -7    5    2      2.71      0.00
    7    5    0      6.69      0.00
    7    5    2     -8.31      0.00
    7    5    4    -19.29      0.00
    7    5    6     -5.79      0.00
    7    5    8     -1.00      0.00
    7    5   10     -2.39      0.00
    7    5   12     -2.99      0.00
    7    5   14     -0.39      0.00
    7    5   16     -6.03      0.00
    7    5   18     -1.09      0.00
    7    5   20      0.66      0.00
   -7    6   21     -2.23      0.00
   -7    6   19     -1.86      0.00
   -7    6   17     -0.37      0.00
   -7    6   15     -1.20      0.00
   -7    6   13      0.20      0.00
   -7    6   11     -2.77      0.00
   -7    6    9     -0.36      0.00
   -7    6    7      3.60      0.00
   -7    6    5     -0.31      0.00
   -7    6    3     -6.28      0.00
   -7    6    1     -2.94      0.00
    7    6    1     -9.79      0.00
    7    6    3     -7.24      0.00
    7    6    5      0.15      0.00
    7    6    7      1.73      0.00
    7    6    9     -3.40      0.00
    7    6   11     -2.01      0.00
    7    6   13     -1.85      0.00
    7    6   15     -0.52      0.00
    7    6   17     -0.49      0.00
    7    6   19      2.39      0.00
   -7    7   20      0.49      0.00
   -7    7   18     -0.50      0.00
   -7    7   16      0.09      0.00
   -7    7   14      0.71      0.00
   -7    7   12      0.26      0.00
   -7    7   10      0.48      0.00
   -7    7    8      0.08      0.00
   -7    7    6      4.97      0.00
   -7    7    4     10.86      0.00
   -7    7    2      0.34      0.00
    7    7    0     18.03      0.00
    7    7    2     -2.26      0.00
    7    7    4    -20.81      0.00
    7    7    6    -11.13      0.00
    7    7    8      3.88      0.00
    7    7   10     -1.02      0.00
    7    7   12     -0.89      0.00
    7    7   14     -2.33      0.00
    7    7   16     -0.44      0.00
    7    7   18      0.12      0.00
   -7    8   19      1.71      0.00
   -7    8   17     -0.63      0.00
   -7    8   15     -0.68      0.00
   -7    8   13     -1.92      0.00
   -7    8   11     -1.23      0.00
   -7    8    9      1.24      0.00
   -7    8    7      1.80      0.00
   -7    8    5      5.44      0.00
   -7    8    3      6.42      0.00
   -7    8    1      1.92      0.00
    7    8    1     -1.14      0.00
    7    8    3      3.32      0.00
    7    8    5      0.96      0.00
    7    8    7     -0.10      0.00
    7    8    9     -1.77      0.00
    7    8   11     -1.06      0.00
    7    8   13     -2.65      0.00
    7    8   15     -0.75      0.00
    7    8   17     -1.20      0.00
   -7    9   18      0.04      0.00
   -7    9   16     -1.35      0.00
   -7    9   14      0.04      0.00
   -7    9   12      1.00      0.00
   -7    9   10     -0.20      0.00
   -7    9    8      2.18      0.00
   -7    9    6      0.70      0.00
   -7    9    4      1.88      0.00
   -7    9    2     -0.91      0.00
    7    9    0     -5.86      0.00
    7    9    2     -2.17      0.00
    7    9    4      0.63      0.00
    7    9    6     -0.98      0.00
    7    9    8     -4.91      0.00
    7    9   10     -1.26      0.00
    7    9   12     -1.37      0.00
    7    9   14     -0.91      0.00
    7    9   16     -0.38      0.00
   -7   10   17     -0.57      0.00
   -7   10   15     -0.94      0.00
   -7   10   13     -2.86      0.00
   -7   10   11     -1.20      0.00
   -7   10    9     -1.13      0.00
   -7   10    7     -0.10      0.00
   -7   10    5      0.44      0.00
   -7   10    3      7.06      0.00
   -7   10    1      6.47      0.00
    7   10    1      3.85      0.00
    7   10    3      1.68      0.00
    7   10    5     -2.45      0.00
    7   10    7     -0.82      0.00
    7   10    9      0.91      0.00
    7   10   11     -1.62      0.00
    7   10   13     -2.80      0.00
    7   10   15     -0.60      0.00
   -7   11   16     -0.18      0.00
   -7   11   14      0.25      0.00
   -7   11   12      0.20      0.00
   -7   11   10     -0.59      0.00
   -7   11    8      1.47      0.00
   -7   11    6     -0.81      0.00
   -7   11    4     -5.03      0.00
   -7   11    2     -0.76      0.00
    7   11    0    -13.58      0.00
    7   11    2     -1.15      0.00
    7   11    4      8.75      0.00
    7   11    6      0.11      0.00
    7   11    8     -2.43      0.00
    7   11   10     -1.52      0.00
    7   11   12     -1.10      0.00
    7   11   14     -0.80      0.00
   -7   12   15      1.57      0.00
   -7   12   13      1.28      0.00
   -7   12   11     -0.92      0.00
   -7   12    9     -0.53      0.00
   -7   12    7      1.72      0.00
   -7   12    5      2.16      0.00
   -7   12    3     -1.11      0.00
   -7   12    1     -1.04      0.00
    7   12    1     -2.95      0.00
    7   12    3     -2.81      0.00
    7   12    5     -1.52      0.00
    7   12    7     -1.15      0.00
    7   12    9      1.67      0.00
    7   12   11     -0.90      0.00
    7   12   13      0.12      0.00
   -7   13   14     -1.06      0.00
   -7   13   12     -1.40      0.00
   -7   13   10      1.70      0.00
   -7   13    8      1.21      0.00
   -7   13    6     -0.63      0.00
   -7   13    4     -2.76      0.00
   -7   13    2      0.72      0.00
    7   13    0     -3.64      0.00
    7   13    2     -1.36      0.00
    7   13    4     -0.89      0.00
    7   13    6      1.24      0.00
    7   13    8     -1.13      0.00
    7   13   10     -0.83      0.00
    7   13   12     -0.30      0.00
   -7   14   13      2.75      0.00
   -7   14   11      0.76      0.00
   -7   14    9     -0.09      0.00
   -7   14    7     -0.98      0.00
   -7   14    5      0.55      0.00
   -7   14    3     -1.00      0.00
   -7   14    1      0.94      0.00
    7   14    1     -2.90      0.00
    7   14    3      0.05      0.00
    7   14    5      2.15      0.00
    7   14    7      0.79      0.00
    7   14    9      0.50      0.00
    7   14   11      0.58      0.00
   -7   15   10     -1.20      0.00
   -7   15    8     -0.76      0.00
   -7   15    6      1.62      0.00
   -7   15    4     -0.62      0.00
   -7   15    2     -0.94      0.00
    7   15    0     -0.50      0.00
    7   15    2      0.10      0.00
    7   15    4     -0.85      0.00
    7   15    6      0.13      0.00
    7   15    8     -0.57      0.00
   -7   16    7     -0.42      0.00
   -7   16    5     -0.74      0.00
   -7   16    3     -0.61      0.00
   -7   16    1     -1.77      0.00
    7   16    1     -1.04      0.00
    7   16    3     -1.78      0.00
    7   16    5      2.26      0.00
   -8    0   22     -3.01      0.00
   -8    0   20     -3.02      0.00
   -8    0   18     -1.05      0.00
   -8    0   16     -1.89      0.00
   -8    0   14     -4.23      0.00
   -8    0   12      4.89      0.00
   -8    0   10     11.69      0.00
   -8    0    8      5.03      0.00
   -8    0    6      4.61      0.00
   -8    0    4     21.58      0.00
   -8    0    2     21.55      0.00
    8    0    0     -3.80      0.00
    8    0    2     15.08      0.00
    8    0    4     20.49      0.00
    8    0    6    -11.04      0.00
    8    0    8      2.60      0.00
    8    0   10     17.78      0.00
    8    0   12      8.23      0.00
    8    0   14     -0.23      0.00
    8    0   16      0.00      0.00
    8    0   18      3.65      0.00
    8    0   20      3.29      0.00
   -8    1   21      1.08      0.00
   -8    1   19      0.79      0.00
   -8    1   17      1.92      0.00
   -8    1   15      4.45      0.00
   -8    1   13      1.37      0.00
   -8    1   11     -2.53      0.00
   -8    1    9      3.35      0.00
   -8    1    7      6.73      0.00
   -8    1    5     -2.46      0.00
   -8    1    3     -7.52      0.00
   -8    1    1      3.99      0.00
    8    1    1      0.34      0.00
    8    1    3      9.66      0.00
    8    1    5      3.73      0.00
    8    1    7     -1.71      0.00
    8    1    9      2.25      0.00
    8    1   11      6.64      0.00
    8    1   13      3.74      0.00
    8    1   15     -1.46      0.00
    8    1   17     -0.77      0.00
    8    1   19      1.25      0.00
   -8    2   22      0.89      0.00
   -8    2   20     -0.50      0.00
   -8    2   18     -0.41      0.00
   -8    2   16     -1.21      0.00
   -8    2   14      0.09      0.00
   -8    2   12      0.87      0.00
   -8    2   10      4.49      0.00
   -8    2    8      3.38      0.00
   -8    2    6      5.20      0.00
   -8    2    4      1.16      0.00
   -8    2    2     10.73      0.00
    8    2    0      4.86      0.00
    8    2    2     10.22      0.00
    8    2    4      1.82      0.00
    8    2    6      6.11      0.00
    8    2    8      1.78      0.00
    8    2   10      7.07      0.00
    8    2   12      4.56      0.00
    8    2   14      1.55      0.00
    8    2   16      4.56      0.00
    8    2   18      1.24      0.00
    8    2   20     -1.39      0.00
   -8    3   21     -1.57      0.00
   -8    3   19      0.75      0.00
   -8    3   17     -0.06      0.00
   -8    3   15     -0.22      0.00
   -8    3   13      1.13      0.00
   -8    3   11      0.07      0.00
   -8    3    9     -0.76      0.00
   -8    3    7     -3.28      0.00
   -8    3    5     -0.88      0.00
   -8    3    3      8.00      0.00
   -8    3    1      6.25      0.00
    8    3    1     -4.12      0.00
    8    3    3      0.81      0.00
    8    3    5      8.54      0.00
    8    3    7      6.06      0.00
    8    3    9      3.01      0.00
    8    3   11      4.33      0.00
    8    3   13      1.13      0.00
    8    3   15      0.12      0.00
    8    3   17      2.66      0.00
    8    3   19      0.98      0.00
   -8    4   20     -0.47      0.00
   -8    4   18     -1.39      0.00
   -8    4   16      0.53      0.00
   -8    4   14      0.47      0.00
   -8    4   12      0.24      0.00
   -8    4   10     -1.33      0.00
   -8    4    8      4.29      0.00
   -8    4    6      7.79      0.00
   -8    4    4      7.88      0.00
   -8    4    2     -7.33      0.00
    8    4    0     -6.27      0.00
    8    4    2     -4.08      0.00
    8    4    4     10.42      0.00
    8    4    6      5.86      0.00
    8    4    8     -2.56      0.00
    8    4   10     -3.78      0.00
    8    4   12      1.67      0.00
    8    4   14      3.18      0.00
    8    4   16      2.83      0.00
    8    4   18      0.65      0.00
   -8    5   21      2.69      0.00
   -8    5   19      1.47      0.00
   -8    5   17      0.05      0.00
   -8    5   15     -1.53      0.00
   -8    5   13     -0.81      0.00
   -8    5   11     -0.14      0.00
   -8    5    9     -1.04      0.00
   -8    5    7     -0.63      0.00
   -8    5    5      5.11      0.00
   -8    5    3     11.00      0.00
   -8    5    1      5.63      0.00
    8    5    1     -2.39      0.00
    8    5    3    -11.22      0.00
    8    5    5     -0.82      0.00
    8    5    7      4.38      0.00
    8    5    9      0.32      0.00
    8    5   11     -2.65      0.00
    8    5   13      0.65      0.00
    8    5   15      2.84      0.00
    8    5   17      1.69      0.00
    8    5   19      0.84      0.00
   -8    6   20      0.08      0.00
   -8    6   18     -0.29      0.00
   -8    6   16      0.46      0.00
   -8    6   14      2.13      0.00
   -8    6   12     -0.01      0.00
   -8    6   10     -1.30      0.00
   -8    6    8     -0.71      0.00
   -8    6    6      1.33      0.00
   -8    6    4      4.00      0.00
   -8    6    2      3.43      0.00
    8    6    0     -0.25      0.00
    8    6    2      6.27      0.00
    8    6    4      4.65      0.00
    8    6    6      2.79      0.00
    8    6    8     -2.82      0.00
    8    6   10     -0.04      0.00
    8    6   12     -1.61      0.00
    8    6   14      2.05      0.00
    8    6   16     -0.14      0.00
    8    6   18      0.34      0.00
   -8    7   19      0.89      0.00
   -8    7   17     -0.24      0.00
   -8    7   15     -0.57      0.00
   -8    7   13     -0.72      0.00
   -8    7   11      1.22      0.00
   -8    7    9     -0.66      0.00
   -8    7    7      1.53      0.00
   -8    7    5      3.41      0.00
   -8    7    3      3.83      0.00
   -8    7    1     -0.32      0.00
    8    7    1     -2.06      0.00
    8    7    3     -3.50      0.00
    8    7    5     -2.83      0.00
    8    7    7     -1.58      0.00
    8    7    9     -1.59      0.00
    8    7   11     -0.34      0.00
    8    7   13     -0.25      0.00
    8    7   15      0.98      0.00
    8    7   17     -0.29      0.00
   -8    8   18      0.63      0.00
   -8    8   16     -1.11      0.00
   -8    8   14      0.77      0.00
   -8    8   12     -1.58      0.00
   -8    8   10     -1.56      0.00
   -8    8    8      2.88      0.00
   -8    8    6      0.37      0.00
   -8    8    4     -4.67      0.00
   -8    8    2      2.48      0.00
    8    8    0     23.82      0.00
    8    8    2     -0.07      0.00
    8    8    4    -11.49      0.00
    8    8    6     -0.30      0.00
    8    8    8      7.49      0.00
    8    8   10     -1.75      0.00
    8    8   12      0.43      0.00
    8    8   14      2.25      0.00
    8    8   16      0.93      0.00
   -8    9   17      0.68      0.00
   -8    9   15      0.25      0.00
   -8    9   13     -0.14      0.00
   -8    9   11      0.20      0.00
   -8    9    9     -0.70      0.00
   -8    9    7      0.92      0.00
   -8    9    5      0.22      0.00
   -8    9    3     -5.22      0.00
   -8    9    1     -7.60      0.00
    8    9    1      7.68      0.00
    8    9    3      7.90      0.00
    8    9    5     -3.59      0.00
    8    9    7     -3.00      0.00
    8    9    9     -1.97      0.00
    8    9   11     -0.74      0.00
    8    9   13     -0.08      0.00
    8    9   15      0.54      0.00
    8    9   17     -1.03      0.00
   -8   10   16     -0.42      0.00
   -8   10   14     -0.09      0.00
   -8   10   12      0.87      0.00
   -8   10   10      1.90      0.00
   -8   10    8     -0.26      0.00
   -8   10    6      0.69      0.00
   -8   10    4     -2.37      0.00
   -8   10    2     -0.13      0.00
    8   10    0      4.55      0.00
    8   10    2     -0.18      0.00
    8   10    4     -1.58      0.00
    8   10    6      1.35      0.00
    8   10    8      0.92      0.00
    8   10   10      0.71      0.00
    8   10   12      0.91      0.00
    8   10   14      0.46      0.00
    8   10   16      1.70      0.00
   -8   11   15      1.66      0.00
   -8   11   13      2.16      0.00
   -8   11   11      0.43      0.00
   -8   11    9      0.56      0.00
   -8   11    7      0.99      0.00
   -8   11    5      0.02      0.00
   -8   11    3     -4.09      0.00
   -8   11    1     -4.30      0.00
    8   11    1      1.13      0.00
    8   11    3      0.33      0.00
    8   11    5      1.26      0.00
    8   11    7      0.43      0.00
    8   11    9     -0.30      0.00
    8   11   11      0.65      0.00
    8   11   13     -0.39      0.00
    8   11   15      2.82      0.00
   -8   12   14      0.67      0.00
   -8   12   12      0.84      0.00
   -8   12   10      1.21      0.00
   -8   12    8     -0.11      0.00
   -8   12    6      0.81      0.00
   -8   12    4      0.38      0.00
   -8   12    2     -0.21      0.00
    8   12    0     -4.59      0.00
    8   12    2     -0.34      0.00
    8   12    4      3.85      0.00
    8   12    6     -0.55      0.00
    8   12    8     -0.91      0.00
    8   12   10     -0.80      0.00
    8   12   12     -1.77      0.00
   -8   13   13      1.62      0.00
   -8   13   11      1.25      0.00
   -8   13    9     -0.54      0.00
   -8   13    7     -1.62      0.00
   -8   13    5      0.24      0.00
   -8   13    3     -0.64      0.00
   -8   13    1      1.05      0.00
    8   13    1     -1.20      0.00
    8   13    3     -1.71      0.00
    8   13    5     -1.69      0.00
    8   13    7      0.42      0.00
    8   13    9      2.03      0.00
    8   13   11      0.34      0.00
   -8   14   12      0.80      0.00
   -8   14   10     -0.19      0.00
   -8   14    8      0.40      0.00
   -8   14    6      0.96      0.00
   -8   14    4      0.80      0.00
   -8   14    2     -0.17      0.00
    8   14    0     -2.68      0.00
    8   14    2     -0.63      0.00
    8   14    4      0.86      0.00
    8   14    6      0.29      0.00
    8   14    8     -2.42      0.00
    8   14   10      0.30      0.00
   -8   15    9      1.01      0.00
   -8   15    7      0.06      0.00
   -8   15    5     -1.51      0.00
   -8   15    3      0.92      0.00
   -8   15    1     -1.12      0.00
    8   15    1     -1.37      0.00
    8   15    3     -0.53      0.00
    8   15    5     -0.66      0.00
    8   15    7      0.29      0.00
   -8   16    6     -2.06      0.00
   -8   16    4     -0.93      0.00
   -8   16    2     -0.06      0.00
    8   16    0     -1.67      0.00
    8   16    2     -0.53      0.00
    8   16    4      2.16      0.00
   -9    1   20      0.07      0.00
   -9    1   18      0.26      0.00
   -9    1   16      1.10      0.00
   -9    1   14     -0.51      0.00
   -9    1   12     -1.00      0.00
   -9    1   10      0.99      0.00
   -9    1    8      1.34      0.00
   -9    1    6     -0.48      0.00
   -9    1    4    -11.35      0.00
   -9    1    2     -3.18      0.00
    9    1    0      0.97      0.00
    9    1    2      3.77      0.00
    9    1    4      9.98      0.00
    9    1    6     -3.66      0.00
    9    1    8      0.64      0.00
    9    1   10      4.41      0.00
    9    1   12      2.20      0.00
    9    1   14      0.66      0.00
    9    1   16     -1.07      0.00
    9    1   18      0.84      0.00
   -9    2   21      0.34      0.00
   -9    2   19      1.44      0.00
   -9    2   17     -0.33      0.00
   -9    2   15     -2.25      0.00
   -9    2   13      1.54      0.00
   -9    2   11      2.73      0.00
   -9    2    9     -6.23      0.00
   -9    2    7     -4.64      0.00
   -9    2    5      6.50      0.00
   -9    2    3     10.73      0.00
   -9    2    1     -5.40      0.00
    9    2    1     -3.53      0.00
    9    2    3      7.75      0.00
    9    2    5      3.94      0.00
    9    2    7     -9.48      0.00
    9    2    9     -6.81      0.00
    9    2   11      5.60      0.00
    9    2   13      4.37      0.00
    9    2   15     -1.79      0.00
    9    2   17     -2.01      0.00
    9    2   19     -0.78      0.00
   -9    3   20      1.60      0.00
   -9    3   18      1.01      0.00
   -9    3   16      1.73      0.00
   -9    3   14      0.43      0.00
   -9    3   12     -2.47      0.00
   -9    3   10     -1.49      0.00
   -9    3    8      3.86      0.00
   -9    3    6     -3.02      0.00
   -9    3    4     -0.52      0.00
   -9    3    2     -1.19      0.00
    9    3    0     -7.49      0.00
    9    3    2     -0.65      0.00
    9    3    4      1.32      0.00
    9    3    6      1.75      0.00
    9    3    8     -0.16      0.00
    9    3   10      6.96      0.00
    9    3   12      5.25      0.00
    9    3   14      2.23      0.00
    9    3   16      2.90      0.00
    9    3   18      1.10      0.00
   -9    4   21      1.22      0.00
   -9    4   19     -0.18      0.00
   -9    4   17     -0.72      0.00
   -9    4   15     -0.40      0.00
   -9    4   13      0.94      0.00
   -9    4   11      2.96      0.00
   -9    4    9      0.79      0.00
   -9    4    7     -1.53      0.00
   -9    4    5      0.11      0.00
   -9    4    3      4.77      0.00
   -9    4    1      2.30      0.00
    9    4    1      1.96      0.00
    9    4    3      3.57      0.00
    9    4    5     -3.59      0.00
    9    4    7     -4.29      0.00
    9    4    9     -0.23      0.00
    9    4   11      2.50      0.00
    9    4   13      1.25      0.00
    9    4   15     -1.05      0.00
    9    4   17      2.56      0.00
    9    4   19      1.22      0.00
   -9    5   20      1.85      0.00
   -9    5   18      1.02      0.00
   -9    5   16      0.51      0.00
   -9    5   14      1.44      0.00
   -9    5   12     -1.12      0.00
   -9    5   10     -1.03      0.00
   -9    5    8     -3.48      0.00
   -9    5    6      0.23      0.00
   -9    5    4     -2.03      0.00
   -9    5    2      3.24      0.00
    9    5    0     -9.85      0.00
    9    5    2     -3.61      0.00
    9    5    4      5.69      0.00
    9    5    6     -1.55      0.00
    9    5    8     -2.03      0.00
    9    5   10     -0.03      0.00
    9    5   12      2.62      0.00
    9    5   14      1.11      0.00
    9    5   16      0.96      0.00
    9    5   18      1.24      0.00
   -9    6   19     -3.35      0.00
   -9    6   17     -0.58      0.00
   -9    6   15     -0.33      0.00
   -9    6   13      0.53      0.00
   -9    6   11      0.53      0.00
   -9    6    9     -0.09      0.00
   -9    6    7      2.19      0.00
   -9    6    5      0.65      0.00
   -9    6    3    -11.48      0.00
   -9    6    1     -9.62      0.00
    9    6    1    -13.89      0.00
    9    6    3    -10.34      0.00
    9    6    5      6.04      0.00
    9    6    7      5.42      0.00
    9    6    9     -1.18      0.00
    9    6   11     -1.71      0.00
    9    6   13      0.30      0.00
    9    6   15     -1.01      0.00
    9    6   17      0.44      0.00
   -9    7   18      0.20      0.00
   -9    7   16     -0.48      0.00
   -9    7   14     -0.20      0.00
   -9    7   12     -0.21      0.00
   -9    7   10      0.75      0.00
   -9    7    8      1.02      0.00
   -9    7    6     -0.15      0.00
   -9    7    4     -2.29      0.00
   -9    7    2     -3.66      0.00
    9    7    0     -0.73      0.00
    9    7    2      4.35      0.00
    9    7    4     -0.98      0.00
    9    7    6     -3.72      0.00
    9    7    8     -7.03      0.00
    9    7   10      0.65      0.00
    9    7   12     -1.77      0.00
    9    7   14      0.63      0.00
    9    7   16      1.71      0.00
   -9    8   17     -0.05      0.00
   -9    8   15      0.79      0.00
   -9    8   13     -0.95      0.00
   -9    8   11     -2.35      0.00
   -9    8    9      0.38      0.00
   -9    8    7      0.80      0.00
   -9    8    5      1.36      0.00
   -9    8    3     -5.40      0.00
   -9    8    1     -7.56      0.00
    9    8    1     -7.66      0.00
    9    8    3     -5.38      0.00
    9    8    5      3.76      0.00
    9    8    7      2.57      0.00
    9    8    9      0.79      0.00
    9    8   11      2.24      0.00
    9    8   13     -1.43      0.00
    9    8   15     -0.72      0.00
    9    8   17     -0.49      0.00
   -9    9   18     -1.36      0.00
   -9    9   16      0.03      0.00
   -9    9   14     -0.95      0.00
   -9    9   12      1.63      0.00
   -9    9   10      3.60      0.00
   -9    9    8     -0.75      0.00
   -9    9    6      0.22      0.00
   -9    9    4     -0.86      0.00
   -9    9    2     -3.46      0.00
    9    9    0     11.57      0.00
    9    9    2      2.10      0.00
    9    9    4     -3.96      0.00
    9    9    6     -2.23      0.00
    9    9    8      1.04      0.00
    9    9   10     -2.77      0.00
    9    9   12     -1.30      0.00
    9    9   14      1.91      0.00
    9    9   16     -0.65      0.00
   -9   10   17     -0.84      0.00
   -9   10   15      1.58      0.00
   -9   10   13      0.43      0.00
   -9   10   11      0.61      0.00
   -9   10    9     -0.04      0.00
   -9   10    7     -2.56      0.00
   -9   10    5     -0.92      0.00
   -9   10    3      3.54      0.00
   -9   10    1      6.64      0.00
    9   10    1      7.24      0.00
    9   10    3      6.74      0.00
    9   10    5     -3.80      0.00
    9   10    7     -2.14      0.00
    9   10    9      0.27      0.00
    9   10   11     -1.37      0.00
    9   10   13     -0.17      0.00
    9   10   15     -0.50      0.00
   -9   11   16     -0.30      0.00
   -9   11   14     -0.60      0.00
   -9   11   12     -0.07      0.00
   -9   11   10      0.74      0.00
   -9   11    8      0.23      0.00
   -9   11    6     -0.20      0.00
   -9   11    4      0.47      0.00
   -9   11    2      0.13      0.00
    9   11    0      1.16      0.00
    9   11    2      0.66      0.00
    9   11    4      0.04      0.00
    9   11    6      0.41      0.00
    9   11    8      1.01      0.00
    9   11   10     -1.04      0.00
    9   11   12     -0.55      0.00
    9   11   14      2.23      0.00
   -9   12   13      0.92      0.00
   -9   12   11     -0.39      0.00
   -9   12    9     -1.37      0.00
   -9   12    7     -1.27      0.00
   -9   12    5      0.20      0.00
   -9   12    3      2.17      0.00
   -9   12    1      4.64      0.00
    9   12    1      3.99      0.00
    9   12    3      1.81      0.00
    9   12    5      1.48      0.00
    9   12    7     -1.59      0.00
    9   12    9     -0.50      0.00
    9   12   11      2.22      0.00
   -9   13   12     -0.95      0.00
   -9   13   10     -0.34      0.00
   -9   13    8      0.43      0.00
   -9   13    6     -0.83      0.00
   -9   13    4      0.98      0.00
   -9   13    2      1.43      0.00
    9   13    0     -0.20      0.00
    9   13    2     -0.77      0.00
    9   13    4     -0.07      0.00
    9   13    6      0.13      0.00
    9   13    8      1.99      0.00
    9   13   10     -1.07      0.00
   -9   14   11     -0.02      0.00
   -9   14    9      0.05      0.00
   -9   14    7     -1.76      0.00
   -9   14    5     -1.39      0.00
   -9   14    3      2.17      0.00
   -9   14    1      2.08      0.00
    9   14    1     -0.88      0.00
    9   14    3      1.01      0.00
    9   14    5     -0.63      0.00
    9   14    7     -2.11      0.00
    9   14    9     -1.11      0.00
   -9   15    8     -2.83      0.00
   -9   15    6     -0.01      0.00
   -9   15    4     -2.16      0.00
   -9   15    2     -1.63      0.00
    9   15    0     -1.84      0.00
    9   15    2     -0.99      0.00
    9   15    4     -0.30      0.00
    9   15    6     -2.83      0.00
   -9   16    1      2.29      0.00
  -10    0   20      0.25      0.00
  -10    0   18      0.79      0.00
  -10    0   16      1.55      0.00
  -10    0   14     -3.33      0.00
  -10    0   12     -2.07      0.00
  -10    0   10      3.39      0.00
  -10    0    8      1.08      0.00
  -10    0    6     -0.82      0.00
  -10    0    4     -1.32      0.00
  -10    0    2     13.23      0.00
   10    0    0      4.77      0.00
   10    0    2     12.10      0.00
   10    0    4     -2.64      0.00
   10    0    6     -0.30      0.00
   10    0    8      3.51      0.00
   10    0   10      4.55      0.00
   10    0   12     -0.70      0.00
   10    0   14     -2.14      0.00
   10    0   16     -0.38      0.00
   10    0   18     -0.99      0.00
  -10    1   21     -0.04      0.00
  -10    1   19      0.42      0.00
  -10    1   17      0.41      0.00
  -10    1   15      0.84      0.00
  -10    1   13      3.08      0.00
  -10    1   11      2.46      0.00
  -10    1    9     -2.81      0.00
  -10    1    7      0.85      0.00
  -10    1    5      5.18      0.00
  -10    1    3      2.54      0.00
  -10    1    1     -6.14      0.00
   10    1    1      3.86      0.00
   10    1    3     -3.37      0.00
   10    1    5     -4.64      0.00
   10    1    7      5.84      0.00
   10    1    9      7.69      0.00
   10    1   11     -5.79      0.00
   10    1   13     -3.60      0.00
   10    1   15      0.34      0.00
   10    1   17     -0.32      0.00
  -10    2   20      2.04      0.00
  -10    2   18      0.25      0.00
  -10    2   16      0.05      0.00
  -10    2   14      0.09      0.00
  -10    2   12     -2.07      0.00
  -10    2   10     -0.18      0.00
  -10    2    8      5.24      0.00
  -10    2    6     -0.84      0.00
  -10    2    4     -0.16      0.00
  -10    2    2     -0.84      0.00
   10    2    0      9.45      0.00
   10    2    2      0.16      0.00
   10    2    4     -1.51      0.00
   10    2    6      0.60      0.00
   10    2    8      4.72      0.00
   10    2   10     -0.56      0.00
   10    2   12     -1.43      0.00
   10    2   14     -0.78      0.00
   10    2   16     -1.21      0.00
   10    2   18     -0.88      0.00
  -10    3   19     -0.88      0.00
  -10    3   17     -0.58      0.00
  -10    3   15     -0.64      0.00
  -10    3   13      0.98      0.00
  -10    3   11      2.52      0.00
  -10    3    9      3.19      0.00
  -10    3    7     -0.32      0.00
  -10    3    5     -1.64      0.00
  -10    3    3     -0.82      0.00
  -10    3    1      1.58      0.00
   10    3    1      5.30      0.00
   10    3    3      8.05      0.00
   10    3    5      2.82      0.00
   10    3    7     -2.48      0.00
   10    3    9     -0.89      0.00
   10    3   11      1.88      0.00
   10    3   13      0.26      0.00
   10    3   15     -0.19      0.00
   10    3   17     -1.02      0.00
  -10    4   20     -1.08      0.00
  -10    4   18     -1.56      0.00
  -10    4   16     -0.89      0.00
  -10    4   14      0.71      0.00
  -10    4   12      0.56      0.00
  -10    4   10     -0.90      0.00
  -10    4    8     -1.63      0.00
  -10    4    6      6.97      0.00
  -10    4    4      3.68      0.00
  -10    4    2     -3.85      0.00
   10    4    0     -6.91      0.00
   10    4    2     -3.08      0.00
   10    4    4      1.49      0.00
   10    4    6      4.04      0.00
   10    4    8     -2.70      0.00
   10    4   10     -1.57      0.00
   10    4   12      1.15      0.00
   10    4   14      2.03      0.00
   10    4   16      1.85      0.00
   10    4   18      2.74      0.00
  -10    5   19     -1.19      0.00
  -10    5   17      1.21      0.00
  -10    5   15      0.21      0.00
  -10    5   13     -1.95      0.00
  -10    5   11     -2.16      0.00
  -10    5    9      2.70      0.00
  -10    5    7      2.54      0.00
  -10    5    5      3.48      0.00
  -10    5    3     -2.92      0.00
  -10    5    1     -1.28      0.00
   10    5    1      8.28      0.00
   10    5    3      2.07      0.00
   10    5    5     -7.24      0.00
   10    5    7     -6.74      0.00
   10    5    9     -2.63      0.00
   10    5   11     -1.05      0.00
   10    5   13      0.40      0.00
   10    5   15     -0.04      0.00
   10    5   17      1.89      0.00
  -10    6   18     -0.47      0.00
  -10    6   16     -0.10      0.00
  -10    6   14      0.00      0.00
  -10    6   12      2.61      0.00
  -10    6   10      1.15      0.00
  -10    6    8      1.42      0.00
  -10    6    6      0.59      0.00
  -10    6    4      4.25      0.00
  -10    6    2     -2.84      0.00
   10    6    0    -13.61      0.00
   10    6    2     -0.92      0.00
   10    6    4      9.93      0.00
   10    6    6      0.94      0.00
   10    6    8     -0.81      0.00
   10    6   10     -0.15      0.00
   10    6   12      2.00      0.00
   10    6   14      0.74      0.00
   10    6   16     -0.21      0.00
  -10    7   17      0.07      0.00
  -10    7   15      0.81      0.00
  -10    7   13     -1.38      0.00
  -10    7   11     -1.15      0.00
  -10    7    9      1.22      0.00
  -10    7    7      3.27      0.00
  -10    7    5      3.08      0.00
  -10    7    3      5.79      0.00
  -10    7    1      4.38      0.00
   10    7    1     -8.67      0.00
   10    7    3     -5.58      0.00
   10    7    5      1.41      0.00
   10    7    7      0.88      0.00
   10    7    9     -2.90      0.00
   10    7   11     -2.79      0.00
   10    7   13      1.61      0.00
   10    7   15     -1.61      0.00
  -10    8   18      2.39      0.00
  -10    8   16      0.57      0.00
  -10    8   14     -0.47      0.00
  -10    8   12      0.30      0.00
  -10    8   10      2.42      0.00
  -10    8    8      1.31      0.00
  -10    8    6      0.22      0.00
  -10    8    4     -0.91      0.00
  -10    8    2      2.03      0.00
   10    8    0      5.20      0.00
   10    8    2     -1.24      0.00
   10    8    4     -4.38      0.00
   10    8    6     -0.68      0.00
   10    8    8     -2.86      0.00
   10    8   10      0.99      0.00
   10    8   12     -0.50      0.00
   10    8   14      0.35      0.00
   10    8   16      0.14      0.00
  -10    9   17      0.66      0.00
  -10    9   15      1.33      0.00
  -10    9   13     -0.12      0.00
  -10    9   11      0.99      0.00
  -10    9    9      0.39      0.00
  -10    9    7     -1.37      0.00
  -10    9    5     -0.52      0.00
  -10    9    3      5.79      0.00
  -10    9    1      8.12      0.00
   10    9    1     -5.88      0.00
   10    9    3     -4.40      0.00
   10    9    5      3.74      0.00
   10    9    7      1.00      0.00
   10    9    9     -2.14      0.00
   10    9   11      1.47      0.00
   10    9   13      0.13      0.00
   10    9   15     -0.82      0.00
  -10   10   16     -0.35      0.00
  -10   10   14     -0.17      0.00
  -10   10   12      0.15      0.00
  -10   10   10      0.43      0.00
  -10   10    8      0.63      0.00
  -10   10    6     -0.76      0.00
  -10   10    4     -0.31      0.00
  -10   10    2      2.69      0.00
   10   10    0      9.33      0.00
   10   10    2      1.81      0.00
   10   10    4     -2.98      0.00
   10   10    6     -0.85      0.00
   10   10    8     -0.72      0.00
   10   10   10     -0.28      0.00
   10   10   12      0.46      0.00
   10   10   14     -0.11      0.00
  -10   11   15      0.32      0.00
  -10   11   13      0.53      0.00
  -10   11   11      0.25      0.00
  -10   11    9     -0.21      0.00
  -10   11    7      2.26      0.00
  -10   11    5      0.12      0.00
  -10   11    3      1.06      0.00
  -10   11    1      1.08      0.00
   10   11    1     -0.19      0.00
   10   11    3      1.96      0.00
   10   11    5     -1.10      0.00
   10   11    7     -0.62      0.00
   10   11    9     -0.37      0.00
   10   11   11     -2.09      0.00
   10   11   13      1.24      0.00
  -10   12   12      0.78      0.00
  -10   12   10     -0.86      0.00
  -10   12    8      0.87      0.00
  -10   12    6     -0.42      0.00
  -10   12    4      0.39      0.00
  -10   12    2      0.18      0.00
   10   12    0     -0.16      0.00
   10   12    2      2.23      0.00
   10   12    4      0.48      0.00
   10   12    6     -0.66      0.00
   10   12    8     -1.49      0.00
   10   12   10     -1.01      0.00
  -10   13   11      0.37      0.00
  -10   13    9     -0.16      0.00
  -10   13    7     -1.06      0.00
  -10   13    5     -0.25      0.00
  -10   13    3      0.40      0.00
  -10   13    1     -2.38      0.00
   10   13    1      3.06      0.00
   10   13    3      1.29      0.00
   10   13    5      1.43      0.00
   10   13    7      0.12      0.00
   10   13    9      1.93      0.00
  -10   14    8     -0.10      0.00
  -10   14    6      0.83      0.00
  -10   14    4     -2.26      0.00
  -10   14    2     -1.55      0.00
   10   14    0      0.16      0.00
   10   14    2     -0.55      0.00
   10   14    4     -0.27      0.00
   10   14    6      0.59      0.00
  -10   15    5      1.46      0.00
  -10   15    3      0.97      0.00
  -10   15    1     -0.81      0.00
   10   15    1     -0.75      0.00
   10   15    3      0.95      0.00
  -11    1   20     -1.38      0.00
  -11    1   18     -0.97      0.00
  -11    1   16      0.06      0.00
  -11    1   14      0.78      0.00
  -11    1   12     -0.01      0.00
  -11    1   10      1.23      0.00
  -11    1    8      5.03      0.00
  -11    1    6      3.34      0.00
  -11    1    4     -0.46      0.00
  -11    1    2     -8.83      0.00
   11    1    0     -0.02      0.00
   11    1    2      9.49      0.00
   11    1    4     -0.86      0.00
   11    1    6     -3.29      0.00
   11    1    8      1.45      0.00
   11    1   10      5.49      0.00
   11    1   12     -0.15      0.00
   11    1   14     -0.15      0.00
   11    1   16     -0.56      0.00
   11    1   18     -2.94      0.00
  -11    2   19      0.68      0.00
  -11    2   17     -0.41      0.00
  -11    2   15     -1.41      0.00
  -11    2   13     -1.09      0.00
  -11    2   11      0.57      0.00
  -11    2    9      0.24      0.00
  -11    2    7     -3.34      0.00
  -11    2    5     -1.07      0.00
  -11    2    3      2.59      0.00
  -11    2    1      1.93      0.00
   11    2    1     -1.04      0.00
   11    2    3     -0.31      0.00
   11    2    5     -0.69      0.00
   11    2    7      1.16      0.00
   11    2    9      3.18      0.00
   11    2   11     -2.07      0.00
   11    2   13     -0.29      0.00
   11    2   15     -0.24      0.00
   11    2   17     -0.88      0.00
  -11    3   18     -0.53      0.00
  -11    3   16      0.19      0.00
  -11    3   14      1.76      0.00
  -11    3   12      1.02      0.00
  -11    3   10     -3.39      0.00
  -11    3    8     -1.78      0.00
  -11    3    6      3.86      0.00
  -11    3    4      3.42      0.00
  -11    3    2     -0.40      0.00
   11    3    0      7.49      0.00
   11    3    2     -0.85      0.00
   11    3    4     -6.47      0.00
   11    3    6     -3.28      0.00
   11    3    8      5.74      0.00
   11    3   10      6.45      0.00
   11    3   12      1.05      0.00
   11    3   14     -0.08      0.00
   11    3   16     -0.06      0.00
  -11    4   19     -2.36      0.00
  -11    4   17      0.36      0.00
  -11    4   15      0.01      0.00
  -11    4   13     -1.87      0.00
  -11    4   11     -1.33      0.00
  -11    4    9      3.11      0.00
  -11    4    7      1.17      0.00
  -11    4    5     -0.26      0.00
  -11    4    3      3.42      0.00
  -11    4    1      6.54      0.00
   11    4    1      8.81      0.00
   11    4    3      6.86      0.00
   11    4    5     -3.01      0.00
   11    4    7     -0.80      0.00
   11    4    9      4.97      0.00
   11    4   11      2.25      0.00
   11    4   13     -0.01      0.00
   11    4   15      0.66      0.00
   11    4   17     -0.67      0.00
  -11    5   18      1.30      0.00
  -11    5   16      0.69      0.00
  -11    5   14      0.30      0.00
  -11    5   12      1.23      0.00
  -11    5   10     -0.66      0.00
  -11    5    8     -2.42      0.00
  -11    5    6     -2.85      0.00
  -11    5    4     -0.10      0.00
  -11    5    2      1.38      0.00
   11    5    0     -1.22      0.00
   11    5    2      0.27      0.00
   11    5    4      0.41      0.00
   11    5    6      3.71      0.00
   11    5    8     -0.25      0.00
   11    5   10     -1.48      0.00
   11    5   12      0.04      0.00
   11    5   14      0.74      0.00
   11    5   16      1.23      0.00
  -11    6   17     -1.27      0.00
  -11    6   15     -0.38      0.00
  -11    6   13      0.50      0.00
  -11    6   11      1.85      0.00
  -11    6    9     -0.33      0.00
  -11    6    7      2.10      0.00
  -11    6    5     -2.25      0.00
  -11    6    3     -2.41      0.00
  -11    6    1     -1.31      0.00
   11    6    1      7.38      0.00
   11    6    3      2.63      0.00
   11    6    5     -1.83      0.00
   11    6    7     -0.56      0.00
   11    6    9      1.35      0.00
   11    6   11     -1.13      0.00
   11    6   13     -0.38      0.00
   11    6   15      0.80      0.00
  -11    7   16      1.08      0.00
  -11    7   14     -0.03      0.00
  -11    7   12     -1.19      0.00
  -11    7   10      1.15      0.00
  -11    7    8      0.24      0.00
  -11    7    6     -1.99      0.00
  -11    7    4     -5.57      0.00
  -11    7    2      1.27      0.00
   11    7    0    -11.69      0.00
   11    7    2      3.67      0.00
   11    7    4     10.14      0.00
   11    7    6     -0.05      0.00
   11    7    8     -1.64      0.00
   11    7   10     -1.02      0.00
   11    7   12      0.07      0.00
   11    7   14      0.03      0.00
  -11    8   17      0.04      0.00
  -11    8   15      0.47      0.00
  -11    8   13      1.05      0.00
  -11    8   11      0.02      0.00
  -11    8    9     -0.42      0.00
  -11    8    7     -1.87      0.00
  -11    8    5     -2.62      0.00
  -11    8    3     -3.10      0.00
  -11    8    1     -3.41      0.00
   11    8    1     -4.18      0.00
   11    8    3     -2.24      0.00
   11    8    5      1.33      0.00
   11    8    7      3.65      0.00
   11    8    9      1.37      0.00
   11    8   11      0.08      0.00
   11    8   13      1.02      0.00
   11    8   15     -1.07      0.00
  -11    9   16      0.68      0.00
  -11    9   14      0.73      0.00
  -11    9   12      0.04      0.00
  -11    9   10      0.04      0.00
  -11    9    8     -0.45      0.00
  -11    9    6     -0.83      0.00
  -11    9    4     -2.69      0.00
  -11    9    2     -1.43      0.00
   11    9    0      2.68      0.00
   11    9    2     -0.44      0.00
   11    9    4     -0.70      0.00
   11    9    6     -0.48      0.00
   11    9    8     -0.19      0.00
   11    9   10     -0.11      0.00
   11    9   12     -1.22      0.00
   11    9   14      1.80      0.00
  -11   10   15      0.43      0.00
  -11   10   13      0.63      0.00
  -11   10   11      2.89      0.00
  -11   10    9     -0.57      0.00
  -11   10    7      1.42      0.00
  -11   10    5     -0.95      0.00
  -11   10    3     -1.51      0.00
  -11   10    1     -1.68      0.00
   11   10    1      1.17      0.00
   11   10    3     -2.14      0.00
   11   10    5      0.44      0.00
   11   10    7      1.63      0.00
   11   10    9     -0.02      0.00
   11   10   11      0.93      0.00
   11   10   13      0.68      0.00
  -11   11   12     -0.44      0.00
  -11   11   10     -1.36      0.00
  -11   11    8      0.63      0.00
  -11   11    6      1.41      0.00
  -11   11    4      1.22      0.00
  -11   11    2     -0.36      0.00
   11   11    0      7.15      0.00
   11   11    2      0.37      0.00
   11   11    4     -1.63      0.00
   11   11    6      0.56      0.00
   11   11    8      1.09      0.00
   11   11   10      0.68      0.00
  -11   12   11      0.27      0.00
  -11   12    9     -1.55      0.00
  -11   12    7     -0.59      0.00
  -11   12    5      0.49      0.00
  -11   12    3     -1.64      0.00
  -11   12    1     -3.06      0.00
   11   12    1     -0.92      0.00
   11   12    3      0.91      0.00
   11   12    5     -0.69      0.00
   11   12    7      1.18      0.00
   11   12    9     -1.50      0.00
  -11   13   10     -0.83      0.00
  -11   13    8     -0.34      0.00
  -11   13    6      0.62      0.00
  -11   13    4      0.77      0.00
  -11   13    2      0.69      0.00
   11   13    0      1.85      0.00
   11   13    2      2.91      0.00
   11   13    4     -1.37      0.00
   11   13    6      0.21      0.00
   11   13    8     -0.31      0.00
  -11   14    7      2.10      0.00
  -11   14    5      0.90      0.00
  -11   14    3      0.20      0.00
  -11   14    1      1.70      0.00
   11   14    1     -0.73      0.00
   11   14    3      1.41      0.00
   11   14    5      1.61      0.00
  -12    0   18      0.38      0.00
  -12    0   16     -0.14      0.00
  -12    0   14     -0.77      0.00
  -12    0   12     -2.00      0.00
  -12    0   10     -0.29      0.00
  -12    0    8      1.18      0.00
  -12    0    6      1.12      0.00
  -12    0    4      1.48      0.00
  -12    0    2     -3.70      0.00
   12    0    0      1.80      0.00
   12    0    2     -2.72      0.00
   12    0    4      5.30      0.00
   12    0    6      3.92      0.00
   12    0    8     -1.81      0.00
   12    0   10     -5.72      0.00
   12    0   12     -0.07      0.00
   12    0   14     -2.37      0.00
   12    0   16      0.39      0.00
  -12    1   19     -1.17      0.00
  -12    1   17     -0.83      0.00
  -12    1   15     -0.61      0.00
  -12    1   13     -1.25      0.00
  -12    1   11     -0.18      0.00
  -12    1    9      0.15      0.00
  -12    1    7     -2.01      0.00
  -12    1    5     -0.58      0.00
  -12    1    3      2.65      0.00
  -12    1    1      2.54      0.00
   12    1    1     -1.76      0.00
   12    1    3     -4.03      0.00
   12    1    5      2.32      0.00
   12    1    7      4.18      0.00
   12    1    9     -0.50      0.00
   12    1   11     -0.78      0.00
   12    1   13     -0.57      0.00
   12    1   15     -1.86      0.00
  -12    2   18      0.37      0.00
  -12    2   16     -0.88      0.00
  -12    2   14     -0.09      0.00
  -12    2   12     -1.60      0.00
  -12    2   10     -6.81      0.00
  -12    2    8     -3.65      0.00
  -12    2    6     -1.79      0.00
  -12    2    4     -2.82      0.00
  -12    2    2      0.59      0.00
   12    2    0     -0.69      0.00
   12    2    2      0.79      0.00
   12    2    4     -1.90      0.00
   12    2    6      1.35      0.00
   12    2    8      1.74      0.00
   12    2   10     -2.63      0.00
   12    2   12     -1.13      0.00
   12    2   14     -0.58      0.00
   12    2   16     -0.80      0.00
  -12    3   19     -2.79      0.00
  -12    3   17      0.27      0.00
  -12    3   15     -2.00      0.00
  -12    3   13     -1.38      0.00
  -12    3   11     -0.57      0.00
  -12    3    9      2.63      0.00
  -12    3    7      0.92      0.00
  -12    3    5     -2.01      0.00
  -12    3    3      0.73      0.00
  -12    3    1      6.48      0.00
   12    3    1     -4.20      0.00
   12    3    3      1.56      0.00
   12    3    5      5.44      0.00
   12    3    7     -1.53      0.00
   12    3    9     -3.20      0.00
   12    3   11     -0.77      0.00
   12    3   13     -1.35      0.00
   12    3   15     -1.43      0.00
  -12    4   18      0.43      0.00
  -12    4   16     -0.50      0.00
  -12    4   14     -0.43      0.00
  -12    4   12     -0.88      0.00
  -12    4   10     -0.12      0.00
  -12    4    8     -2.90      0.00
  -12    4    6     -1.81      0.00
  -12    4    4     -1.74      0.00
  -12    4    2     -3.06      0.00
   12    4    0      2.32      0.00
   12    4    2     -5.50      0.00
   12    4    4     -7.21      0.00
   12    4    6     -3.86      0.00
   12    4    8      1.47      0.00
   12    4   10      2.99      0.00
   12    4   12      1.30      0.00
   12    4   14     -0.04      0.00
   12    4   16     -0.13      0.00
  -12    5   17     -0.43      0.00
  -12    5   15     -0.35      0.00
  -12    5   13      0.02      0.00
  -12    5   11     -0.30      0.00
  -12    5    9     -0.12      0.00
  -12    5    7      1.31      0.00
  -12    5    5      0.08      0.00
  -12    5    3     -5.18      0.00
  -12    5    1     -4.77      0.00
   12    5    1      7.86      0.00
   12    5    3      6.02      0.00
   12    5    5     -4.94      0.00
   12    5    7     -5.18      0.00
   12    5    9      0.28      0.00
   12    5   11      2.38      0.00
   12    5   13      0.07      0.00
   12    5   15     -0.24      0.00
  -12    6   16     -0.32      0.00
  -12    6   14     -0.41      0.00
  -12    6   12      0.37      0.00
  -12    6   10      1.02      0.00
  -12    6    8      0.79      0.00
  -12    6    6     -1.03      0.00
  -12    6    4     -2.61      0.00
  -12    6    2     -1.95      0.00
   12    6    0     -4.50      0.00
   12    6    2     -1.27      0.00
   12    6    4     -1.26      0.00
   12    6    6      0.95      0.00
   12    6    8     -0.11      0.00
   12    6   10      0.32      0.00
   12    6   12      0.48      0.00
   12    6   14     -0.30      0.00
  -12    7   15      0.14      0.00
  -12    7   13      1.03      0.00
  -12    7   11     -1.34      0.00
  -12    7    9     -1.17      0.00
  -12    7    7     -0.72      0.00
  -12    7    5      1.91      0.00
  -12    7    3      2.04      0.00
  -12    7    1      1.80      0.00
   12    7    1      6.34      0.00
   12    7    3      4.20      0.00
   12    7    5      0.75      0.00
   12    7    7     -1.30      0.00
   12    7    9      1.29      0.00
   12    7   11     -1.62      0.00
   12    7   13     -1.15      0.00
  -12    8   16      0.09      0.00
  -12    8   14      1.46      0.00
  -12    8   12      0.12      0.00
  -12    8   10      0.52      0.00
  -12    8    8     -0.29      0.00
  -12    8    6      0.37      0.00
  -12    8    4      0.04      0.00
  -12    8    2     -1.46      0.00
   12    8    0     -5.64      0.00
   12    8    2      0.69      0.00
   12    8    4      3.85      0.00
   12    8    6     -0.35      0.00
   12    8    8     -1.00      0.00
   12    8   10     -0.52      0.00
   12    8   12     -0.61      0.00
  -12    9   15      1.12      0.00
  -12    9   13     -0.31      0.00
  -12    9   11      2.30      0.00
  -12    9    9     -1.10      0.00
  -12    9    7     -0.30      0.00
  -12    9    5      1.52      0.00
  -12    9    3      3.96      0.00
  -12    9    1      6.07      0.00
   12    9    1     -2.93      0.00
   12    9    3      0.98      0.00
   12    9    5      3.77      0.00
   12    9    7      1.54      0.00
   12    9    9      0.47      0.00
   12    9   11      1.08      0.00
  -12   10   14     -2.68      0.00
  -12   10   12     -0.12      0.00
  -12   10   10     -0.59      0.00
  -12   10    8     -0.94      0.00
  -12   10    6      0.54      0.00
  -12   10    4      2.25      0.00
  -12   10    2      1.18      0.00
   12   10    0     -1.03      0.00
   12   10    2      0.91      0.00
   12   10    4      0.65      0.00
   12   10    6     -1.27      0.00
   12   10    8     -0.38      0.00
   12   10   10     -0.28      0.00
  -12   11   11     -1.47      0.00
  -12   11    9     -1.46      0.00
  -12   11    7     -1.20      0.00
  -12   11    5      0.40      0.00
  -12   11    3      1.47      0.00
  -12   11    1      0.91      0.00
   12   11    1      2.34      0.00
   12   11    3     -2.41      0.00
   12   11    5      0.63      0.00
   12   11    7     -1.46      0.00
   12   11    9      0.19      0.00
  -12   12   10     -0.35      0.00
  -12   12    8     -0.30      0.00
  -12   12    6     -1.52      0.00
  -12   12    4      1.48      0.00
  -12   12    2     -1.63      0.00
   12   12    0      1.42      0.00
   12   12    2     -0.14      0.00
   12   12    4      1.65      0.00
   12   12    6     -1.00      0.00
   12   12    8      0.18      0.00
  -12   13    7     -2.03      0.00
  -12   13    5     -0.69      0.00
  -12   13    3      0.78      0.00
  -12   13    1      1.04      0.00
   12   13    1      1.96      0.00
   12   13    3      1.06      0.00
   12   13    5     -0.78      0.00
  -12   14    2     -0.94      0.00
   12   14    0      2.38      0.00
  -13    1   18     -1.68      0.00
  -13    1   16      1.14      0.00
  -13    1   14     -0.31      0.00
  -13    1   12     -0.85      0.00
  -13    1   10     -1.41      0.00
  -13    1    8      0.57      0.00
  -13    1    6      1.15      0.00
  -13    1    4     -1.81      0.00
  -13    1    2      0.38      0.00
   13    1    0      1.16      0.00
   13    1    2      3.35      0.00
   13    1    4      4.58      0.00
   13    1    6     -1.31      0.00
   13    1    8     -1.04      0.00
   13    1   10      0.09      0.00
   13    1   12     -0.99      0.00
   13    1   14     -1.33      0.00
  -13    2   17      0.46      0.00
  -13    2   15     -1.78      0.00
  -13    2   13      0.53      0.00
  -13    2   11     -0.48      0.00
  -13    2    9      0.19      0.00
  -13    2    7      0.23      0.00
  -13    2    5      0.61      0.00
  -13    2    3     -0.35      0.00
  -13    2    1      0.74      0.00
   13    2    1     -2.25      0.00
   13    2    3     -4.03      0.00
   13    2    5      3.05      0.00
   13    2    7      6.58      0.00
   13    2    9      1.70      0.00
   13    2   11     -0.46      0.00
   13    2   13      1.15      0.00
   13    2   15     -2.00      0.00
  -13    3   18      0.41      0.00
  -13    3   16     -0.43      0.00
  -13    3   14      0.86      0.00
  -13    3   12      1.11      0.00
  -13    3   10      2.28      0.00
  -13    3    8     -0.19      0.00
  -13    3    6      0.26      0.00
  -13    3    4      2.63      0.00
  -13    3    2     -1.22      0.00
   13    3    0      2.53      0.00
   13    3    2      1.28      0.00
   13    3    4     -3.27      0.00
   13    3    6      1.58      0.00
   13    3    8      3.97      0.00
   13    3   10      0.31      0.00
   13    3   12     -0.95      0.00
   13    3   14      0.25      0.00
  -13    4   17     -0.69      0.00
  -13    4   15      0.69      0.00
  -13    4   13      0.00      0.00
  -13    4   11     -0.69      0.00
  -13    4    9      0.98      0.00
  -13    4    7      1.24      0.00
  -13    4    5      1.63      0.00
  -13    4    3     -1.64      0.00
  -13    4    1     -3.70      0.00
   13    4    1     -2.77      0.00
   13    4    3     -0.70      0.00
   13    4    5      4.89      0.00
   13    4    7      1.71      0.00
   13    4    9     -0.71      0.00
   13    4   11     -1.78      0.00
   13    4   13     -0.98      0.00
   13    4   15     -1.18      0.00
  -13    5   16     -0.93      0.00
  -13    5   14     -0.99      0.00
  -13    5   12      0.92      0.00
  -13    5   10      0.60      0.00
  -13    5    8     -0.42      0.00
  -13    5    6     -1.24      0.00
  -13    5    4     -0.47      0.00
  -13    5    2      0.77      0.00
   13    5    0      6.60      0.00
   13    5    2     -3.63      0.00
   13    5    4     -3.50      0.00
   13    5    6      0.79      0.00
   13    5    8      1.44      0.00
   13    5   10     -1.05      0.00
   13    5   12     -0.77      0.00
   13    5   14     -1.91      0.00
  -13    6   15     -0.03      0.00
  -13    6   13     -0.23      0.00
  -13    6   11      0.39      0.00
  -13    6    9     -0.60      0.00
  -13    6    7     -0.15      0.00
  -13    6    5      0.90      0.00
  -13    6    3      2.71      0.00
  -13    6    1      1.50      0.00
   13    6    1      2.74      0.00
   13    6    3      3.12      0.00
   13    6    5     -2.42      0.00
   13    6    7     -2.47      0.00
   13    6    9     -2.63      0.00
   13    6   11      0.76      0.00
   13    6   13      1.60      0.00
  -13    7   14      1.50      0.00
  -13    7   12     -1.24      0.00
  -13    7   10      1.07      0.00
  -13    7    8     -0.79      0.00
  -13    7    6     -1.32      0.00
  -13    7    4     -0.99      0.00
  -13    7    2      0.44      0.00
   13    7    0     -5.25      0.00
   13    7    2      0.47      0.00
   13    7    4      1.88      0.00
   13    7    6      0.77      0.00
   13    7    8     -1.39      0.00
   13    7   10     -0.82      0.00
   13    7   12      0.04      0.00
  -13    8   15      1.11      0.00
  -13    8   13     -0.58      0.00
  -13    8   11      0.91      0.00
  -13    8    9      1.29      0.00
  -13    8    7     -0.45      0.00
  -13    8    5      0.43      0.00
  -13    8    3      1.23      0.00
  -13    8    1      0.54      0.00
   13    8    1      2.87      0.00
   13    8    3      1.72      0.00
   13    8    5      0.54      0.00
   13    8    7      0.13      0.00
   13    8    9      0.93      0.00
   13    8   11     -1.05      0.00
  -13    9   12      0.10      0.00
  -13    9   10     -0.47      0.00
  -13    9    8     -0.77      0.00
  -13    9    6     -0.61      0.00
  -13    9    4     -0.40      0.00
  -13    9    2      1.22      0.00
   13    9    0     -0.59      0.00
   13    9    2     -1.69      0.00
   13    9    4      1.03      0.00
   13    9    6      0.51      0.00
   13    9    8     -0.32      0.00
   13    9   10     -0.66      0.00
  -13   10   11     -0.49      0.00
  -13   10    9      0.10      0.00
  -13   10    7      0.09      0.00
  -13   10    5     -1.31      0.00
  -13   10    3      1.11      0.00
  -13   10    1     -2.84      0.00
   13   10    1     -0.77      0.00
   13   10    3      2.45      0.00
   13   10    5      2.02      0.00
   13   10    7      1.79      0.00
   13   10    9      1.63      0.00
  -13   11   10     -1.61      0.00
  -13   11    8      2.23      0.00
  -13   11    6     -0.09      0.00
  -13   11    4      1.00      0.00
  -13   11    2     -1.33      0.00
   13   11    0     -0.57      0.00
   13   11    2      0.60      0.00
   13   11    4     -1.55      0.00
   13   11    6      0.50      0.00
   13   11    8     -0.70      0.00
  -13   12    7     -0.59      0.00
  -13   12    5      0.84      0.00
  -13   12    3     -0.92      0.00
  -13   12    1     -2.14      0.00
   13   12    1      0.50      0.00
   13   12    3     -2.79      0.00
   13   12    5      1.43      0.00
  -13   13    4     -1.18      0.00
  -13   13    2      1.74      0.00
   13   13    0     -1.48      0.00
  -14    0   16      3.00      0.00
  -14    0   14     -0.40      0.00
  -14    0   12     -0.66      0.00
  -14    0   10      0.85      0.00
  -14    0    8     -1.48      0.00
  -14    0    6     -1.28      0.00
  -14    0    4      0.43      0.00
  -14    0    2      2.65      0.00
   14    0    0     -2.54      0.00
   14    0    2     -0.91      0.00
   14    0    4      1.86      0.00
   14    0    6      2.85      0.00
   14    0    8     -3.56      0.00
   14    0   10     -2.11      0.00
   14    0   12      0.66      0.00
  -14    1   17     -2.74      0.00
  -14    1   15     -1.12      0.00
  -14    1   13      1.28      0.00
  -14    1   11     -0.51      0.00
  -14    1    9      0.15      0.00
  -14    1    7     -0.48      0.00
  -14    1    5      0.39      0.00
  -14    1    3     -1.01      0.00
  -14    1    1     -0.25      0.00
   14    1    1      1.87      0.00
   14    1    3      0.37      0.00
   14    1    5     -2.60      0.00
   14    1    7     -1.44      0.00
   14    1    9     -0.38      0.00
   14    1   11     -1.28      0.00
   14    1   13     -0.74      0.00
  -14    2   16     -2.50      0.00
  -14    2   14     -0.15      0.00
  -14    2   12      1.86      0.00
  -14    2   10      0.66      0.00
  -14    2    8     -2.52      0.00
  -14    2    6     -2.66      0.00
  -14    2    4      0.17      0.00
  -14    2    2     -1.27      0.00
   14    2    0     -2.43      0.00
   14    2    2      1.17      0.00
   14    2    4      4.92      0.00
   14    2    6     -1.64      0.00
   14    2    8     -2.15      0.00
   14    2   10     -0.89      0.00
   14    2   12      0.42      0.00
   14    2   14     -1.18      0.00
  -14    3   15      0.84      0.00
  -14    3   13     -1.55      0.00
  -14    3   11     -0.35      0.00
  -14    3    9      0.86      0.00
  -14    3    7     -0.17      0.00
  -14    3    5     -1.11      0.00
  -14    3    3     -2.48      0.00
  -14    3    1     -2.02      0.00
   14    3    1     -4.22      0.00
   14    3    3     -2.11      0.00
   14    3    5      2.08      0.00
   14    3    7      1.52      0.00
   14    3    9     -0.73      0.00
   14    3   11      0.04      0.00
   14    3   13     -0.90      0.00
  -14    4   16      1.07      0.00
  -14    4   14      1.17      0.00
  -14    4   12     -0.56      0.00
  -14    4   10      0.90      0.00
  -14    4    8     -1.26      0.00
  -14    4    6     -1.05      0.00
  -14    4    4     -1.95      0.00
  -14    4    2      1.02      0.00
   14    4    0     -1.21      0.00
   14    4    2      1.70      0.00
   14    4    4     -4.03      0.00
   14    4    6     -1.55      0.00
   14    4    8      1.87      0.00
   14    4   10      3.61      0.00
   14    4   12      1.01      0.00
  -14    5   15      1.73      0.00
  -14    5   13     -1.01      0.00
  -14    5   11     -1.26      0.00
  -14    5    9     -0.15      0.00
  -14    5    7     -0.17      0.00
  -14    5    5     -1.19      0.00
  -14    5    3     -1.25      0.00
  -14    5    1     -1.27      0.00
   14    5    1      0.44      0.00
   14    5    3     -0.33      0.00
   14    5    5      0.50      0.00
   14    5    7      0.77      0.00
   14    5    9      0.68      0.00
   14    5   11     -1.21      0.00
   14    5   13     -2.52      0.00
  -14    6   14      1.75      0.00
  -14    6   12     -0.27      0.00
  -14    6   10      1.28      0.00
  -14    6    8      0.07      0.00
  -14    6    6     -0.69      0.00
  -14    6    4     -0.86      0.00
  -14    6    2     -0.10      0.00
   14    6    0      4.51      0.00
   14    6    2     -1.48      0.00
   14    6    4     -3.62      0.00
   14    6    6     -0.58      0.00
   14    6    8      1.90      0.00
   14    6   10      0.25      0.00
   14    6   12     -1.76      0.00
  -14    7   13      1.20      0.00
  -14    7   11     -0.69      0.00
  -14    7    9      0.57      0.00
  -14    7    7     -0.07      0.00
  -14    7    5      0.16      0.00
  -14    7    3     -1.30      0.00
  -14    7    1      0.08      0.00
   14    7    1      1.28      0.00
   14    7    3      2.22      0.00
   14    7    5     -0.76      0.00
   14    7    7      0.80      0.00
   14    7    9     -1.51      0.00
   14    7   11     -0.49      0.00
  -14    8   12      0.46      0.00
  -14    8   10     -0.80      0.00
  -14    8    8      0.26      0.00
  -14    8    6      1.99      0.00
  -14    8    4      0.03      0.00
  -14    8    2      1.32      0.00
   14    8    0     -3.40      0.00
   14    8    2      1.01      0.00
   14    8    4      1.24      0.00
   14    8    6     -0.56      0.00
   14    8    8     -0.90      0.00
   14    8   10     -1.60      0.00
  -14    9   11     -0.25      0.00
  -14    9    9     -3.33      0.00
  -14    9    7      0.49      0.00
  -14    9    5     -1.49      0.00
  -14    9    3      0.89      0.00
  -14    9    1      0.65      0.00
   14    9    1     -0.32      0.00
   14    9    3     -1.11      0.00
   14    9    5      1.35      0.00
   14    9    7      1.59      0.00
   14    9    9     -1.40      0.00
  -14   10   10     -2.61      0.00
  -14   10    8      0.03      0.00
  -14   10    6      0.86      0.00
  -14   10    4      1.08      0.00
  -14   10    2     -0.79      0.00
   14   10    0      1.09      0.00
   14   10    2     -1.98      0.00
   14   10    4      1.20      0.00
   14   10    6     -0.39      0.00
  -14   11    7      0.04      0.00
  -14   11    5      1.63      0.00
  -14   11    3     -2.05      0.00
  -14   11    1     -0.05      0.00
   14   11    1      0.52      0.00
   14   11    3      1.09      0.00
   14   11    5     -1.20      0.00
  -14   12    4      0.59      0.00
  -14   12    2      1.25      0.00
   14   12    0      0.15      0.00
  -15    1   14     -0.07      0.00
  -15    1   12     -0.31      0.00
  -15    1   10      0.02      0.00
  -15    1    8      0.12      0.00
  -15    1    6      1.29      0.00
  -15    1    4     -0.36      0.00
  -15    1    2     -2.22      0.00
   15    1    0     -1.73      0.00
   15    1    2      2.42      0.00
   15    1    4      2.55      0.00
   15    1    6      0.89      0.00
   15    1    8     -2.70      0.00
   15    1   10     -1.34      0.00
   15    1   12     -2.03      0.00
  -15    2   15      1.63      0.00
  -15    2   13     -1.32      0.00
  -15    2   11     -0.87      0.00
  -15    2    9     -0.72      0.00
  -15    2    7     -0.17      0.00
  -15    2    5      0.14      0.00
  -15    2    3     -1.18      0.00
  -15    2    1     -1.71      0.00
   15    2    1      2.56      0.00
   15    2    3      0.19      0.00
   15    2    5     -0.16      0.00
   15    2    7      2.64      0.00
   15    2    9      1.18      0.00
   15    2   11     -1.87      0.00
  -15    3   14      4.79      0.00
  -15    3   12     -0.38      0.00
  -15    3   10      0.00      0.00
  -15    3    8      0.91      0.00
  -15    3    6      1.50      0.00
  -15    3    4     -0.60      0.00
  -15    3    2      1.66      0.00
   15    3    0     -0.76      0.00
   15    3    2     -0.26      0.00
   15    3    4      4.22      0.00
   15    3    6     -0.30      0.00
   15    3    8     -1.82      0.00
   15    3   10     -1.17      0.00
   15    3   12      1.93      0.00
  -15    4   13     -0.33      0.00
  -15    4   11     -1.75      0.00
  -15    4    9     -0.22      0.00
  -15    4    7      0.75      0.00
  -15    4    5      0.16      0.00
  -15    4    3      0.60      0.00
  -15    4    1      0.48      0.00
   15    4    1     -2.90      0.00
   15    4    3     -2.60      0.00
   15    4    5      1.22      0.00
   15    4    7     -0.39      0.00
   15    4    9     -1.04      0.00
   15    4   11     -1.88      0.00
  -15    5   14     -3.00      0.00
  -15    5   12     -0.19      0.00
  -15    5   10     -0.66      0.00
  -15    5    8     -1.08      0.00
  -15    5    6     -0.11      0.00
  -15    5    4      0.04      0.00
  -15    5    2     -1.74      0.00
   15    5    0      0.00      0.00
   15    5    2      1.59      0.00
   15    5    4     -0.45      0.00
   15    5    6      0.86      0.00
   15    5    8     -0.26      0.00
   15    5   10      2.77      0.00
  -15    6   13      0.47      0.00
  -15    6   11      0.97      0.00
  -15    6    9     -1.55      0.00
  -15    6    7     -0.38      0.00
  -15    6    5      1.23      0.00
  -15    6    3      1.13      0.00
  -15    6    1      1.69      0.00
   15    6    1      0.49      0.00
   15    6    3     -0.35      0.00
   15    6    5     -2.26      0.00
   15    6    7     -2.14      0.00
   15    6    9     -0.89      0.00
  -15    7   12     -1.19      0.00
  -15    7   10     -1.19      0.00
  -15    7    8     -2.19      0.00
  -15    7    6      1.13      0.00
  -15    7    4     -0.89      0.00
  -15    7    2      0.80      0.00
   15    7    0      0.88      0.00
   15    7    2      0.06      0.00
   15    7    4     -0.21      0.00
   15    7    6     -0.83      0.00
   15    7    8      0.49      0.00
  -15    8   11      0.21      0.00
  -15    8    9     -3.71      0.00
  -15    8    7      0.31      0.00
  -15    8    5     -0.72      0.00
  -15    8    3      1.55      0.00
  -15    8    1      0.35      0.00
   15    8    1      0.08      0.00
   15    8    3      3.14      0.00
   15    8    5     -1.03      0.00
   15    8    7     -0.42      0.00
  -15    9    8     -1.82      0.00
  -15    9    6     -1.44      0.00
  -15    9    4     -0.39      0.00
  -15    9    2     -1.16      0.00
   15    9    0     -1.55      0.00
   15    9    2      0.77      0.00
   15    9    4     -0.47      0.00
   15    9    6     -2.15      0.00
  -15   10    7     -0.32      0.00
  -15   10    5     -0.19      0.00
  -15   10    3     -0.34      0.00
  -15   10    1     -1.86      0.00
   15   10    1     -0.39      0.00
   15   10    3     -0.03      0.00
  -15   11    2      1.47      0.00
   15   11    0      1.30      0.00
  -16    0   14      3.69      0.00
  -16    0   12     -0.11      0.00
  -16    0   10      1.04      0.00
  -16    0    8     -0.15      0.00
  -16    0    6      2.05      0.00
  -16    0    4      0.35      0.00
  -16    0    2     -0.60      0.00
   16    0    0      3.35      0.00
   16    0    2     -2.30      0.00
   16    0    4     -2.43      0.00
   16    0    6      0.88      0.00
   16    0    8      1.17      0.00
   16    0   10      0.14      0.00
  -16    1   13      0.14      0.00
  -16    1   11     -1.58      0.00
  -16    1    9     -2.16      0.00
  -16    1    7     -0.53      0.00
  -16    1    5      1.50      0.00
  -16    1    3     -0.44      0.00
  -16    1    1     -1.33      0.00
   16    1    1      1.14      0.00
   16    1    3      0.90      0.00
   16    1    5     -1.57      0.00
   16    1    7     -2.57      0.00
   16    1    9      0.74      0.00
  -16    2   12      2.49      0.00
  -16    2   10      0.05      0.00
  -16    2    8      1.15      0.00
  -16    2    6      0.55      0.00
  -16    2    4     -1.28      0.00
  -16    2    2      1.33      0.00
   16    2    0     -0.56      0.00
   16    2    2      1.93      0.00
   16    2    4      1.12      0.00
   16    2    6     -0.40      0.00
   16    2    8     -0.20      0.00
   16    2   10     -2.67      0.00
  -16    3   13     -1.86      0.00
  -16    3   11     -0.39      0.00
  -16    3    9     -1.50      0.00
  -16    3    7      0.11      0.00
  -16    3    5     -0.13      0.00
  -16    3    3      0.75      0.00
  -16    3    1      0.50      0.00
   16    3    1     -0.75      0.00
   16    3    3      0.35      0.00
   16    3    5      1.41      0.00
   16    3    7      1.71      0.00
   16    3    9      1.04      0.00
  -16    4   12     -0.63      0.00
  -16    4   10      1.42      0.00
  -16    4    8     -1.20      0.00
  -16    4    6     -0.66      0.00
  -16    4    4      0.07      0.00
  -16    4    2     -0.86      0.00
   16    4    0     -0.38      0.00
   16    4    2     -0.73      0.00
   16    4    4      0.93      0.00
   16    4    6     -0.07      0.00
   16    4    8     -0.37      0.00
  -16    5   11      1.07      0.00
  -16    5    9     -1.56      0.00
  -16    5    7     -1.00      0.00
  -16    5    5      0.39      0.00
  -16    5    3      0.83      0.00
  -16    5    1     -1.40      0.00
   16    5    1     -0.58      0.00
   16    5    3     -1.75      0.00
   16    5    5      0.98      0.00
   16    5    7      0.23      0.00
   16    5    9     -0.14      0.00
  -16    6   10      1.57      0.00
  -16    6    8     -0.46      0.00
  -16    6    6      0.02      0.00
  -16    6    4     -1.52      0.00
  -16    6    2      2.29      0.00
   16    6    0      0.06      0.00
   16    6    2      1.91      0.00
   16    6    4     -0.26      0.00
   16    6    6      2.06      0.00
   16    6    8     -0.46      0.00
  -16    7    9     -1.02      0.00
  -16    7    7      0.55      0.00
  -16    7    5     -2.02      0.00
  -16    7    3     -1.29      0.00
  -16    7    1     -1.87      0.00
   16    7    1      0.82      0.00
   16    7    3     -2.84      0.00
   16    7    5     -2.38      0.00
  -16    8    8      3.38      0.00
  -16    8    6     -0.72      0.00
  -16    8    4     -0.06      0.00
  -16    8    2     -0.08      0.00
   16    8    0     -0.93      0.00
   16    8    2     -0.18      0.00
   16    8    4      2.74      0.00
  -16    9    5     -1.64      0.00
  -16    9    3      0.45      0.00
  -16    9    1     -1.25      0.00
   16    9    1     -1.26      0.00
   16    9    3      1.02      0.00
  -17    1   10     -0.39      0.00
  -17    1    8      0.45      0.00
  -17    1    6      0.31      0.00
  -17    1    4     -0.68      0.00
  -17    1    2     -0.11      0.00
   17    1    0      0.51      0.00
   17    1    2     -0.50      0.00
   17    1    4      0.07      0.00
   17    1    6      1.60      0.00
   17    1    8     -0.96      0.00
  -17    2   11      0.99      0.00
  -17    2    9     -0.11      0.00
  -17    2    7      1.11      0.00
  -17    2    5     -0.62      0.00
  -17    2    3      1.06      0.00
  -17    2    1      0.79      0.00
   17    2    1      2.64      0.00
   17    2    3      1.28      0.00
   17    2    5     -1.29      0.00
   17    2    7     -0.73      0.00
  -17    3   10      1.64      0.00
  -17    3    8     -0.74      0.00
  -17    3    6     -1.05      0.00
  -17    3    4      0.32      0.00
  -17    3    2      0.64      0.00
   17    3    0      0.68      0.00
   17    3    2      1.34      0.00
   17    3    4      0.52      0.00
   17    3    6     -1.63      0.00
  -17    4    9      1.16      0.00
  -17    4    7      0.33      0.00
  -17    4    5     -0.22      0.00
  -17    4    3      0.93      0.00
  -17    4    1     -0.27      0.00
   17    4    1     -1.34      0.00
   17    4    3     -0.46      0.00
   17    4    5      0.71      0.00
   17    4    7     -0.23      0.00
  -17    5    8      1.06      0.00
  -17    5    6      0.39      0.00
  -17    5    4     -1.53      0.00
  -17    5    2      0.11      0.00
   17    5    0      1.46      0.00
   17    5    2     -1.75      0.00
   17    5    4     -0.60      0.00
   17    5    6      1.26      0.00
  -17    6    7      1.65      0.00
  -17    6    5     -1.25      0.00
  -17    6    3     -1.50      0.00
  -17    6    1     -0.25      0.00
   17    6    1     -0.33      0.00
   17    6    3      1.32      0.00
   17    6    5      0.14      0.00
  -17    7    6      0.52      0.00
  -17    7    4      1.23      0.00
  -17    7    2     -1.62      0.00
   17    7    0     -0.66      0.00
   17    7    2      2.18      0.00
  -18    0    8      0.05      0.00
  -18    0    6      1.56      0.00
  -18    0    4     -0.40      0.00
  -18    0    2     -1.16      0.00
   18    0    0      2.15      0.00
   18    0    2     -0.02      0.00
   18    0    4     -0.97      0.00
  -18    1    7      1.07      0.00
  -18    1    5     -0.77      0.00
  -18    1    3      0.78      0.00
  -18    1    1      0.46      0.00
   18    1    1     -0.48      0.00
   18    1    3     -1.13      0.00
   18    1    5     -1.12      0.00
  -18    2    8      2.28      0.00
  -18    2    6      0.06      0.00
  -18    2    4     -0.63      0.00
  -18    2    2      1.06      0.00
   18    2    0     -0.75      0.00
   18    2    2     -0.65      0.00
   18    2    4      1.51      0.00
  -18    3    7      0.12      0.00
  -18    3    5     -0.33      0.00
  -18    3    3     -0.46      0.00
  -18    3    1     -0.28      0.00
   18    3    1      0.47      0.00
   18    3    3     -0.08      0.00
  -18    4    6      1.94      0.00
  -18    4    4      0.19      0.00
  -18    4    2     -1.07      0.00
   18    4    0      0.80      0.00
   18    4    2      1.96      0.00
  -18    5    5     -0.10      0.00
  -18    5    3     -0.40      0.00
  -18    5    1     -1.82      0.00
   18    5    1      0.14      0.00
   18    6    0      2.43      0.00
   18    8    0      0.68      0.00
   17    9    0     -1.75      0.00
   16   10    0     -0.68      0.00
   11   15    0     -0.35      0.00
   10   16    0     -1.45      0.00
    7   17    0      2.14      0.00
    9   17    0     -0.53      0.00
    4   18    0     -1.85      0.00
    6   18    0      0.55      0.00
    0    1    1    -20.82      0.00
  -18    7    1      0.14      0.00
   18    7    1      1.19      0.00
  -17    8    1      0.62      0.00
   17    8    1     -0.13      0.00
  -17   10    1     -0.15      0.00
   17   10    1     -0.95      0.00
  -16   11    1     -0.19      0.00
   16   11    1     -0.77      0.00
  -15   12    1     -1.54      0.00
   15   12    1      1.68      0.00
  -14   13    1      0.24      0.00
   14   13    1     -0.13      0.00
  -13   14    1      0.57      0.00
   13   14    1      0.69      0.00
  -12   15    1      0.26      0.00
   12   15    1     -0.27      0.00
  -11   16    1      1.49      0.00
    9   16    1      0.02      0.00
   11   16    1     -1.47      0.00
   -8   17    1      2.24      0.00
    8   17    1     -0.21      0.00
   -7   18    1     -0.52      0.00
   -5   18    1     -1.21      0.00
   -3   18    1      0.30      0.00
    3   18    1     -0.79      0.00
    5   18    1      1.81      0.00
    7   18    1     -1.10      0.00
  -18    6    2     -0.19      0.00
   18    6    2     -1.20      0.00
  -18    8    2      0.70      0.00
  -17    9    2     -0.19      0.00
   17    9    2     -0.26      0.00
  -16   10    2      1.25      0.00
   16   10    2      0.81      0.00
   15   11    2     -2.01      0.00
   14   12    2      0.17      0.00
   13   13    2      0.05      0.00
   12   14    2      2.47      0.00
  -11   15    2      0.98      0.00
   11   15    2     -0.17      0.00
  -10   16    2      1.24      0.00
   10   16    2     -1.96      0.00
   -9   17    2     -0.08      0.00
   -7   17    2     -1.08      0.00
    7   17    2      1.58      0.00
    9   17    2      0.18      0.00
   -6   18    2      0.05      0.00
   -4   18    2     -0.52      0.00
    4   18    2      0.31      0.00
    6   18    2     -1.28      0.00
   18    5    3     -1.19      0.00
  -18    7    3      2.05      0.00
   18    7    3      1.59      0.00
  -17    8    3      2.71      0.00
   17    8    3     -2.00      0.00
  -17   10    3     -0.08      0.00
  -16   11    3     -0.81      0.00
   16   11    3     -0.44      0.00
  -15   12    3     -0.34      0.00
   15   12    3      0.92      0.00
  -14   13    3     -0.27      0.00
   14   13    3     -1.57      0.00
  -13   14    3      0.86      0.00
   13   14    3     -0.52      0.00
  -12   15    3      0.95      0.00
   12   15    3      1.97      0.00
  -11   16    3      0.09      0.00
   -9   16    3      1.44      0.00
    9   16    3     -1.49      0.00
   -8   17    3      0.90      0.00
    8   17    3     -0.06      0.00
   -7   18    3     -0.47      0.00
   -5   18    3     -0.85      0.00
   -3   18    3      0.62      0.00
    3   18    3      0.51      0.00
    5   18    3      1.03      0.00
   18    4    4      0.86      0.00
  -18    6    4      2.36      0.00
   18    6    4     -0.44      0.00
   17    7    4     -1.20      0.00
  -18    8    4      0.63      0.00
  -17    9    4      1.61      0.00
   17    9    4      0.82      0.00
  -16   10    4      2.23      0.00
   16   10    4      0.66      0.00
  -15   11    4      2.32      0.00
   15   11    4      0.36      0.00
   14   12    4     -1.15      0.00
   13   13    4      0.66      0.00
  -12   14    4     -0.15      0.00
   12   14    4     -0.19      0.00
  -11   15    4      2.76      0.00
   11   15    4     -0.80      0.00
  -10   16    4      2.06      0.00
   10   16    4     -0.18      0.00
   -9   17    4      1.16      0.00
   -7   17    4     -0.83      0.00
    7   17    4     -0.47      0.00
   -6   18    4      0.27      0.00
   -4   18    4     -0.38      0.00
   -2   18    4      1.41      0.00
    0   18    4     -3.63      0.00
    2   18    4     -0.30      0.00
    4   18    4      1.81      0.00
    6   18    4     -1.64      0.00
   18    3    5     -0.66      0.00
   18    5    5      0.30      0.00
  -18    7    5      0.49      0.00
  -17    8    5      0.49      0.00
   17    8    5     -1.97      0.00
   16    9    5     -1.34      0.00
   15   10    5      2.73      0.00
  -16   11    5     -0.04      0.00
  -15   12    5     -1.75      0.00
  -14   13    5     -0.39      0.00
  -13   14    5      1.66      0.00
  -12   15    5     -0.36      0.00
   10   15    5     -0.64      0.00
   -9   16    5      0.69      0.00
    9   16    5     -1.01      0.00
   -8   17    5      0.02      0.00
   -6   17    5     -1.09      0.00
    6   17    5     -2.21      0.00
    8   17    5      1.72      0.00
   -5   18    5     -2.36      0.00
   -3   18    5      0.48      0.00
   -1   18    5     -0.97      0.00
    1   18    5     -0.47      0.00
    3   18    5      0.76      0.00
    5   18    5     -0.50      0.00
   18    0    6     -1.36      0.00
   18    2    6      2.32      0.00
   18    4    6     -2.11      0.00
  -18    6    6      0.82      0.00
   17    7    6      0.84      0.00
   16    8    6      1.96      0.00
  -17    9    6      0.10      0.00
  -16   10    6      1.04      0.00
   16   10    6     -1.11      0.00
  -15   11    6      0.61      0.00
   15   11    6     -0.04      0.00
  -14   12    6      0.69      0.00
   14   12    6     -0.59      0.00
  -13   13    6      1.80      0.00
   13   13    6     -0.09      0.00
  -12   14    6      0.68      0.00
   12   14    6      0.23      0.00
  -11   15    6      0.37      0.00
   11   15    6     -0.94      0.00
  -10   16    6     -0.90      0.00
    8   16    6      4.58      0.00
   -7   17    6     -3.47      0.00
    5   17    6     -2.90      0.00
    7   17    6     -1.02      0.00
   -4   18    6     -4.88      0.00
   -2   18    6      2.94      0.00
    0   18    6     -1.58      0.00
    2   18    6      0.88      0.00
    4   18    6      0.76      0.00
   18    1    7     -0.45      0.00
   18    3    7      0.31      0.00
  -18    5    7      0.30      0.00
   18    5    7     -0.76      0.00
   17    6    7     -0.99      0.00
  -18    7    7     -1.21      0.00
   16    7    7     -0.46      0.00
  -17    8    7      0.32      0.00
  -16    9    7      0.03      0.00
   16    9    7     -1.24      0.00
   15   10    7      2.33      0.00
   14   11    7      0.62      0.00
  -15   12    7     -0.37      0.00
   13   12    7     -1.77      0.00
  -14   13    7      0.38      0.00
   12   13    7      0.80      0.00
  -13   14    7      2.17      0.00
   11   14    7      1.47      0.00
  -10   15    7      3.71      0.00
   10   15    7     -2.59      0.00
   -9   16    7      1.46      0.00
    7   16    7      2.73      0.00
    9   16    7      0.24      0.00
   -8   17    7      2.23      0.00
   -6   17    7     -1.25      0.00
    4   17    7      0.15      0.00
    6   17    7     -1.41      0.00
   -5   18    7     -0.47      0.00
   -3   18    7     -1.60      0.00
   -1   18    7      1.62      0.00
    1   18    7     -0.74      0.00
    3   18    7     -0.70      0.00
   18    0    8      1.65      0.00
   18    2    8      0.33      0.00
   17    3    8     -0.05      0.00
  -18    4    8      2.15      0.00
   17    5    8      0.63      0.00
  -18    6    8      1.31      0.00
  -17    7    8      3.40      0.00
   16    8    8     -0.09      0.00
  -17    9    8     -0.58      0.00
   15    9    8     -1.02      0.00
  -16   10    8      3.59      0.00
   14   10    8      0.76      0.00
  -15   11    8      1.58      0.00
  -14   12    8     -1.72      0.00
  -13   13    8      0.23      0.00
  -12   14    8      0.22      0.00
   10   14    8      1.52      0.00
  -11   15    8     -1.08      0.00
    9   15    8     -2.67      0.00
   -8   16    8     -2.69      0.00
    6   16    8      2.18      0.00
    8   16    8      1.05      0.00
   -7   17    8     -0.63      0.00
   -5   17    8     -3.90      0.00
   -3   17    8      1.58      0.00
    3   17    8      0.20      0.00
    5   17    8     -0.32      0.00
   -2   18    8     -0.95      0.00
    0   18    8      2.65      0.00
    2   18    8     -1.34      0.00
  -18    1    9      0.57      0.00
   18    1    9     -1.72      0.00
   17    2    9      1.60      0.00
  -18    3    9      1.15      0.00
   17    4    9      1.55      0.00
  -18    5    9     -1.21      0.00
  -17    6    9     -0.24      0.00
   17    6    9      0.04      0.00
   16    7    9     -1.01      0.00
  -17    8    9      0.21      0.00
   15    8    9      0.20      0.00
  -16    9    9      2.43      0.00
  -15   10    9      1.97      0.00
  -14   11    9     -1.19      0.00
   14   11    9      0.96      0.00
  -13   12    9      0.24      0.00
   13   12    9     -0.48      0.00
  -12   13    9      1.33      0.00
   12   13    9      0.24      0.00
  -11   14    9      1.44      0.00
   11   14    9     -0.13      0.00
  -10   15    9      1.65      0.00
    8   15    9      1.46      0.00
   -9   16    9      0.80      0.00
   -7   16    9      0.48      0.00
    5   16    9      1.81      0.00
    7   16    9      0.23      0.00
   -6   17    9     -0.31      0.00
   -4   17    9      1.75      0.00
   -2   17    9      1.12      0.00
    0   17    9     -0.09      0.00
    2   17    9     -2.67      0.00
    4   17    9     -0.73      0.00
   -1   18    9      0.37      0.00
  -18    0   10      0.82      0.00
   17    1   10      1.10      0.00
  -18    2   10      1.95      0.00
   17    3   10     -2.06      0.00
  -18    4   10     -0.16      0.00
   16    4   10     -1.13      0.00
  -17    5   10      0.09      0.00
   16    6   10      0.41      0.00
  -17    7   10     -0.28      0.00
   15    7   10      2.36      0.00
  -16    8   10      1.18      0.00
  -15    9   10     -1.55      0.00
   15    9   10     -1.51      0.00
   14   10   10      0.46      0.00
  -15   11   10      0.73      0.00
   13   11   10     -1.12      0.00
  -14   12   10      0.05      0.00
   12   12   10      0.11      0.00
  -13   13   10     -0.61      0.00
   11   13   10      0.57      0.00
  -10   14   10     -1.34      0.00
   10   14   10     -1.10      0.00
   -9   15   10     -2.42      0.00
    7   15   10     -0.97      0.00
    9   15   10     -0.31      0.00
   -8   16   10     -1.54      0.00
   -6   16   10     -2.11      0.00
    4   16   10      0.27      0.00
    6   16   10      1.25      0.00
   -5   17   10     -1.83      0.00
   -3   17   10     -0.60      0.00
   -1   17   10     -0.11      0.00
    1   17   10     -0.86      0.00
    3   17   10     -0.33      0.00
  -18    1   11      0.63      0.00
   16    1   11      2.60      0.00
   17    2   11      1.61      0.00
  -18    3   11     -0.36      0.00
   16    3   11      0.77      0.00
  -17    4   11      0.29      0.00
   16    5   11     -1.58      0.00
  -17    6   11      0.26      0.00
   15    6   11     -1.12      0.00
  -16    7   11      0.21      0.00
   15    8   11     -0.08      0.00
  -16    9   11      0.52      0.00
   14    9   11     -1.65      0.00
  -15   10   11      0.18      0.00
   13   10   11      1.68      0.00
  -14   11   11     -0.61      0.00
   12   11   11      0.09      0.00
  -13   12   11     -0.54      0.00
   11   12   11     -2.17      0.00
  -12   13   11     -0.82      0.00
   10   13   11      2.72      0.00
  -11   14   11      0.25      0.00
    9   14   11      1.01      0.00
   -8   15   11      1.53      0.00
    6   15   11     -0.78      0.00
    8   15   11     -1.48      0.00
   -7   16   11      0.30      0.00
   -5   16   11      1.12      0.00
   -3   16   11      0.50      0.00
    3   16   11     -0.04      0.00
    5   16   11      1.64      0.00
   -4   17   11      0.02      0.00
   -2   17   11      0.03      0.00
    0   17   11      0.01      0.00
    2   17   11     -2.05      0.00
  -18    0   12     -0.03      0.00
   16    0   12      2.34      0.00
  -17    1   12      0.33      0.00
  -18    2   12      1.29      0.00
   16    2   12     -3.34      0.00
  -17    3   12     -1.37      0.00
   16    4   12     -0.22      0.00
  -17    5   12      0.88      0.00
   15    5   12      3.46      0.00
  -16    6   12      0.30      0.00
   15    7   12      0.82      0.00
  -16    8   12      0.63      0.00
   14    8   12     -0.99      0.00
  -15    9   12     -1.19      0.00
   13    9   12     -1.06      0.00
  -14   10   12     -0.91      0.00
   12   10   12     -0.63      0.00
  -13   11   12      0.02      0.00
   11   11   12      0.63      0.00
  -12   12   12      0.07      0.00
   10   12   12     -1.38      0.00
  -11   13   12     -1.77      0.00
    9   13   12     -1.48      0.00
  -10   14   12     -0.36      0.00
    8   14   12      0.93      0.00
   -7   15   12      0.49      0.00
    5   15   12      4.53      0.00
    7   15   12     -1.78      0.00
   -6   16   12     -2.68      0.00
   -4   16   12      1.63      0.00
   -2   16   12     -0.77      0.00
    0   16   12     -0.13      0.00
    2   16   12     -2.10      0.00
    4   16   12      0.59      0.00
   16    1   13     -0.15      0.00
  -17    2   13     -2.06      0.00
   15    2   13      1.17      0.00
  -17    4   13      0.80      0.00
   15    4   13     -0.07      0.00
  -16    5   13     -0.88      0.00
   15    6   13     -2.41      0.00
  -16    7   13      0.30      0.00
   14    7   13      0.85      0.00
  -15    8   13     -1.03      0.00
   13    8   13      0.45      0.00
  -14    9   13     -0.24      0.00
   12    9   13     -0.85      0.00
  -13   10   13      0.12      0.00
  -12   11   13      0.92      0.00
  -11   12   13      0.66      0.00
    9   12   13     -0.26      0.00
  -10   13   13     -1.14      0.00
    8   13   13     -0.16      0.00
   -9   14   13     -1.15      0.00
    7   14   13      0.01      0.00
   -8   15   13     -0.93      0.00
   -6   15   13      1.03      0.00
   -4   15   13      0.91      0.00
    2   15   13     -1.42      0.00
    4   15   13      0.16      0.00
    6   15   13     -0.11      0.00
   -5   16   13      1.28      0.00
   -3   16   13      0.65      0.00
   -1   16   13     -0.43      0.00
    1   16   13      1.04      0.00
    3   16   13      0.03      0.00
   14    0   14     -0.99      0.00
  -17    1   14     -1.27      0.00
   15    1   14     -1.05      0.00
  -16    2   14      4.26      0.00
  -17    3   14     -2.53      0.00
   15    3   14     -1.09      0.00
  -16    4   14     -5.01      0.00
   14    4   14      2.65      0.00
  -16    6   14      1.09      0.00
   14    6   14     -1.18      0.00
  -15    7   14     -2.17      0.00
   13    7   14     -0.43      0.00
  -14    8   14     -1.63      0.00
   12    8   14     -2.42      0.00
  -13    9   14     -2.74      0.00
   12   10   14      0.38      0.00
  -11   11   14     -1.38      0.00
   11   11   14      0.71      0.00
  -10   12   14      0.07      0.00
    8   12   14     -2.50      0.00
   10   12   14     -0.05      0.00
   -9   13   14     -1.00      0.00
    7   13   14     -0.55      0.00
   -8   14   14      0.27      0.00
   -6   14   14     -1.72      0.00
    4   14   14      2.19      0.00
    6   14   14     -0.65      0.00
   -5   15   14      1.09      0.00
   -3   15   14     -3.25      0.00
   -1   15   14      2.87      0.00
    1   15   14     -3.53      0.00
    3   15   14      0.03      0.00
    0   16   14      2.05      0.00
  -16    1   15      0.63      0.00
   14    1   15      1.71      0.00
  -16    3   15     -0.80      0.00
   14    3   15     -0.42      0.00
  -15    4   15      1.20      0.00
  -16    5   15     -1.04      0.00
   14    5   15     -0.15      0.00
  -15    6   15     -1.07      0.00
   13    6   15      0.15      0.00
  -14    7   15      1.23      0.00
   12    7   15     -0.67      0.00
  -14    9   15     -0.38      0.00
   12    9   15     -1.41      0.00
  -13   10   15     -2.06      0.00
   11   10   15     -0.64      0.00
  -12   11   15     -1.44      0.00
   10   11   15      0.93      0.00
  -11   12   15     -0.41      0.00
   -9   12   15      0.62      0.00
    7   12   15     -1.04      0.00
    9   12   15      1.63      0.00
   -8   13   15     -0.64      0.00
    6   13   15      0.85      0.00
   -7   14   15     -0.41      0.00
   -5   14   15      1.49      0.00
   -3   14   15      0.57      0.00
    1   14   15     -0.37      0.00
    3   14   15      1.03      0.00
    5   14   15      0.30      0.00
   -4   15   15     -0.08      0.00
   -2   15   15      0.04      0.00
    0   15   15     -0.34      0.00
    2   15   15     -0.81      0.00
  -16    0   16      2.69      0.00
   14    0   16     -0.12      0.00
  -15    1   16     -2.03      0.00
   13    1   16      0.23      0.00
  -16    2   16      3.90      0.00
   14    2   16      0.33      0.00
  -15    3   16      3.62      0.00
   13    3   16     -0.22      0.00
  -15    5   16     -0.97      0.00
   13    5   16     -1.46      0.00
  -14    6   16      1.31      0.00
   12    6   16      0.45      0.00
  -13    7   16      0.22      0.00
   11    7   16      1.20      0.00
  -14    8   16      0.29      0.00
  -13    9   16     -0.67      0.00
   11    9   16      0.01      0.00
  -12   10   16     -0.79      0.00
   10   10   16     -2.68      0.00
  -11   11   16      1.37      0.00
    7   11   16     -0.33      0.00
    9   11   16      3.79      0.00
  -10   12   16      1.60      0.00
   -8   12   16      0.83      0.00
    6   12   16     -2.49      0.00
    8   12   16     -2.57      0.00
   -7   13   16     -1.05      0.00
   -5   13   16      4.40      0.00
    3   13   16      4.05      0.00
    5   13   16      0.05      0.00
   -6   14   16     -1.98      0.00
   -4   14   16      2.07      0.00
   -2   14   16      1.96      0.00
    0   14   16     -0.91      0.00
    2   14   16     -1.74      0.00
    4   14   16      2.87      0.00
   12    1   17     -1.19      0.00
  -15    2   17      2.90      0.00
   13    2   17     -2.55      0.00
  -14    3   17     -0.09      0.00
   12    3   17      0.48      0.00
  -15    4   17     -0.76      0.00
   13    4   17     -0.11      0.00
  -14    5   17     -0.33      0.00
   12    5   17     -0.15      0.00
  -13    6   17     -1.13      0.00
   11    6   17      1.57      0.00
  -12    7   17     -0.81      0.00
   10    7   17     -0.99      0.00
  -13    8   17      0.93      0.00
   11    8   17     -0.76      0.00
  -12    9   17     -0.28      0.00
   10    9   17     -0.82      0.00
  -11   10   17     -0.68      0.00
    7   10   17      3.18      0.00
    9   10   17     -0.03      0.00
  -10   11   17      0.49      0.00
   -8   11   17      0.18      0.00
    6   11   17     -1.67      0.00
    8   11   17      1.18      0.00
   -9   12   17     -0.56      0.00
   -7   12   17      1.08      0.00
    5   12   17     -0.90      0.00
   -6   13   17     -1.46      0.00
   -4   13   17      1.04      0.00
   -2   13   17     -3.14      0.00
    0   13   17     -1.90      0.00
    2   13   17     -0.55      0.00
    4   13   17      0.90      0.00
   -3   14   17      1.57      0.00
   -1   14   17     -0.93      0.00
    1   14   17      0.31      0.00
  -14    0   18     -1.14      0.00
   12    0   18      4.03      0.00
  -15    1   18      0.38      0.00
  -14    2   18      2.22      0.00
   12    2   18     -1.92      0.00
   11    3   18     -3.43      0.00
  -14    4   18     -0.02      0.00
   12    4   18     -3.56      0.00
  -13    5   18      0.83      0.00
   11    5   18      2.78      0.00
  -12    6   18      1.55      0.00
   10    6   18      0.82      0.00
  -13    7   18     -1.66      0.00
  -11    7   18      3.04      0.00
    9    7   18      0.73      0.00
  -12    8   18     -2.12      0.00
    8    8   18      1.23      0.00
   10    8   18      0.35      0.00
  -11    9   18     -2.55      0.00
    7    9   18      0.45      0.00
    9    9   18      1.22      0.00
  -10   10   18      0.25      0.00
   -8   10   18     -3.05      0.00
    6   10   18     -0.39      0.00
    8   10   18     -0.43      0.00
   -9   11   18      1.51      0.00
   -7   11   18     -0.93      0.00
    5   11   18     -0.51      0.00
   -6   12   18     -1.02      0.00
   -4   12   18      2.39      0.00
   -2   12   18     -6.64      0.00
    0   12   18      4.35      0.00
    2   12   18     -3.53      0.00
    4   12   18      2.81      0.00
   -3   13   18      2.08      0.00
   -1   13   18     -3.72      0.00
    1   13   18      0.93      0.00
  -14    1   19      0.20      0.00
   10    1   19     -0.13      0.00
  -13    2   19      1.31      0.00
   11    2   19      0.23      0.00
   10    3   19     -2.80      0.00
  -13    4   19      2.53      0.00
   11    4   19     -1.85      0.00
  -12    5   19      2.22      0.00
   10    5   19      0.01      0.00
  -11    6   19     -0.67      0.00
    9    6   19      0.66      0.00
  -12    7   19      1.53      0.00
  -10    7   19      1.91      0.00
    8    7   19      2.59      0.00
  -11    8   19     -0.13      0.00
   -9    8   19      0.72      0.00
    7    8   19     -2.11      0.00
  -10    9   19     -0.86      0.00
   -8    9   19     -0.79      0.00
    6    9   19      1.17      0.00
   -9   10   19      0.20      0.00
   -7   10   19      0.52      0.00
    5   10   19     -1.65      0.00
   -6   11   19     -1.06      0.00
   -4   11   19     -0.42      0.00
   -2   11   19     -0.45      0.00
    0   11   19      1.50      0.00
    2   11   19      1.97      0.00
    4   11   19     -0.78      0.00
   -5   12   19     -1.04      0.00
   -3   12   19     -0.74      0.00
   -1   12   19     -1.47      0.00
    1   12   19      0.42      0.00
  -12    0   20     -2.54      0.00
   10    0   20     -2.12      0.00
  -13    1   20      1.08      0.00
    9    1   20      3.32      0.00
  -12    2   20      1.30      0.00
   10    2   20      1.32      0.00
  -13    3   20     -0.85      0.00
  -11    3   20     -2.74      0.00
    9    3   20     -0.79      0.00
  -12    4   20      1.94      0.00
    8    4   20     -2.60      0.00
   10    4   20     -0.10      0.00
  -11    5   20     -0.20      0.00
    9    5   20     -2.25      0.00
  -10    6   20     -2.66      0.00
    8    6   20      2.43      0.00
  -11    7   20      2.25      0.00
   -9    7   20      0.78      0.00
    7    7   20     -0.16      0.00
  -10    8   20      0.12      0.00
   -8    8   20      0.67      0.00
    6    8   20      1.96      0.00
   -9    9   20      0.08      0.00
   -7    9   20      2.08      0.00
    3    9   20     -1.99      0.00
    5    9   20      2.01      0.00
   -6   10   20      0.39      0.00
   -4   10   20      2.89      0.00
   -2   10   20     -4.81      0.00
    0   10   20      7.28      0.00
    2   10   20     -1.98      0.00
    4   10   20     -1.70      0.00
   -5   11   20     -0.84      0.00
   -3   11   20      1.19      0.00
   -1   11   20     -3.33      0.00
    1   11   20      1.89      0.00
  -12    1   21      0.43      0.00
    8    1   21     -0.98      0.00
  -11    2   21     -0.97      0.00
    9    2   21     -0.29      0.00
  -10    3   21     -3.53      0.00
    8    3   21      1.65      0.00
  -11    4   21      3.06      0.00
    7    4   21     -1.10      0.00
  -10    5   21     -0.63      0.00
    6    5   21      1.31      0.00
    8    5   21      0.01      0.00
   -9    6   21     -2.90      0.00
    5    6   21     -2.37      0.00
    7    6   21     -1.13      0.00
   -8    7   21      1.05      0.00
    4    7   21      1.69      0.00
    6    7   21     -0.31      0.00
   -7    8   21      1.83      0.00
   -5    8   21     -2.14      0.00
    3    8   21      0.87      0.00
    5    8   21      1.83      0.00
   -6    9   21      1.72      0.00
   -4    9   21     -0.64      0.00
   -2    9   21      0.41      0.00
    0    9   21     -0.53      0.00
    2    9   21     -1.37      0.00
    4    9   21     -0.59      0.00
   -5   10   21     -0.39      0.00
   -3   10   21     -0.23      0.00
   -1   10   21      0.24      0.00
    1   10   21      0.21      0.00
  -10    0   22      1.47      0.00
    6    0   22     -2.48      0.00
    8    0   22      0.25      0.00
  -11    1   22     -0.23      0.00
   -9    1   22      2.97      0.00
    7    1   22     -1.57      0.00
  -10    2   22     -1.73      0.00
    6    2   22      0.25      0.00
    8    2   22     -0.76      0.00
   -9    3   22     -1.24      0.00
    5    3   22      0.67      0.00
    7    3   22     -0.54      0.00
  -10    4   22     -0.45      0.00
   -8    4   22      0.66      0.00
    6    4   22      0.32      0.00
   -9    5   22     -1.35      0.00
   -7    5   22     -1.44      0.00
    5    5   22     -0.63      0.00
   -8    6   22      0.33      0.00
   -6    6   22     -2.43      0.00
    2    6   22     -0.98      0.00
    4    6   22      0.21      0.00
   -7    7   22      1.82      0.00
   -5    7   22     -2.56      0.00
   -3    7   22      3.31      0.00
   -1    7   22      0.89      0.00
    1    7   22      0.79      0.00
    3    7   22     -0.30      0.00
   -6    8   22      0.11      0.00
   -4    8   22     -2.41      0.00
   -2    8   22      0.46      0.00
    0    8   22      0.04      0.00
    2    8   22      0.40      0.00
   -3    9   22     -0.28      0.00
   -1    9   22      0.87      0.00
    1    9   22     -0.13      0.00
   -8    1   23      0.75      0.00
   -6    1   23      1.15      0.00
    4    1   23     -1.11      0.00
    6    1   23     -1.09      0.00
   -9    2   23     -0.46      0.00
   -7    2   23     -0.30      0.00
    3    2   23     -0.05      0.00
    5    2   23     -0.46      0.00
   -8    3   23      0.77      0.00
   -6    3   23      1.78      0.00
    2    3   23     -1.30      0.00
    4    3   23     -0.32      0.00
   -7    4   23     -0.30      0.00
   -5    4   23      0.68      0.00
    1    4   23      3.10      0.00
    3    4   23      0.50      0.00
    5    4   23     -0.91      0.00
   -6    5   23      1.10      0.00
   -4    5   23      0.17      0.00
   -2    5   23     -2.31      0.00
    0    5   23     -0.61      0.00
    2    5   23      0.52      0.00
    4    5   23      2.54      0.00
   -5    6   23      1.34      0.00
   -3    6   23      2.84      0.00
   -1    6   23     -0.48      0.00
    1    6   23      0.33      0.00
    3    6   23     -2.84      0.00
   -4    7   23     -0.55      0.00
   -2    7   23      0.99      0.00
    0    7   23      0.04      0.00
    2    7   23      1.82      0.00
    0    0    0      0.00      0.00
loop_
  _platon_squeeze_void_nr
  _platon_squeeze_void_average_x
  _platon_squeeze_void_average_y
  _platon_squeeze_void_average_z
  _platon_squeeze_void_volume
  _platon_squeeze_void_count_electrons
  _platon_squeeze_void_content
   1  0.002 -0.003  0.011      2322       627 ' '
loop_
  _platon_missing_refln_index_h
  _platon_missing_refln_index_k
  _platon_missing_refln_index_l
  _platon_missing_refln_theta
    0    1    1     3.778
_platon_squeeze_void_probe_radius                  1.20
_platon_squeeze_details

TITL s14adb4 in I2/a
CELL   15.3434   14.7669   19.2363     90.00     94.73     90.00
SPGR I2/a
C101 0.892 0.396 0.090 !       3.21 eA-3
C102 0.613 0.103 0.111 !       2.68 eA-3
C103 0.938 0.327 0.137 !       2.43 eA-3
C104 0.820 0.434 0.136 !       2.32 eA-3
C105 0.177 0.940 0.139 !       2.16 eA-3
C106 0.620 0.024 0.005 !       2.14 eA-3
C107 0.064 0.830 0.132 !       1.70 eA-3
C108 0.250 0.750 0.250 !       1.66 eA-3
C109 0.972 0.388 0.001 !       1.64 eA-3
C110 0.585 0.094 0.043 !       1.59 eA-3
C111 0.375 0.517 0.015 !       1.50 eA-3
Q112 0.015 0.893 0.013 !       1.06 eA-3
Q113 0.751 0.653 0.048 !       0.99 eA-3
C114 0.963 0.345 0.068 !       0.96 eA-3
Q115 0.250 0.260 0.204 !       0.88 eA-3
Q116 0.185 0.380 0.189 !       0.86 eA-3
Q117 0.764 0.840 0.045 !       0.84 eA-3
Q118 0.798 0.878 0.203 !       0.82 eA-3
Q119 0.831 0.796 0.046 !       0.81 eA-3
Q120 0.034 0.748 0.050 !       0.78 eA-3
Q121 0.246 0.249 0.063 !       0.77 eA-3
Q122 0.623 0.819 0.189 !       0.74 eA-3
Q123 0.613 0.510 0.250 !       0.73 eA-3
Q124 0.825 0.705 0.041 !       0.73 eA-3
Q125 0.873 0.700 0.198 !       0.73 eA-3
Q126 0.499 0.430 0.186 !       0.73 eA-3
C127 0.708 0.211 0.045 !       0.73 eA-3
Q128 0.761 0.743 0.140 !       0.70 eA-3
Q129 0.909 0.015 0.185 !       0.69 eA-3
Q130 0.670 0.711 0.031 !       0.69 eA-3
Q131 0.024 0.109 0.254 !       0.68 eA-3
C132 0.658 0.101 0.233 !       0.67 eA-3
C133 0.747 0.224 0.021 !       0.66 eA-3
C134 0.355 0.608 0.244 !       0.66 eA-3
C135 0.332 0.563 0.225 !       0.65 eA-3
Q136 0.775 0.716 0.168 !       0.62 eA-3
Q137 0.475 0.916 0.184 !       0.62 eA-3
C138 0.138 0.818 0.212 !       0.60 eA-3
Q139 0.216 0.304 0.170 !       0.57 eA-3
C140 0.731 0.197 0.077 !       0.57 eA-3
Q141 0.067 0.543 0.185 !       0.55 eA-3
C142 0.751 0.187 0.006 !       0.55 eA-3
Q143 0.523 0.921 0.125 !       0.55 eA-3
C144 0.312 0.681 0.021 !       0.55 eA-3
Q145 0.161 0.203 0.029 !       0.55 eA-3
C146 0.292 0.808 0.008 !       0.55 eA-3
C147 0.781 0.292 0.026 !       0.54 eA-3
C148 0.722 0.279 0.001 !       0.53 eA-3
;
_olex2_submission_special_instructions 'No special instructions were received'
loop_
_space_group_symop_operation_xyz
'x, y, z'
'-x+1/2, y, -z'
'x+1/2, y+1/2, z+1/2'
'-x+1, y+1/2, -z+1/2'
'-x, -y, -z'
'x-1/2, -y, z'
'-x+1/2, -y+1/2, -z+1/2'
'x, -y+1/2, z+1/2'
loop_
_atom_site_label
_atom_site_type_symbol
_atom_site_fract_x
_atom_site_fract_y
_atom_site_fract_z
_atom_site_U_iso_or_equiv
_atom_site_adp_type
_atom_site_occupancy
_atom_site_site_symmetry_order
_atom_site_calc_flag
_atom_site_refinement_flags_posn
_atom_site_refinement_flags_adp
_atom_site_refinement_flags_occupancy
_atom_site_disorder_assembly
_atom_site_disorder_group
Zn1 Zn 0.24269(2) 0.25080(2) 0.17309(2) 0.03529(17) Uani 1 1 d . . . . .
O1 O 0.12412(14) 0.19352(17) 0.18486(12) 0.0564(6) Uani 1 1 d . . . . .
O2 O 0.13746(15) 0.19414(18) 0.30077(12) 0.0604(7) Uani 1 1 d . . . . .
O3 O -0.18809(16) -0.12636(15) 0.31139(12) 0.0559(6) Uani 1 1 d . . . . .
O4 O -0.20325(17) -0.12697(16) 0.19577(12) 0.0592(6) Uani 1 1 d . . . . .
N1 N 0.24676(16) 0.25102(14) 0.06659(14) 0.0361(5) Uani 1 1 d . . . . .
N2 N -0.0072(7) 0.1020(7) 0.1191(4) 0.084(3) Uani 0.4 1 d D . P . .
N2A N -0.1029(6) 0.0123(7) 0.3749(4) 0.079(3) Uani 0.4 1 d D . P . .
N2B N 0.012(2) 0.133(2) 0.3666(12) 0.071(9) Uani 0.1 1 d D . P . .
C1 C 0.10030(18) 0.1708(2) 0.24306(15) 0.0430(6) Uani 1 1 d . . . . .
C2 C 0.02245(18) 0.11044(19) 0.24429(15) 0.0402(6) Uani 1 1 d . . . . .
C3 C -0.0074(2) 0.0862(2) 0.30810(16) 0.0500(7) Uani 1 1 d D . . . .
C4 C -0.0735(2) 0.0226(2) 0.31185(16) 0.0513(8) Uani 1 1 d D . . . .
C5 C -0.10947(19) -0.01839(19) 0.25091(15) 0.0402(6) Uani 1 1 d . . . . .
C6 C -0.0824(2) 0.0095(2) 0.18723(15) 0.0491(7) Uani 1 1 d . . . . .
H6 H -0.1093 -0.0160 0.1455 0.059 Uiso 1 1 calc R . . . .
C7 C -0.0176(2) 0.0732(2) 0.18319(15) 0.0515(8) Uani 1 1 d D . . . .
C8 C -0.17165(19) -0.0956(2) 0.25306(16) 0.0423(6) Uani 1 1 d . . . . .
C9 C 0.1913(7) 0.1785(7) 0.0345(4) 0.072(2) Uani 0.5 1 d . U P A 1
H9A H 0.1404 0.1643 0.0609 0.087 Uiso 0.5 1 calc R . P A 1
H9B H 0.2244 0.1227 0.0256 0.087 Uiso 0.5 1 calc R . P A 1
C10 C 0.3389(7) 0.2471(8) 0.0480(5) 0.080(3) Uani 0.5 1 d . U P A 1
H10A H 0.3780 0.2141 0.0828 0.096 Uiso 0.5 1 calc R . P A 1
H10B H 0.3634 0.3074 0.0384 0.096 Uiso 0.5 1 calc R . P A 1
C11 C 0.2138(8) 0.3379(6) 0.0337(4) 0.071(2) Uani 0.5 1 d . U P A 1
H11A H 0.2230 0.3904 0.0655 0.085 Uiso 0.5 1 calc R . P A 1
H11B H 0.1516 0.3343 0.0156 0.085 Uiso 0.5 1 calc R . P A 1
C9A C 0.1613(5) 0.2311(8) 0.0315(4) 0.067(2) Uani 0.5 1 d . U P A 2
H9AA H 0.1262 0.2868 0.0233 0.080 Uiso 0.5 1 calc R . P A 2
H9AB H 0.1286 0.1876 0.0586 0.080 Uiso 0.5 1 calc R . P A 2
C10A C 0.3112(6) 0.1837(6) 0.0465(3) 0.0620(19) Uani 0.5 1 d . U P A 2
H10C H 0.2847 0.1229 0.0394 0.074 Uiso 0.5 1 calc R . P A 2
H10D H 0.3623 0.1798 0.0813 0.074 Uiso 0.5 1 calc R . P A 2
C11A C 0.2747(7) 0.3395(6) 0.0434(4) 0.069(2) Uani 0.5 1 d . U P A 2
H11C H 0.3392 0.3440 0.0447 0.083 Uiso 0.5 1 calc R . P A 2
H11D H 0.2520 0.3891 0.0715 0.083 Uiso 0.5 1 calc R . P A 2
loop_
_atom_site_aniso_label
_atom_site_aniso_U_11
_atom_site_aniso_U_22
_atom_site_aniso_U_33
_atom_site_aniso_U_23
_atom_site_aniso_U_13
_atom_site_aniso_U_12
Zn1 0.0355(3) 0.0358(3) 0.0346(3) -0.00084(13) 0.00343(17) 0.00032(13)
O1 0.0453(12) 0.0712(16) 0.0516(13) 0.0205(11) -0.0035(10) -0.0161(11)
O2 0.0481(12) 0.0791(17) 0.0551(13) -0.0230(12) 0.0102(10) -0.0188(12)
O3 0.0709(15) 0.0451(12) 0.0550(13) -0.0051(10) 0.0244(11) -0.0163(11)
O4 0.0736(16) 0.0470(12) 0.0535(13) 0.0073(10) -0.0150(11) -0.0200(11)
N1 0.0375(13) 0.0357(13) 0.0352(12) -0.0008(8) 0.0045(10) 0.0009(8)
N2 0.098(7) 0.103(7) 0.049(4) 0.017(4) 0.000(4) -0.048(6)
N2A 0.104(7) 0.094(6) 0.041(4) -0.010(4) 0.022(4) -0.053(5)
N2B 0.08(2) 0.09(2) 0.048(16) -0.011(15) 0.016(15) -0.040(18)
C1 0.0380(14) 0.0428(15) 0.0481(16) -0.0011(12) 0.0025(12) -0.0008(11)
C2 0.0407(14) 0.0388(14) 0.0409(14) -0.0004(11) 0.0028(11) -0.0029(11)
C3 0.0533(17) 0.0588(19) 0.0387(15) -0.0095(13) 0.0082(13) -0.0108(14)
C4 0.0583(18) 0.0586(19) 0.0383(15) -0.0035(13) 0.0125(13) -0.0130(15)
C5 0.0417(14) 0.0391(14) 0.0399(14) 0.0007(11) 0.0025(11) -0.0024(11)
C6 0.0582(18) 0.0544(18) 0.0331(14) 0.0026(12) -0.0054(13) -0.0143(14)
C7 0.0599(19) 0.0575(19) 0.0367(15) 0.0048(13) 0.0022(13) -0.0129(15)
C8 0.0407(14) 0.0386(14) 0.0475(16) -0.0009(12) 0.0038(12) -0.0009(11)
C9 0.097(5) 0.070(4) 0.050(4) -0.009(4) 0.014(4) -0.033(4)
C10 0.059(4) 0.121(6) 0.059(4) -0.001(4) 0.006(4) -0.003(4)
C11 0.102(5) 0.059(4) 0.051(4) 0.001(3) 0.004(4) 0.022(4)
C9A 0.048(4) 0.104(5) 0.047(4) 0.013(4) 0.003(3) -0.002(4)
C10A 0.077(4) 0.071(4) 0.038(3) 0.004(3) 0.004(3) 0.043(4)
C11A 0.103(5) 0.057(4) 0.050(4) -0.002(3) 0.016(4) -0.019(4)
loop_
_atom_type_symbol
_atom_type_description
_atom_type_scat_dispersion_real
_atom_type_scat_dispersion_imag
_atom_type_scat_source
C C 0.0181 0.0091 'International Tables Vol C Tables 4.2.6.8 and 6.1.1.4'
H H 0.0000 0.0000 'International Tables Vol C Tables 4.2.6.8 and 6.1.1.4'
N N 0.0311 0.0180 'International Tables Vol C Tables 4.2.6.8 and 6.1.1.4'
O O 0.0492 0.0322 'International Tables Vol C Tables 4.2.6.8 and 6.1.1.4'
Zn Zn -1.5491 0.6778 'International Tables Vol C Tables 4.2.6.8 and 6.1.1.4'
loop_
_geom_angle_atom_site_label_1
_geom_angle_atom_site_label_2
_geom_angle_atom_site_label_3
_geom_angle
_geom_angle_site_symmetry_1
_geom_angle_site_symmetry_3
O1 Zn1 Zn1 83.10(7) . 7
O1 Zn1 O4 87.43(11) . 6_655
O1 Zn1 N1 102.27(9) . .
O2 Zn1 Zn1 76.27(7) 7 7
O2 Zn1 O1 159.37(10) 7 .
O2 Zn1 O4 87.82(11) 7 6_655
O2 Zn1 N1 98.32(10) 7 .
O3 Zn1 Zn1 81.82(7) 4_455 7
O3 Zn1 O1 88.37(10) 4_455 .
O3 Zn1 O2 88.97(11) 4_455 7
O3 Zn1 O4 159.17(10) 4_455 6_655
O3 Zn1 N1 101.07(9) 4_455 .
O4 Zn1 Zn1 77.42(7) 6_655 7
O4 Zn1 N1 99.76(9) 6_655 .
N1 Zn1 Zn1 173.90(7) . 7
C1 O1 Zn1 122.7(2) . .
C1 O2 Zn1 131.6(2) . 7
C8 O3 Zn1 124.8(2) . 4_445
C8 O4 Zn1 129.7(2) . 6
C9 N1 Zn1 110.7(4) . .
C9 N1 C10 113.5(6) . .
C9 N1 C11 106.4(6) . .
C10 N1 Zn1 110.3(4) . .
C10 N1 C11 103.1(6) . .
C11 N1 Zn1 112.6(3) . .
C9A N1 Zn1 111.2(4) . .
C9A N1 C10A 109.8(6) . .
C9A N1 C11A 108.5(6) . .
C10A N1 Zn1 109.7(3) . .
C11A N1 Zn1 109.9(3) . .
C11A N1 C10A 107.7(6) . .
O1 C1 O2 125.0(3) . .
O1 C1 C2 117.9(3) . .
O2 C1 C2 117.1(3) . .
C3 C2 C1 119.3(3) . .
C3 C2 C7 119.2(3) . .
C7 C2 C1 121.3(3) . .
N2B C3 C2 123.0(13) . .
N2B C3 C4 114.9(13) . .
C4 C3 C2 121.0(3) . .
N2A C4 C3 115.3(4) . .
N2A C4 C5 125.0(4) . .
C3 C4 C5 119.4(3) . .
C4 C5 C8 121.3(3) . .
C6 C5 C4 119.2(3) . .
C6 C5 C8 119.4(3) . .
C5 C6 H6 119.2 . .
C7 C6 C5 121.5(3) . .
C7 C6 H6 119.2 . .
N2 C7 C2 125.4(5) . .
N2 C7 C6 114.5(4) . .
C6 C7 C2 119.5(3) . .
O3 C8 O4 124.1(3) . .
O3 C8 C5 118.5(3) . .
O4 C8 C5 117.4(3) . .
N1 C9 H9A 113.1 . .
N1 C9 H9B 113.1 . .
N1 C9 C10 93.2(6) . 2
H9A C9 H9B 110.5 . .
C10 C9 H9A 113.1 2 .
C10 C9 H9B 113.1 2 .
N1 C10 C9 92.8(6) . 2
N1 C10 H10A 113.1 . .
N1 C10 H10B 113.1 . .
C9 C10 H10A 113.1 2 .
C9 C10 H10B 113.1 2 .
H10A C10 H10B 110.5 . .
N1 C11 C11 95.6(6) . 2
N1 C11 H11A 112.6 . .
N1 C11 H11B 112.6 . .
C11 C11 H11A 112.6 2 .
C11 C11 H11B 112.6 2 .
H11A C11 H11B 110.1 . .
N1 C9A H9AA 111.4 . .
N1 C9A H9AB 111.4 . .
N1 C9A C10A 102.0(6) . 2
H9AA C9A H9AB 109.2 . .
C10A C9A H9AA 111.4 2 .
C10A C9A H9AB 111.4 2 .
N1 C10A C9A 99.8(5) . 2
N1 C10A H10C 111.8 . .
N1 C10A H10D 111.8 . .
C9A C10A H10C 111.8 2 .
C9A C10A H10D 111.8 2 .
H10C C10A H10D 109.5 . .
N1 C11A C11A 100.0(5) . 2
N1 C11A H11C 111.8 . .
N1 C11A H11D 111.8 . .
C11A C11A H11C 111.8 2 .
C11A C11A H11D 111.8 2 .
H11C C11A H11D 109.5 . .
loop_
_geom_bond_atom_site_label_1
_geom_bond_atom_site_label_2
_geom_bond_distance
_geom_bond_site_symmetry_2
Zn1 Zn1 2.9492(7) 7
Zn1 O1 2.036(2) .
Zn1 O2 2.036(2) 7
Zn1 O3 2.030(2) 4_455
Zn1 O4 2.040(2) 6_655
Zn1 N1 2.055(3) .
O1 C1 1.252(4) .
O2 Zn1 2.036(2) 7
O2 C1 1.254(4) .
O3 Zn1 2.030(2) 4_445
O3 C8 1.255(4) .
O4 Zn1 2.040(2) 6
O4 C8 1.255(4) .
N1 C9 1.471(8) .
N1 C10 1.487(10) .
N1 C11 1.500(9) .
N1 C9A 1.454(9) .
N1 C10A 1.476(7) .
N1 C11A 1.457(8) .
N2 C7 1.327(7) .
N2A C4 1.338(7) .
N2B C3 1.331(17) .
C1 C2 1.492(4) .
C2 C3 1.392(4) .
C2 C7 1.393(4) .
C3 C4 1.389(4) .
C4 C5 1.392(4) .
C5 C6 1.388(4) .
C5 C8 1.490(4) .
C6 H6 0.9500 .
C6 C7 1.376(4) .
C9 H9A 0.9900 .
C9 H9B 0.9900 .
C9 C10 1.908(15) 2
C10 C9 1.908(15) 2
C10 H10A 0.9900 .
C10 H10B 0.9900 .
C11 C11 1.777(19) 2
C11 H11A 0.9900 .
C11 H11B 0.9900 .
C9A H9AA 0.9900 .
C9A H9AB 0.9900 .
C9A C10A 1.739(12) 2
C10A C9A 1.739(12) 2
C10A H10C 0.9900 .
C10A H10D 0.9900 .
C11A C11A 1.776(18) 2
C11A H11C 0.9900 .
C11A H11D 0.9900 .
loop_
_geom_torsion_atom_site_label_1
_geom_torsion_atom_site_label_2
_geom_torsion_atom_site_label_3
_geom_torsion_atom_site_label_4
_geom_torsion
_geom_torsion_site_symmetry_1
_geom_torsion_site_symmetry_4
Zn1 O1 C1 O2 13.3(5) . .
Zn1 O1 C1 C2 -165.8(2) . .
Zn1 O2 C1 O1 -15.1(5) 7 .
Zn1 O2 C1 C2 164.1(2) 7 .
Zn1 O3 C8 O4 16.1(5) 4_445 .
Zn1 O3 C8 C5 -162.6(2) 4_445 .
Zn1 O4 C8 O3 -20.0(5) 6 .
Zn1 O4 C8 C5 158.7(2) 6 .
Zn1 N1 C9 C10 147.2(4) . 2
Zn1 N1 C10 C9 147.1(4) . 2
Zn1 N1 C11 C11 146.1(5) . 2
Zn1 N1 C9A C10A -153.2(4) . 2
Zn1 N1 C10A C9A -153.9(4) . 2
Zn1 N1 C11A C11A -154.0(6) . 2
O1 C1 C2 C3 -178.1(3) . .
O1 C1 C2 C7 6.1(5) . .
O2 C1 C2 C3 2.7(4) . .
O2 C1 C2 C7 -173.1(3) . .
N2A C4 C5 C6 169.2(7) . .
N2A C4 C5 C8 -15.1(8) . .
N2B C3 C4 N2A -5(2) . .
N2B C3 C4 C5 169(2) . .
C1 C2 C3 N2B 20(2) . .
C1 C2 C3 C4 -173.0(3) . .
C1 C2 C7 N2 -17.2(8) . .
C1 C2 C7 C6 172.3(3) . .
C2 C3 C4 N2A -173.0(6) . .
C2 C3 C4 C5 0.9(5) . .
C3 C2 C7 N2 167.0(7) . .
C3 C2 C7 C6 -3.6(5) . .
C3 C4 C5 C6 -4.1(5) . .
C3 C4 C5 C8 171.6(3) . .
C4 C5 C6 C7 3.5(5) . .
C4 C5 C8 O3 -3.4(5) . .
C4 C5 C8 O4 177.9(3) . .
C5 C6 C7 N2 -171.1(6) . .
C5 C6 C7 C2 0.4(6) . .
C6 C5 C8 O3 172.4(3) . .
C6 C5 C8 O4 -6.4(4) . .
C7 C2 C3 N2B -164(2) . .
C7 C2 C3 C4 2.9(5) . .
C8 C5 C6 C7 -172.3(3) . .
C9 N1 C10 C9 22.2(7) . 2
C9 N1 C11 C11 -92.4(8) . 2
C9 N1 C9A C10A -56.9(8) . 2
C9 N1 C10A C9A 98.5(6) . 2
C9 N1 C11A C11A -2.5(13) . 2
C10 N1 C9 C10 -88.1(6) . 2
C10 N1 C11 C11 27.3(8) . 2
C10 N1 C9A C10A 6.4(11) . 2
C10 N1 C10A C9A -55.3(8) . 2
C10 N1 C11A C11A 101.0(8) . 2
C11 N1 C9 C10 24.6(7) . 2
C11 N1 C10 C9 -92.5(6) . 2
C11 N1 C9A C10A 98.4(6) . 2
C11 N1 C10A C9A -2.0(10) . 2
C11 N1 C11A C11A -52.5(8) . 2
C9A N1 C9 C10 49.3(8) . 2
C9A N1 C10 C9 -12.6(10) . 2
C9A N1 C11 C11 -107.2(7) . 2
C9A N1 C10A C9A 83.6(6) . 2
C9A N1 C11A C11A -32.3(9) . 2
C10A N1 C9 C10 -106.4(6) . 2
C10A N1 C10 C9 50.2(6) . 2
C10A N1 C11 C11 -5.1(12) . 2
C10A N1 C9A C10A -31.6(7) . 2
C10A N1 C11A C11A 86.6(8) . 2
C11A N1 C9 C10 -4.2(11) . 2
C11A N1 C10 C9 -108.5(6) . 2
C11A N1 C11 C11 52.7(8) . 2
C11A N1 C9A C10A 85.8(7) . 2
C11A N1 C10A C9A -34.3(7) . 2
