#------------------------------------------------------------------------------
#$Date: 2016-02-05 01:23:29 +0200 (Fri, 05 Feb 2016) $
#$Revision: 176029 $
#$URL: svn://www.crystallography.net/cod/cif/7/03/76/7037665.cif $
#------------------------------------------------------------------------------
#
# This file is available in the Crystallography Open Database (COD),
# http://www.crystallography.net/
#
# All data on this site have been placed in the public domain by the
# contributors.
#
data_7037665
loop_
_publ_author_name
'Lago, Ana Bel\'en'
'Pino-Cuevas, Arantxa'
'Carballo, Rosa'
'V\'azquez-L\'opez, Ezequiel M'
_publ_section_title
;
 A new metal-organic polymeric system capable of stimuli-responsive
 controlled release of the drug ibuprofen.
;
_journal_issue                   4
_journal_name_full
'Dalton transactions (Cambridge, England : 2003)'
_journal_page_first              1614
_journal_page_last               1621
_journal_paper_doi               10.1039/c5dt04031k
_journal_volume                  45
_journal_year                    2016
_chemical_absolute_configuration rm
_chemical_formula_sum            'C26 H34 O6 Zn'
_chemical_formula_weight         507.90
_chemical_name_systematic
; 
 ? 
;
_space_group_crystal_system      monoclinic
_space_group_IT_number           5
_space_group_name_Hall           'C 2y'
_space_group_name_H-M_alt        'C 1 2 1'
_symmetry_space_group_name_Hall  'C 2y'
_symmetry_space_group_name_H-M   'C 1 2 1'
_atom_sites_solution_hydrogens   geom
_audit_creation_method           SHELXL-2013
_audit_update_record
;
2015-09-07 deposited with the CCDC.
2015-12-11 downloaded from the CCDC.
;
_cell_angle_alpha                90
_cell_angle_beta                 93.764(3)
_cell_angle_gamma                90
_cell_formula_units_Z            2
_cell_length_a                   9.7324(9)
_cell_length_b                   5.9746(5)
_cell_length_c                   22.871(2)
_cell_measurement_reflns_used    7065
_cell_measurement_temperature    100(2)
_cell_measurement_theta_max      67.78
_cell_measurement_theta_min      3.87
_cell_volume                     1327.0(2)
_computing_cell_refinement       'Bruker SAINT'
_computing_data_collection       'Bruker APEX2'
_computing_data_reduction        'Bruker SAINT'
_computing_structure_refinement  'SHELXL-2013 (Sheldrick, 2013)'
_diffrn_ambient_temperature      100(2)
_diffrn_measured_fraction_theta_full 0.978
_diffrn_measured_fraction_theta_max 0.979
_diffrn_measurement_device_type  'Bruker CCD Smart 6000'
_diffrn_measurement_method       '\f and \w scans'
_diffrn_radiation_type           CuK\a
_diffrn_radiation_wavelength     1.54178
_diffrn_reflns_av_R_equivalents  0.0364
_diffrn_reflns_av_unetI/netI     0.0429
_diffrn_reflns_laue_measured_fraction_full 0.978
_diffrn_reflns_laue_measured_fraction_max 0.979
_diffrn_reflns_limit_h_max       11
_diffrn_reflns_limit_h_min       -11
_diffrn_reflns_limit_k_max       6
_diffrn_reflns_limit_k_min       -6
_diffrn_reflns_limit_l_max       25
_diffrn_reflns_limit_l_min       -27
_diffrn_reflns_number            7131
_diffrn_reflns_point_group_measured_fraction_full 0.979
_diffrn_reflns_point_group_measured_fraction_max 0.980
_diffrn_reflns_theta_full        67.679
_diffrn_reflns_theta_max         67.769
_diffrn_reflns_theta_min         1.936
_exptl_absorpt_coefficient_mu    1.579
_exptl_absorpt_correction_T_max  0.930
_exptl_absorpt_correction_T_min  0.768
_exptl_absorpt_correction_type   multi-scan
_exptl_absorpt_process_details   'SADABS V2012/1 (Bruker AXS Inc.)'
_exptl_crystal_colour            colourless
_exptl_crystal_density_diffrn    1.271
_exptl_crystal_density_method    'not measured'
_exptl_crystal_description       plate
_exptl_crystal_F_000             536
_exptl_crystal_size_max          0.167
_exptl_crystal_size_mid          0.153
_exptl_crystal_size_min          0.046
_refine_diff_density_max         2.679
_refine_diff_density_min         -0.701
_refine_diff_density_rms         0.140
_refine_ls_abs_structure_details
; 
 Refined as an inversion twin. 
;
_refine_ls_abs_structure_Flack   0.12(9)
_refine_ls_extinction_method     none
_refine_ls_goodness_of_fit_ref   1.067
_refine_ls_hydrogen_treatment    constr
_refine_ls_matrix_type           full
_refine_ls_number_parameters     154
_refine_ls_number_reflns         2240
_refine_ls_number_restraints     1
_refine_ls_restrained_S_all      1.066
_refine_ls_R_factor_all          0.0794
_refine_ls_R_factor_gt           0.0791
_refine_ls_shift/su_max          0.000
_refine_ls_shift/su_mean         0.000
_refine_ls_structure_factor_coef Fsqd
_refine_ls_weighting_details
'w=1/[\s^2^(Fo^2^)+(0.1556P)^2^+5.8301P] where P=(Fo^2^+2Fc^2^)/3'
_refine_ls_weighting_scheme      calc
_refine_ls_wR_factor_gt          0.2021
_refine_ls_wR_factor_ref         0.2040
_reflns_Friedel_coverage         0.814
_reflns_friedel_fraction_full    0.980
_reflns_friedel_fraction_max     0.980
_reflns_number_gt                2233
_reflns_number_total             2240
_reflns_threshold_expression     'I > 2\s(I)'
_cod_data_source_file            c5dt04031k2.cif
_cod_data_source_block           3
_cod_depositor_comments
'Adding full bibliography for 7037664--7037668.cif.'
_cod_database_code               7037665
_shelx_space_group_comment
; 
The symmetry employed for this shelxl refinement is uniquely defined 
by the following loop, which should always be used as a source of 
symmetry information in preference to the above space-group names. 
They are only intended as comments. 
;
_shelx_estimated_absorpt_t_min   0.778
_shelx_estimated_absorpt_t_max   0.931
_shelxl_version_number           2013-3
_shelx_res_file
; 
TITL ev141090_6b_0m in C2 
CELL 1.54178   9.73240   5.97460  22.87140  90.0000  93.7641  90.0000 
ZERR    2.00   0.00090   0.00050   0.00210   0.0000   0.0027   0.0000 
LATT -7 
SYMM -X, Y, -Z 
SFAC C  H  O  Zn 
UNIT 52 68 12 2 
L.S. 10 
BOND 
FMAP 2 
PLAN -10 
SIZE 0.046 0.153 0.167 
TEMP -173.150 
TWIN 
ACTA 
WGHT    0.155600    5.830101 
BASF   0.11560 
FVAR       0.13855 
MOLE 1 
ZN1   4    0.000000    0.594800    0.500000    10.50000    0.01361    0.01397 = 
         0.02872    0.00000    0.00210    0.00000 
C2    1    0.007042    0.683704    0.705196    11.00000    0.02813    0.03463 = 
         0.02575   -0.00206    0.00291    0.00305 
AFIX  43 
H2    2   -0.063145    0.622654    0.679094    11.00000   -1.20000 
AFIX   0 
C1    1    0.058646    0.898801    0.694751    11.00000    0.02773    0.02529 = 
         0.02903   -0.00275    0.00288    0.00660 
C3    1    0.058012    0.558223    0.753717    11.00000    0.04061    0.02381 = 
         0.03121    0.00099    0.00598   -0.00220 
AFIX  43 
H3    2    0.022398    0.412466    0.759569    11.00000   -1.20000 
AFIX   0 
C6    1    0.160838    0.984421    0.734743    11.00000    0.03794    0.03221 = 
         0.02575   -0.00450    0.00367   -0.00192 
AFIX  43 
H6    2    0.197615    1.129250    0.728692    11.00000   -1.20000 
AFIX   0 
C5    1    0.208936    0.859220    0.783238    11.00000    0.03473    0.03899 = 
         0.03215   -0.00852   -0.00320    0.00189 
AFIX  43 
H5    2    0.276913    0.921496    0.810187    11.00000   -1.20000 
AFIX   0 
C4    1    0.158714    0.641490    0.793181    11.00000    0.03786    0.03784 = 
         0.03033   -0.00131    0.00516    0.00361 
C7    1    0.213637    0.506272    0.845367    11.00000    0.05207    0.05271 = 
         0.03041   -0.00026   -0.00440    0.00724 
AFIX  23 
H7A   2    0.288388    0.592009    0.866550    11.00000   -1.20000 
H7B   2    0.254183    0.366093    0.831127    11.00000   -1.20000 
AFIX   0 
C9    1    0.037295    0.627856    0.911951    11.00000    0.17276    0.30198 = 
         0.06634    0.08129    0.06342    0.18222 
AFIX 137 
H9A   2   -0.029018    0.690526    0.882257    11.00000   -1.50000 
H9B   2    0.103974    0.743412    0.924912    11.00000   -1.50000 
H9C   2   -0.011542    0.575555    0.945506    11.00000   -1.50000 
AFIX   0 
C8    1    0.106759    0.447382    0.887844    11.00000    0.07354    0.17579 = 
         0.05071    0.04127    0.00132    0.01381 
AFIX  13 
H8    2    0.034996    0.356948    0.865221    11.00000   -1.20000 
AFIX   0 
C10   1    0.167073    0.294837    0.937295    11.00000    0.11106    0.18617 = 
         0.06597    0.06482    0.00721    0.00355 
AFIX 137 
H10A  2    0.098276    0.271847    0.966139    11.00000   -1.50000 
H10B  2    0.249154    0.365344    0.956382    11.00000   -1.50000 
H10C  2    0.192205    0.150155    0.920860    11.00000   -1.50000 
AFIX   0 
O1    3    0.159135    0.391223    0.511135    11.00000    0.01646    0.02607 = 
         0.04462    0.00869    0.00644    0.00748 
O3    3   -0.036302    0.744135    0.572867    11.00000    0.02859    0.02643 = 
         0.02331   -0.00289    0.00573   -0.00482 
O4    3    0.130374    0.985486    0.555874    11.00000    0.01788    0.02421 = 
         0.03368    0.00260    0.00397    0.00059 
C13   1   -0.151255    1.082624    0.643478    11.00000    0.03282    0.03632 = 
         0.03333   -0.00245    0.00567    0.01505 
AFIX 137 
H13A  2   -0.171946    1.141413    0.681924    11.00000   -1.50000 
H13B  2   -0.202054    0.942878    0.635886    11.00000   -1.50000 
H13C  2   -0.178809    1.192425    0.613104    11.00000   -1.50000 
AFIX   0 
C12   1    0.036235    0.915460    0.585447    11.00000    0.02114    0.01781 = 
         0.02883    0.00026    0.00497    0.00273 
C11   1    0.004821    1.037169    0.642718    11.00000    0.02956    0.02103 = 
         0.02989   -0.00258    0.00158    0.00160 
AFIX  13 
H11   2    0.054146    1.184092    0.643977    11.00000   -1.20000 
AFIX   0 
HKLF 4 
  
REM  ev141090_6b_0m in C2 
REM R1 =  0.0791 for    2233 Fo > 4sig(Fo)  and  0.0794 for all    2240 data 
REM    154 parameters refined using      1 restraints 
  
END 
  
WGHT      0.1559      5.8128 
  
REM Highest difference peak  2.679,  deepest hole -0.701,  1-sigma level  0.140 
Q1    1  -0.0026  0.5957  0.4552  11.00000  0.05    2.68 
Q2    1   0.0750  0.5896  0.5022  11.00000  0.05    0.71 
Q3    1   0.1799  0.5872  0.9046  11.00000  0.05    0.71 
Q4    1   0.0617  0.7532  0.4665  11.00000  0.05    0.69 
Q5    1  -0.0117  0.6251  0.6607  11.00000  0.05    0.60 
Q6    1  -0.1616  0.3803  0.4486  11.00000  0.05    0.55 
Q7    1   0.0612  0.4122  0.5048  11.00000  0.05    0.53 
Q8    1   0.2494  0.4428  0.9510  11.00000  0.05    0.50 
Q9    1   0.2447  0.3630  0.5010  11.00000  0.05    0.49 
Q10   1   0.1598  0.3691  0.4706  11.00000  0.05    0.49 
;
_shelx_res_checksum              2242
_shelx_hkl_file
; 
  -2   0   0  226.99   13.78 
   2   0   0  241.82   13.79 
   4   0   0   54.91    3.37 
  -6   0   0  167.85    7.63 
   6   0   0  150.10    8.69 
   6   0   0  151.95    9.30 
  -8   0   0   22.58    1.00 
  -8   0   0   18.49    1.03 
  -8   0   0   22.37    1.08 
 -10   0   0    1.77    0.18 
 -10   0   0    1.41    0.17 
 -10   0   0    1.20    0.16 
   1  -1   0  253.99   14.93 
   1   1   0  237.31   15.68 
  -1   1   0  259.74   15.68 
   1   1   0  303.97   15.68 
   3  -1   0  255.86   15.08 
   3   1   0  247.52   14.59 
  -5  -1   0   53.45    2.71 
   5  -1   0   57.32    3.45 
   5   1   0   52.45    3.45 
   5   1   0   63.74    3.61 
  -7  -1   0    7.30    0.36 
  -7  -1   0    5.90    0.37 
  -7   1   0    6.45    0.36 
  -7   1   0    6.39    0.34 
  -7   1   0    6.76    0.33 
   7   1   0    5.41    0.37 
  -7   1   0    5.14    0.32 
   7   1   0    5.44    0.39 
  -9  -1   0    9.41    0.49 
  -9  -1   0    9.54    0.51 
  -9  -1   0    9.50    0.53 
  -9   1   0    9.06    0.47 
  -9   1   0    8.11    0.44 
   9   1   0    8.47    0.54 
 -11  -1   0    9.51    0.47 
 -11  -1   0    9.41    0.48 
 -11   1   0    7.90    0.41 
   0  -2   0  154.59    9.10 
   2  -2   0  128.33    7.61 
   2   2   0  120.91    7.18 
   4  -2   0   52.52    3.27 
  -4  -2   0   53.32    2.60 
   4   2   0   52.55    3.02 
  -4   2   0   44.39    2.90 
   6  -2   0   38.09    2.00 
  -6  -2   0   35.65    1.74 
   6  -2   0   39.02    1.64 
  -6  -2   0   40.60    1.91 
  -6   2   0   29.24    1.33 
   6   2   0   30.81    1.70 
   6   2   0   33.49    1.82 
  -6   2   0   27.86    1.45 
  -8  -2   0   32.44    1.48 
  -8  -2   0   31.67    1.54 
  -8  -2   0   31.69    1.61 
  -8   2   0   25.03    1.14 
   8   2   0   26.74    1.46 
   8   2   0   25.74    1.56 
  -8   2   0   25.08    1.25 
 -10  -2   0   14.46    0.76 
 -10  -2   0   14.15    0.70 
  10   2   0   10.50    0.65 
 -10   2   0   11.33    0.56 
   1  -3   0   77.09    4.62 
   1   3   0   56.87    3.45 
  -3  -3   0   41.75    2.06 
  -3   3   0   49.55    2.97 
   5  -3   0   14.60    0.76 
   5  -3   0   15.02    0.82 
   5  -3   0   14.80    0.66 
   5  -3   0   13.40    0.78 
  -5  -3   0   17.42    0.79 
   5  -3   0   14.39    0.73 
  -5  -3   0   16.04    0.73 
  -5   3   0   15.26    0.91 
  -5   3   0   16.57    0.98 
  -5   3   0   14.58    0.76 
  -7  -3   0   41.86    2.03 
   7  -3   0   39.52    2.12 
  -7  -3   0   40.17    1.86 
   7   3   0   36.57    2.13 
   7   3   0   34.61    1.99 
  -7   3   0   35.85    1.57 
  -7   3   0   35.06    1.70 
  -9  -3   0   14.39    0.76 
  -9  -3   0   13.85    0.70 
   9   3   0    9.34    0.57 
  -9   3   0    8.92    0.47 
  -9   3   0   11.00    0.51 
   9   3   0    9.37    0.61 
   2  -4   0    8.09    0.42 
   2  -4   0    7.80    0.43 
   2  -4   0    7.88    0.46 
   2  -4   0    7.48    0.40 
   2  -4   0    8.42    0.37 
   4  -4   0   18.22    0.90 
  -4  -4   0   19.76    0.94 
   4  -4   0   17.94    0.79 
   4  -4   0   17.44    0.97 
   4  -4   0   17.39    0.92 
   4  -4   0   16.70    0.86 
  -4   4   0   20.40    1.22 
  -4   4   0   18.16    1.12 
   6  -4   0   10.44    0.57 
   6  -4   0    9.95    0.55 
   6  -4   0   11.92    0.54 
   6  -4   0   10.47    0.48 
  -6   4   0   15.96    0.95 
  -6   4   0   14.99    1.02 
  -6   4   0   16.79    0.75 
  -6   4   0   15.35    0.79 
  -8  -4   0    6.63    0.42 
  -8  -4   0    6.83    0.41 
   8   4   0    4.32    0.31 
  -8   4   0    4.49    0.28 
  -8   4   0    4.86    0.27 
   8   4   0    4.77    0.30 
   1  -5   0   18.01    0.86 
   1  -5   0   17.70    0.83 
   1  -5   0   18.56    0.89 
  -1  -5   0   15.23    0.88 
  -1  -5   0   15.59    0.83 
   3  -5   0    2.08    0.22 
   3  -5   0    1.75    0.16 
   3  -5   0    1.94    0.14 
   3  -5   0    1.78    0.16 
   3  -5   0    1.74    0.13 
  -3   5   0    1.85    0.25 
   5  -5   0    6.33    0.36 
   5  -5   0    6.32    0.34 
   5  -5   0    6.56    0.30 
   5  -5   0    6.27    0.34 
   5  -5   0    6.39    0.41 
  -5   5   0    5.46    0.40 
  -5   5   0    5.46    0.42 
  -5   5   0    4.98    0.32 
   7  -5   0   18.17    0.86 
   7  -5   0   17.92    0.89 
   7  -5   0   17.60    0.96 
  -7   5   0   16.11    0.74 
   0  -6   0   15.28    0.80 
   0  -6   0   15.59    0.76 
   2  -6   0   22.12    1.08 
   2  -6   0   20.50    1.21 
   2  -6   0   23.36    1.15 
   2  -6   0   23.61    1.12 
   4  -6   0   10.11    0.45 
   4  -6   0    9.72    0.52 
   4  -6   0   10.61    0.54 
  -4   6   0   11.14    0.53 
  -4   6   0   10.70    0.68 
   6  -6   0    4.33    0.22 
   6  -6   0    3.75    0.22 
  -6   6   0    4.38    0.24 
 -10   0   1    2.87    0.22 
 -10   0   1    2.76    0.22 
 -10   0   1    2.29    0.20 
  -8   0   1   32.33    1.65 
  -8   0   1   36.25    1.73 
  -8   0   1   34.99    1.59 
   6   0  -1  135.94    7.60 
  -6   0   1  135.27    6.67 
   6   0  -1  139.41    8.13 
   4   0  -1   25.12    1.62 
   2   0  -1 1000.00   56.95 
  -2   0   1  941.42   56.93 
   0   0   1  157.68    9.59 
   4   0   1   33.19    2.09 
   6   0   1   51.24    2.93 
   6   0   1   53.85    3.14 
  -8   0  -1   20.29    1.00 
  -8   0  -1   18.45    0.96 
  -8   0  -1   19.61    0.92 
 -10   0  -1    0.90    0.16 
 -11  -1   1    7.30    0.39 
 -11  -1   1    7.57    0.39 
 -11   1   1    6.49    0.35 
  -9  -1   1    6.56    0.38 
   9  -1  -1    6.11    0.39 
  -9  -1   1    6.58    0.40 
  -9  -1   1    6.73    0.37 
   9   1  -1    6.06    0.43 
  -9   1   1    6.62    0.36 
  -9   1   1    6.74    0.38 
   7  -1  -1   12.74    0.72 
  -7  -1   1   13.92    0.70 
  -7  -1   1   13.67    0.64 
  -7  -1   1   12.35    0.67 
  -7   1   1   10.92    0.57 
   7   1  -1   12.29    1.46 
   7   1  -1   11.93    0.71 
  -7   1   1   13.16    0.60 
  -7   1   1   12.90    0.64 
  -7   1   1   12.23    0.62 
  -5  -1   1   32.04    1.64 
   5  -1  -1   34.16    2.14 
   5   1  -1   27.50    1.77 
   5   1  -1   32.02    1.95 
   3  -1  -1  127.67    7.58 
   3   1  -1  118.98    7.07 
  -1  -1   1  177.18   10.95 
   1  -1  -1  195.59   10.96 
  -1   1   1  189.48   11.22 
   1   1  -1  184.75   11.21 
   1   1  -1  198.19   11.20 
   1  -1   1   72.73    4.30 
  -1   1  -1   56.29    3.16 
   1   1   1   47.20    3.17 
   1   1   1   55.90    3.16 
   3  -1   1  153.13    9.07 
   3   1   1  116.63    6.94 
   5  -1   1   49.12    2.96 
  -5  -1  -1   45.06    2.31 
   5   1   1   39.97    2.50 
   5   1   1   43.88    2.67 
  -7  -1  -1    9.11    0.47 
  -7  -1  -1    9.76    0.51 
  -7  -1  -1    9.03    0.49 
   7  -1   1    9.26    0.52 
   7   1   1    8.51    0.51 
   7   1   1    8.50    0.54 
  -7   1  -1    7.95    0.42 
  -7   1  -1    9.20    0.46 
  -9  -1  -1    7.85    0.44 
  -9  -1  -1    7.79    0.46 
  -9  -1  -1    8.33    0.43 
  -9   1  -1    8.51    0.45 
   9   1   1    7.67    0.51 
 -11  -1  -1   11.64    0.58 
 -11  -1  -1   11.61    0.57 
 -11   1  -1   10.89    0.54 
 -10  -2   1   18.56    0.97 
 -10  -2   1   18.74    0.89 
 -10   2   1   14.67    0.69 
  10   2  -1   12.65    0.80 
  -8  -2   1   34.98    1.72 
  -8  -2   1   33.21    1.57 
   8  -2  -1   34.03    1.80 
  -8  -2   1   34.33    1.64 
  -8   2   1   26.74    1.19 
   8   2  -1   27.07    1.51 
  -8   2   1   26.21    1.29 
   8   2  -1   26.72    1.62 
  -6  -2   1   24.92    1.22 
   6  -2  -1   27.71    1.15 
  -6  -2   1   28.23    1.34 
   6  -2  -1   25.60    1.40 
  -6   2   1   18.63    0.88 
   6   2  -1   21.47    1.18 
   6   2  -1   19.27    1.10 
  -6   2   1   18.88    0.96 
  -4  -2   1   47.56    2.28 
   4  -2  -1   44.69    2.87 
   4   2  -1   43.02    2.69 
  -4   2   1   43.15    2.59 
   2  -2  -1   46.60    2.83 
   2   2  -1   45.51    2.76 
   0  -2   1   52.86    3.14 
   0   2  -1   45.97    2.75 
   2  -2   1  106.90    6.35 
   2   2   1   81.51    4.88 
  -4  -2  -1   47.62    2.53 
   4  -2   1   55.44    3.19 
  -4   2  -1   48.46    2.91 
   4   2   1   48.67    3.03 
   6  -2   1   18.51    0.90 
  -6  -2  -1   19.43    1.00 
  -6  -2  -1   23.39    1.06 
   6  -2   1   20.09    1.10 
  -6  -2  -1   22.23    0.97 
  -6   2  -1   18.02    0.90 
   6   2   1   18.41    1.11 
   6   2   1   17.94    1.04 
  -6   2  -1   19.32    0.84 
  -8  -2  -1   20.47    1.04 
  -8  -2  -1   21.02    0.96 
  -8  -2  -1   19.29    1.00 
  -8   2  -1   16.96    0.79 
   8   2   1   16.98    1.05 
   8   2   1   16.47    0.98 
  -8   2  -1   18.02    0.86 
 -10  -2  -1   17.77    0.90 
 -10  -2  -1   18.33    0.94 
 -10  -2  -1   18.49    0.87 
  10   2   1   15.66    0.95 
 -10   2  -1   17.30    0.81 
  -9  -3   1   35.07    1.64 
  -9  -3   1   34.09    1.51 
   9  -3  -1   28.45    1.70 
   9   3  -1   25.28    1.55 
   9   3  -1   24.40    1.45 
  -9   3   1   25.66    1.14 
  -9   3   1   27.31    1.24 
   7  -3  -1   28.94    1.32 
  -7  -3   1   31.87    1.42 
   7  -3  -1   29.48    1.61 
  -7  -3   1   32.04    1.55 
   7   3  -1   23.95    1.46 
   7   3  -1   25.84    1.57 
  -7   3   1   26.26    1.26 
  -7   3   1   27.77    1.17 
   5  -3  -1   16.30    0.87 
   5  -3  -1   17.33    0.77 
   5  -3  -1   15.69    0.89 
  -5  -3   1   19.59    0.83 
   5  -3  -1   17.20    0.84 
   5  -3  -1   18.82    0.94 
  -5   3   1   18.79    1.11 
  -5   3   1   20.72    1.20 
  -5   3   1   17.53    0.93 
   3  -3  -1   93.56    5.24 
  -3  -3   1   78.92    4.20 
  -3   3   1   86.97    5.19 
   1  -3  -1   69.43    4.19 
   1  -3   1   13.93    0.92 
   1   3   1   15.72    1.07 
  -3  -3  -1   21.40    1.07 
  -3   3  -1   24.93    1.51 
   5  -3   1   22.36    1.12 
  -5  -3  -1   18.85    0.98 
   5  -3   1   22.05    1.04 
   5  -3   1   20.72    1.00 
  -5  -3  -1   20.37    1.07 
   5  -3   1   20.67    1.07 
   5  -3   1   21.85    0.91 
  -5   3  -1   19.29    1.12 
  -5   3  -1   18.85    0.94 
  -5   3  -1   19.66    1.20 
  -7  -3  -1   13.87    0.69 
   7   3   1    8.37    0.52 
   7   3   1    8.03    0.49 
  -9  -3  -1   11.98    0.67 
  -9  -3  -1   12.74    0.62 
  -9   3  -1    9.19    0.43 
   9   3   1    8.71    0.52 
   9   3   1    8.01    0.55 
  -8  -4   1    5.09    0.35 
  -8  -4   1    4.77    0.34 
  -8   4   1    3.94    0.25 
   8   4  -1    3.52    0.25 
   8   4  -1    3.60    0.27 
  -8   4   1    4.01    0.25 
   6  -4  -1   26.17    1.44 
   6  -4  -1   27.58    1.39 
   6  -4  -1   29.97    1.55 
   6  -4  -1   27.78    1.49 
  -6  -4   1   33.41    1.50 
   6  -4  -1   27.46    1.26 
  -6  -4   1   32.65    1.37 
  -6   4   1   27.37    1.70 
  -6   4   1   25.72    1.32 
  -6   4   1   28.58    1.24 
  -6   4   1   27.82    1.59 
   4  -4  -1   22.80    1.16 
   4  -4  -1   25.28    1.30 
   4  -4  -1   23.33    1.16 
   4  -4  -1   25.09    1.06 
   4  -4  -1   24.52    1.24 
   4  -4  -1   24.78    1.21 
  -4   4   1   26.89    1.57 
  -4   4   1   23.81    1.46 
   2  -4  -1    3.49    0.21 
   2  -4  -1    3.57    0.22 
   2  -4  -1    3.80    0.19 
   2  -4  -1    3.41    0.21 
   2  -4  -1    3.80    0.26 
   2  -4   1   18.22    0.93 
   2  -4   1   19.57    1.00 
   2  -4   1   19.74    0.85 
   2  -4   1   20.66    0.98 
   2  -4   1   19.69    1.05 
   4  -4   1    8.50    0.44 
   4  -4   1    8.43    0.45 
   4  -4   1    9.36    0.50 
   4  -4   1    8.50    0.40 
   4  -4   1    8.28    0.47 
  -4   4  -1   11.85    0.75 
  -4   4  -1   10.84    0.69 
   6  -4   1    3.62    0.23 
   6  -4   1    4.08    0.25 
   6  -4   1    4.28    0.21 
  -6   4  -1    9.27    0.45 
  -6   4  -1    7.88    0.60 
   8  -4   1   11.76    0.70 
  -8  -4  -1   13.72    0.65 
  -8  -4  -1   13.04    0.70 
   8   4   1    9.01    0.61 
  -8   4  -1    9.65    0.50 
   8   4   1   10.20    0.58 
  -8   4  -1   10.13    0.48 
   7  -5  -1   10.40    0.51 
   7  -5  -1   10.11    0.52 
  -7   5   1    9.28    0.46 
   5  -5  -1    0.54    0.09 
   5  -5  -1    0.77    0.12 
   5  -5  -1    0.48    0.09 
   5  -5  -1    0.74    0.08 
  -5   5   1    1.22    0.23 
  -5   5   1    1.43    0.23 
   3  -5  -1    3.49    0.28 
   3  -5  -1    3.18    0.22 
   3  -5  -1    3.29    0.20 
   3  -5  -1    2.89    0.21 
   3  -5  -1    3.41    0.18 
  -3   5   1    2.73    0.30 
  -3   5   1    2.87    0.28 
   1  -5  -1   23.49    1.14 
  -1  -5   1   22.48    1.22 
   1  -5  -1   22.52    1.04 
  -1  -5   1   24.38    1.14 
   1  -5  -1   24.86    1.19 
   1  -5  -1   24.92    1.22 
   1  -5   1   18.41    0.88 
   1  -5   1   18.99    0.92 
  -1  -5  -1   17.09    0.95 
  -1  -5  -1   16.45    0.88 
   1  -5   1   19.41    1.01 
   1  -5   1   19.13    0.95 
   3  -5   1    1.11    0.10 
   3  -5   1    1.12    0.14 
   3  -5   1    1.45    0.21 
   3  -5   1    1.17    0.11 
   3  -5   1    0.98    0.13 
  -3   5  -1    1.94    0.24 
  -3   5  -1    1.80    0.25 
   5  -5   1   29.35    1.48 
   5  -5   1   26.70    1.54 
   5  -5   1   30.57    1.44 
   5  -5   1   30.20    1.26 
   5  -5   1   28.39    1.38 
  -5   5  -1   19.88    0.94 
  -5   5  -1   20.85    1.20 
  -5   5  -1   20.42    1.28 
   7  -5   1   12.75    0.60 
   7  -5   1   11.70    0.61 
  -7   5  -1   11.88    0.56 
   6  -6  -1    9.09    0.46 
   6  -6  -1    8.49    0.48 
   6  -6  -1    9.75    0.45 
  -6   6   1    9.03    0.43 
   4  -6  -1   27.18    1.19 
   4  -6  -1   28.51    1.37 
   4  -6  -1   26.89    1.31 
   4  -6  -1   28.14    1.41 
  -4   6   1   19.69    0.90 
  -4   6   1   19.80    1.15 
   2  -6  -1    7.58    0.49 
   2  -6  -1    7.43    0.40 
   2  -6  -1    7.69    0.42 
   0  -6   1   19.49    0.95 
   0  -6  -1   17.46    0.89 
   0  -6  -1   18.10    0.95 
   2  -6   1   18.34    0.92 
   2  -6   1   18.98    0.95 
   2  -6   1   17.78    1.01 
   4  -6   1    6.53    0.31 
   4  -6   1    7.16    0.37 
   4  -6   1    6.98    0.36 
   4  -6   1    6.90    0.38 
  -4   6  -1    6.98    0.39 
  -4   6  -1    8.10    0.50 
   6  -6   1    5.28    0.27 
   6  -6   1    5.21    0.27 
  -6   6  -1    5.11    0.30 
  -6   6  -1    5.01    0.26 
  10   0  -2    4.44    0.30 
 -10   0   2    5.18    0.30 
 -10   0   2    5.36    0.32 
  -8   0   2   31.36    1.56 
  -8   0   2   33.47    1.64 
  -8   0   2   32.72    1.50 
  -6   0   2   17.02    0.81 
   6   0  -2   15.70    0.96 
   6   0  -2   14.56    0.90 
   4   0  -2   28.45    1.81 
   2   0  -2    1.48    0.18 
  -2   0   2    1.39    0.17 
   0   0   2   25.60    1.51 
   0   0  -2   25.34    1.51 
  -2   0  -2  188.36   11.51 
   2   0   2  202.37   11.51 
   4   0   2    3.05    0.36 
  -6   0  -2   40.72    1.99 
   6   0   2   39.66    2.41 
  -8   0  -2   19.91    1.00 
  -8   0  -2   20.18    0.96 
  -8   0  -2   21.43    1.05 
 -10   0  -2    2.55    0.19 
 -10   0  -2    2.18    0.20 
 -11  -1   2    4.15    0.25 
 -11  -1   2    3.86    0.24 
 -11   1   2    3.47    0.22 
  -9  -1   2    5.26    0.32 
  -9  -1   2    5.11    0.34 
  -9  -1   2    5.05    0.32 
  -9   1   2    5.37    0.32 
  -9   1   2    5.62    0.33 
  -7  -1   2   15.34    0.76 
  -7  -1   2   13.90    0.72 
  -7  -1   2   15.30    0.70 
   7  -1  -2   12.93    0.78 
   7   1  -2   11.68    0.72 
  -7   1   2   13.04    0.64 
  -7   1   2   12.46    0.66 
   7   1  -2   11.13    1.43 
  -7   1   2   14.12    0.62 
   5  -1  -2   22.79    1.61 
  -5  -1   2   25.59    1.21 
   5   1  -2   20.13    1.37 
   5   1  -2   19.67    1.19 
   3  -1  -2   93.25    5.56 
   3   1  -2   97.00    5.78 
  -1  -1   2    1.60    0.15 
   1   1  -2    1.81    0.17 
   1   1  -2    2.33    0.18 
  -1  -1  -2  187.06   10.75 
   1  -1   2  178.62   10.74 
   1   1   2  148.02    8.10 
  -1   1  -2  127.74    8.08 
   1   1   2  136.53    8.11 
   3  -1   2  114.01    6.79 
   3   1   2  105.10    6.26 
  -5  -1  -2   67.51    3.54 
   5  -1   2   77.22    4.45 
   5   1   2   72.26    4.66 
   5   1   2   79.31    4.51 
  -7  -1  -2   18.61    0.95 
  -7  -1  -2   20.48    1.01 
   7  -1   2   21.11    1.04 
  -7  -1  -2   18.14    0.92 
   7   1   2   19.32    1.08 
  -7   1  -2   18.48    0.93 
  -7   1  -2   18.06    0.85 
   7   1   2   19.93    1.16 
  -9  -1  -2    9.93    0.52 
  -9  -1  -2    9.80    0.51 
  -9  -1  -2    9.95    0.55 
  -9   1  -2   10.55    0.51 
  -9   1  -2    8.53    0.46 
   9   1   2    9.52    0.59 
 -11  -1  -2   12.92    0.63 
 -11  -1  -2   13.42    0.65 
 -11   1  -2   11.78    0.58 
 -10  -2   2   21.60    1.03 
 -10  -2   2   21.90    1.12 
  10   2  -2   14.38    0.92 
 -10   2   2   17.55    0.79 
   8  -2  -2   31.10    1.59 
  -8  -2   2   30.44    1.53 
  -8  -2   2   28.72    1.40 
  -8   2   2   21.80    1.12 
   8   2  -2   25.23    1.30 
  -8   2   2   21.61    1.03 
  -6  -2   2   10.13    0.49 
  -6  -2   2    9.18    0.45 
   6  -2  -2    8.06    0.50 
   6  -2  -2    8.30    0.40 
   6   2  -2    6.59    0.37 
  -6   2   2    5.18    0.41 
   6   2  -2    5.68    0.34 
  -6   2   2    5.99    0.34 
   4  -2  -2   54.60    3.37 
   4   2  -2   50.18    3.06 
  -4   2   2   48.86    2.97 
   2  -2  -2   29.68    1.85 
   2   2  -2   19.47    1.22 
   0  -2  -2    1.23    0.18 
   0   2  -2    2.10    0.19 
   2  -2   2  113.04    6.71 
   2   2   2   87.14    5.22 
   4  -2   2   69.56    3.95 
  -4  -2  -2   59.49    3.15 
   4   2   2   61.54    3.68 
  -4   2  -2   57.58    3.56 
  -6  -2  -2    4.92    0.32 
   6  -2   2    5.95    0.35 
  -6  -2  -2    6.49    0.35 
   6   2   2    4.50    0.31 
   6   2   2    4.97    0.29 
  -8  -2  -2   22.01    1.13 
  -8  -2  -2   21.41    1.03 
   8  -2   2   22.07    1.17 
  -8  -2  -2   22.29    1.08 
   8   2   2   20.13    1.24 
  -8   2  -2   20.18    0.92 
  -8   2  -2   21.02    1.00 
   8   2   2   19.80    1.16 
 -10  -2  -2   14.84    0.76 
 -10  -2  -2   15.82    0.74 
 -10  -2  -2   14.71    0.79 
 -10   2  -2    9.96    0.53 
  10   2   2   13.18    0.70 
 -10   2  -2   11.81    0.59 
  -9  -3   2   41.95    2.10 
  -9  -3   2   42.09    1.92 
   9   3  -2   29.28    1.86 
  -9   3   2   31.74    1.36 
   9   3  -2   30.64    1.74 
  -9   3   2   31.75    1.48 
   7  -3  -2   32.70    1.53 
   7  -3  -2   32.90    1.68 
  -7  -3   2   40.05    1.80 
  -7  -3   2   39.51    1.65 
   7  -3  -2   33.17    1.87 
  -7   3   2   27.46    1.44 
  -7   3   2   28.94    1.34 
   7   3  -2   31.73    1.81 
   7   3  -2   31.98    1.69 
   5  -3  -2   34.96    1.41 
   5  -3  -2   31.43    1.54 
  -5  -3   2   35.98    1.64 
   5  -3  -2   31.34    1.54 
  -5  -3   2   31.91    1.50 
   5  -3  -2   32.08    1.61 
   5  -3  -2   30.98    1.65 
  -5   3   2   26.10    1.38 
  -5   3   2   28.68    1.66 
  -5   3   2   32.13    1.79 
   3  -3  -2  110.62    6.66 
  -3   3   2   94.73    5.65 
   1  -3  -2   31.02    1.96 
  -3  -3  -2    7.59    0.42 
   3   3   2    4.63    0.55 
  -3   3  -2    5.51    0.34 
   5  -3   2   10.10    0.52 
   5  -3   2    8.24    0.46 
  -5  -3  -2    9.14    0.47 
   5  -3   2    8.77    0.41 
   5  -3   2    8.77    0.48 
   5  -3   2    8.69    0.45 
  -5  -3  -2    9.56    0.50 
  -5   3  -2    9.21    0.51 
  -5   3  -2    9.78    0.61 
  -5   3  -2   10.94    0.66 
  -7  -3  -2   11.81    0.69 
  -7  -3  -2   13.31    0.73 
   7  -3   2   14.94    0.75 
  -7  -3  -2   13.90    0.68 
  -7   3  -2   12.76    0.59 
  -7   3  -2   13.20    0.62 
   7   3   2   10.39    0.70 
  -9  -3  -2   13.56    0.73 
  -9  -3  -2   13.47    0.67 
   9   3   2    9.89    0.66 
  -9   3  -2   10.65    0.53 
  -9   3  -2   10.58    0.50 
  -8  -4   2    7.93    0.48 
  -8  -4   2    7.94    0.46 
   8   4  -2    6.12    0.35 
  -8   4   2    5.29    0.33 
  -8   4   2    5.65    0.32 
   6  -4  -2   43.78    2.19 
   6  -4  -2   43.70    2.25 
  -6  -4   2   47.13    2.24 
   6  -4  -2   43.30    2.10 
   6  -4  -2   44.06    1.91 
   6  -4  -2   45.97    2.34 
  -6   4   2   35.72    1.72 
  -6   4   2   34.95    2.20 
  -6   4   2   37.00    2.06 
   4  -4  -2   31.57    1.50 
   4  -4  -2   30.61    1.31 
   4  -4  -2   29.03    1.43 
   4  -4  -2   30.61    1.54 
   4  -4  -2   29.61    1.44 
   4  -4  -2   30.40    1.60 
  -4   4   2   25.99    1.50 
  -4   4   2   28.32    1.62 
  -4   4   2   24.09    1.26 
   2  -4  -2    4.39    0.26 
   2  -4  -2    4.67    0.30 
   2  -4  -2    4.33    0.22 
   2  -4  -2    4.38    0.25 
   2  -4  -2    4.38    0.24 
   2  -4   2   29.40    1.42 
   2  -4   2   30.78    1.48 
   2  -4   2   29.59    1.52 
   2  -4   2   29.58    1.29 
   2  -4   2   30.95    1.58 
   4  -4   2   14.51    0.74 
  -4  -4  -2   13.77    0.71 
   4  -4   2   14.40    0.78 
   4  -4   2   13.87    0.69 
   4  -4   2   14.65    0.63 
   4  -4   2   15.00    0.72 
  -4  -4  -2   13.25    0.75 
  -4   4  -2   12.18    0.76 
  -4   4  -2   13.11    0.82 
  -6  -4  -2   13.81    0.72 
  -6  -4  -2   13.76    0.77 
   6  -4   2   14.50    0.79 
   6  -4   2   14.56    0.63 
   6  -4   2   14.12    0.72 
   6  -4   2   14.53    0.70 
   6  -4   2   14.59    0.75 
  -6   4  -2   12.21    0.56 
  -6   4  -2   10.54    0.75 
  -6   4  -2   11.18    0.71 
  -8  -4  -2   14.24    0.72 
  -8  -4  -2   14.51    0.77 
   8   4   2   10.64    0.66 
   8   4   2   10.04    0.62 
  -8   4  -2   11.16    0.51 
   7  -5  -2    6.52    0.36 
   7  -5  -2    7.18    0.35 
  -7   5   2    6.41    0.34 
   5  -5  -2    1.82    0.16 
   5  -5  -2    2.51    0.24 
   5  -5  -2    1.95    0.15 
   5  -5  -2    2.02    0.12 
   5  -5  -2    1.94    0.14 
  -5   5   2    1.71    0.25 
   3  -5  -2    3.02    0.17 
   3  -5  -2    2.99    0.20 
   3  -5  -2    3.17    0.21 
   3  -5  -2    3.04    0.19 
   3  -5  -2    3.35    0.28 
  -3   5   2    3.53    0.30 
  -3   5   2    3.18    0.32 
   1  -5  -2   50.13    2.39 
   1  -5  -2   49.43    2.45 
   1  -5  -2   47.29    2.28 
  -1  -5   2   47.69    2.29 
   1  -5  -2   49.21    2.08 
  -1  -5   2   47.74    2.45 
   1  -5   2   15.94    0.88 
   1  -5   2   16.41    0.85 
   1  -5   2   18.34    0.94 
   1  -5   2   16.71    0.82 
   3  -5   2    9.56    0.45 
   3  -5   2   10.29    0.54 
   3  -5   2   10.41    0.52 
   3  -5   2    9.83    0.51 
  -3   5  -2    7.11    0.51 
  -3   5  -2    6.97    0.48 
   5  -5   2   33.08    1.59 
   5  -5   2   33.80    1.45 
   5  -5   2   33.16    1.71 
   5  -5   2   34.44    1.66 
  -5   5  -2   26.18    1.15 
  -5   5  -2   26.58    1.48 
  -5   5  -2   23.93    1.58 
   7  -5   2   14.93    0.75 
  -7   5  -2   13.81    0.62 
  -7   5  -2   12.66    0.70 
   6  -6  -2   21.49    1.00 
   6  -6  -2   21.91    1.04 
   6  -6  -2   19.98    1.07 
  -6   6   2   16.59    0.74 
   4  -6  -2   17.43    0.89 
   4  -6  -2   17.25    0.87 
   4  -6  -2   17.22    0.75 
  -4   6   2   12.96    0.75 
  -4   6   2   11.59    0.59 
   2  -6  -2    7.41    0.35 
   2  -6  -2    7.96    0.42 
   2  -6  -2    7.44    0.48 
   2  -6  -2    7.36    0.39 
   2  -6  -2    7.13    0.39 
   0  -6   2   21.28    1.00 
   0  -6  -2   19.81    0.99 
   0  -6  -2   20.28    1.02 
   0  -6  -2   21.06    1.06 
   0  -6   2   20.25    1.06 
   2  -6   2   16.05    0.78 
   2  -6   2   15.32    0.81 
   2  -6   2   15.31    0.77 
   4  -6   2   18.33    0.89 
   4  -6   2   17.31    0.92 
  -4   6  -2   13.98    0.67 
  -4   6  -2   14.76    0.86 
   6  -6   2    5.88    0.31 
   6  -6   2    6.07    0.35 
  -6   6  -2    5.21    0.30 
  10   0  -3   10.59    0.58 
 -10   0   3   10.08    0.57 
 -10   0   3   11.07    0.55 
 -10   0   3   10.39    0.53 
  -8   0   3    7.59    0.38 
  -8   0   3    5.93    0.38 
  -8   0   3    7.01    0.40 
   8   0  -3    6.00    0.40 
   4   0  -3    5.52    0.49 
   2   0  -3    7.04    0.49 
  -2   0   3    7.01    0.49 
   0   0   3  135.47    7.92 
   0   0  -3  134.45    7.92 
   2   0   3   13.27    0.86 
   4   0   3    4.77    0.46 
  -6   0  -3   56.75    2.87 
   6   0   3   60.09    3.49 
  -8   0  -3   14.93    0.79 
  -8   0  -3   15.45    0.73 
  -8   0  -3   15.14    0.76 
 -10   0  -3    1.34    0.15 
 -10   0  -3    1.14    0.18 
 -11  -1   3    3.19    0.21 
 -11   1   3    2.73    0.18 
  -9  -1   3    2.87    0.24 
  -9  -1   3    2.51    0.23 
  -9  -1   3    3.02    0.23 
  -9   1   3    3.42    0.25 
  -9   1   3    2.98    0.25 
  -9   1   3    3.58    0.25 
  -7  -1   3   21.28    1.07 
  -7  -1   3   23.05    1.03 
   7  -1  -3   20.96    1.17 
  -7  -1   3   22.63    1.12 
  -7   1   3   20.90    0.88 
   7   1  -3   18.73    1.06 
   7   1  -3   16.10    1.87 
  -7   1   3   19.31    0.95 
   7   1  -3   17.11    0.99 
   7   1  -3   19.05    1.14 
  -7   1   3   18.90    0.92 
   5  -1  -3   35.05    2.25 
  -5  -1   3   35.03    1.73 
   5   1  -3   32.46    2.07 
   5   1  -3   31.46    1.91 
   3  -1  -3    3.55    0.33 
   3   1  -3    4.59    0.39 
   1  -1  -3  378.47   22.22 
  -1  -1  -3  217.88   11.78 
   1  -1   3  182.73   11.76 
  -1   1  -3  147.34    9.01 
   1   1   3  159.12    9.05 
   3  -1   3   36.57    2.26 
   3   1   3   35.66    2.22 
   5  -1   3   77.86    4.72 
  -5  -1  -3   76.20    3.77 
   5   1   3   76.92    4.74 
  -7  -1  -3   26.62    1.32 
  -7  -1  -3   26.84    1.26 
  -7  -1  -3   24.98    1.21 
  -7   1  -3   25.74    1.29 
   7   1   3   27.55    1.52 
  -7   1  -3   26.15    1.19 
   7   1   3   28.16    1.63 
  -9  -1  -3   10.53    0.55 
  -9  -1  -3   11.28    0.57 
  -9  -1  -3   10.81    0.60 
  -9   1  -3   10.69    0.54 
  -9   1  -3    9.24    0.49 
   9   1   3   10.97    0.64 
 -11  -1  -3    7.69    0.40 
 -11  -1  -3    7.70    0.39 
 -11   1  -3    6.55    0.35 
 -10  -2   3   17.68    0.93 
 -10  -2   3   18.03    0.85 
 -10   2   3   14.03    0.70 
  -8  -2   3    9.90    0.55 
   8  -2  -3    8.64    0.54 
  -8  -2   3   10.11    0.51 
  -8   2   3    6.06    0.36 
   8   2  -3    6.72    0.41 
  -8   2   3    7.13    0.39 
  -6  -2   3    6.89    0.39 
   6  -2  -3    6.25    0.34 
  -6  -2   3    6.34    0.36 
   6  -2  -3    7.20    0.31 
   6  -2  -3    6.93    0.40 
  -6   2   3    4.64    0.37 
  -6   2   3    5.41    0.31 
   6   2  -3    4.75    0.30 
   6   2  -3    5.56    0.33 
   4  -2  -3   35.69    2.27 
   4   2  -3   29.11    1.99 
  -4   2   3   33.63    1.91 
   2  -2  -3   13.26    0.90 
   2   2  -3   10.02    0.67 
   0  -2  -3   19.69    1.24 
   2  -2   3  116.23    6.89 
   2   2   3   91.14    5.47 
   4  -2   3   26.92    1.78 
  -4  -2  -3   27.84    1.36 
  -4   2  -3   30.26    1.83 
   4   2   3   30.16    1.97 
  -6  -2  -3    1.59    0.16 
  -6  -2  -3    1.71    0.17 
  -6  -2  -3    1.67    0.16 
  -6   2  -3    1.14    0.16 
  -8  -2  -3   13.72    0.73 
  -8  -2  -3   14.07    0.68 
  -8  -2  -3   13.68    0.70 
   8  -2   3   13.08    0.74 
   8   2   3   13.00    0.75 
   8   2   3   13.61    0.80 
  -8   2  -3   11.62    0.64 
  -8   2  -3   12.23    0.60 
 -10  -2  -3    5.61    0.34 
 -10  -2  -3    7.12    0.35 
 -10  -2  -3    5.62    0.37 
 -10   2  -3    6.18    0.33 
 -10   2  -3    5.60    0.30 
  10   2   3    6.23    0.40 
  -9  -3   3   40.33    1.84 
  -9  -3   3   40.04    2.01 
   9   3  -3   27.60    1.74 
   9   3  -3   31.23    1.63 
  -9   3   3   28.36    1.27 
  -9   3   3   28.44    1.39 
  -7  -3   3   36.67    1.73 
   7  -3  -3   38.51    1.77 
  -7  -3   3   36.60    1.88 
   7  -3  -3   38.37    1.61 
  -7   3   3   29.46    1.44 
   7   3  -3   30.29    1.67 
   7   3  -3   31.26    1.79 
  -7   3   3   28.06    1.33 
  -5  -3   3   33.09    1.66 
   5  -3  -3   37.42    1.79 
   5  -3  -3   35.55    1.84 
   5  -3  -3   35.49    1.71 
   5  -3  -3   38.69    1.72 
   5  -3  -3   38.26    1.57 
   5  -3  -3   37.71    1.91 
  -5  -3   3   35.41    1.82 
  -5   3   3   31.29    1.83 
  -5   3   3   27.71    1.42 
  -5   3   3   30.18    1.70 
   3  -3  -3   41.32    2.62 
  -3   3   3   36.52    2.20 
   1  -3  -3   18.35    1.24 
   1   3   3   15.02    1.06 
  -3  -3  -3   21.23    1.07 
  -3   3  -3   15.46    0.96 
  -3   3  -3   18.72    1.04 
   3   3   3   16.10    1.23 
   5  -3   3   19.02    0.97 
  -5  -3  -3   18.11    0.89 
   5  -3   3   16.26    0.86 
  -5  -3  -3   17.99    0.86 
   5  -3   3   17.87    0.90 
   5  -3   3   18.72    0.79 
  -5  -3  -3   18.02    0.93 
  -5   3  -3   13.67    0.63 
  -5   3  -3   13.63    0.80 
  -5   3  -3   13.11    0.86 
  -7  -3  -3   14.03    0.73 
  -7  -3  -3   14.54    0.77 
   7  -3   3   15.07    0.79 
   7  -3   3   13.12    0.72 
  -7  -3  -3   14.80    0.71 
  -7   3  -3   12.39    0.59 
  -7   3  -3   11.57    0.63 
   7   3   3   13.05    0.77 
   7   3   3   12.35    0.72 
   9  -3   3    6.39    0.39 
  -9  -3  -3    7.38    0.38 
  -9  -3  -3    6.29    0.39 
  -9  -3  -3    6.51    0.40 
  -9   3  -3    4.93    0.29 
  -9   3  -3    5.32    0.31 
   9   3   3    6.20    0.37 
  -8  -4   3   15.70    0.84 
  -8  -4   3   15.36    0.77 
  -8   4   3   10.33    0.59 
  -8   4   3   11.55    0.56 
   8   4  -3   12.93    0.67 
   6  -4  -3   36.24    1.74 
   6  -4  -3   36.57    1.87 
   6  -4  -3   36.20    1.59 
  -6  -4   3   37.48    1.86 
   6  -4  -3   37.98    1.82 
  -6   4   3   30.33    1.67 
  -6   4   3   28.11    1.39 
  -6   4   3   27.56    1.78 
   4  -4  -3   30.32    1.30 
   4  -4  -3   29.28    1.42 
   4  -4  -3   30.66    1.48 
   4  -4  -3   30.01    1.52 
   4  -4  -3   29.21    1.42 
  -4   4   3   24.99    1.53 
  -4   4   3   24.33    1.42 
   2  -4  -3    7.39    0.35 
   2  -4  -3    7.57    0.39 
   2  -4  -3    8.35    0.46 
  -2  -4   3    7.22    0.40 
   2  -4  -3    7.58    0.40 
   2  -4  -3    7.59    0.42 
   0  -4   3   18.53    0.95 
   0  -4   3   18.36    0.88 
   2  -4   3   33.39    1.57 
   2  -4   3   31.61    1.43 
   2  -4   3   33.75    1.75 
   2  -4   3   34.01    1.64 
   2  -4   3   34.06    1.69 
   4  -4   3   29.51    1.46 
  -4  -4  -3   26.41    1.33 
   4  -4   3   27.54    1.35 
   4  -4   3   29.22    1.24 
   4  -4   3   29.00    1.51 
  -4  -4  -3   28.50    1.45 
   4  -4   3   30.01    1.42 
  -4   4  -3   19.90    1.16 
  -6  -4  -3    9.22    0.53 
   6  -4   3    8.40    0.46 
   6  -4   3    8.78    0.52 
   6  -4   3    8.88    0.45 
  -6  -4  -3    9.28    0.50 
  -6   4  -3    7.88    0.54 
  -6   4  -3    8.61    0.44 
  -8  -4  -3    3.15    0.27 
  -8  -4  -3    3.69    0.27 
   8  -4   3    2.98    0.24 
  -8   4  -3    2.69    0.19 
   8   4   3    2.49    0.20 
   7  -5  -3   10.46    0.50 
   7  -5  -3    9.64    0.51 
  -7   5   3    8.35    0.42 
   5  -5  -3    3.61    0.19 
   5  -5  -3    3.42    0.23 
   5  -5  -3    3.54    0.22 
   5  -5  -3    3.51    0.21 
   5  -5  -3    4.08    0.30 
  -5   5   3    2.77    0.30 
   3  -5  -3    7.32    0.41 
   3  -5  -3    8.25    0.42 
   3  -5  -3    8.05    0.43 
   3  -5  -3    7.34    0.49 
   3  -5  -3    7.83    0.37 
  -3   5   3    5.42    0.42 
  -1  -5   3   41.68    2.29 
   1  -5  -3   47.11    2.30 
  -1  -5   3   44.49    2.14 
   1  -5  -3   46.57    2.24 
   1  -5  -3   48.04    1.95 
   1  -5  -3   44.62    2.14 
   1  -5   3   29.15    1.51 
   1  -5   3   27.88    1.44 
   1  -5   3   28.52    1.35 
   1  -5   3   27.33    1.40 
   3  -5   3   11.50    0.58 
   3  -5   3   11.45    0.66 
   3  -5   3   11.92    0.59 
   3  -5   3   12.03    0.62 
   3  -5   3   10.84    0.52 
  -3   5  -3    8.15    0.57 
  -3   5  -3    8.13    0.53 
   5  -5   3   15.17    0.80 
   5  -5   3   14.04    0.73 
   5  -5   3   13.62    0.75 
   5  -5   3   14.94    0.71 
  -5   5  -3   13.22    0.63 
  -5   5  -3   14.32    0.81 
  -5   5  -3   12.29    0.86 
   7  -5   3   20.98    1.13 
   7  -5   3   21.70    1.06 
  -7   5  -3   18.37    0.82 
  -7   5  -3   18.21    0.94 
   6  -6  -3   13.17    0.65 
   6  -6  -3   13.09    0.63 
   6  -6  -3   12.70    0.67 
  -6   6   3    9.74    0.46 
   4  -6  -3   11.15    0.50 
   4  -6  -3   10.99    0.57 
   4  -6  -3   11.18    0.59 
   4  -6  -3   11.29    0.56 
  -4   6   3    8.69    0.55 
   2  -6  -3   19.00    0.96 
   2  -6  -3   18.71    0.93 
   2  -6  -3   18.91    0.81 
   2  -6  -3   17.39    0.90 
   0  -6  -3    7.84    0.40 
   0  -6  -3    7.94    0.42 
   0  -6   3    6.65    0.42 
   2  -6   3   18.45    1.00 
   2  -6   3   17.53    0.88 
   2  -6   3   18.36    0.91 
   2  -6   3   18.15    0.94 
   4  -6   3   16.56    0.82 
   4  -6   3   16.43    0.80 
   4  -6   3   16.53    0.85 
  -4   6  -3   13.25    0.79 
   6  -6   3    5.23    0.27 
  -6   6  -3    4.79    0.28 
 -10   0   4    3.78    0.24 
 -10   0   4    3.56    0.24 
 -10   0   4    3.27    0.25 
  10   0  -4    3.54    0.24 
  -8   0   4    5.91    0.36 
  -6   0   4    6.49    0.37 
   6   0  -4    6.59    0.40 
   4   0  -4   21.74    1.42 
  -2   0   4   19.13    1.23 
   2   0  -4   19.11    1.19 
   0   0   4   62.95    3.69 
   0   0  -4   62.00    3.68 
   2   0   4    0.66    0.15 
   4   0   4   63.28    3.87 
   4   0   4   66.82    3.98 
   6   0   4   64.62    3.79 
  -6   0  -4   62.38    3.11 
   6   0   4   63.33    3.54 
  -8   0  -4    4.61    0.31 
  -8   0  -4    5.17    0.30 
  -8   0  -4    5.59    0.31 
  -8   0  -4    4.99    0.29 
 -10   0  -4    0.40    0.10 
 -11  -1   4    2.82    0.20 
 -11   1   4    2.59    0.20 
 -11   1   4    2.78    0.19 
  -9  -1   4    2.52    0.23 
  -9  -1   4    3.07    0.23 
  -9  -1   4    2.34    0.23 
  -9   1   4    3.32    0.26 
  -9   1   4    3.66    0.26 
  -9   1   4    3.86    0.26 
  -7  -1   4   38.66    1.95 
  -7  -1   4   38.14    1.86 
  -7  -1   4   37.86    1.78 
   7  -1  -4   41.56    2.04 
  -7   1   4   35.83    1.74 
   7   1  -4   32.93    1.82 
  -7   1   4   34.13    1.60 
   7   1  -4   35.41    1.96 
   7   1  -4   37.68    2.10 
  -7   1   4   33.52    1.67 
   5  -1  -4   43.91    2.84 
  -5  -1   4   46.74    2.24 
   5   1  -4   42.70    2.72 
   5   1  -4   48.56    3.75 
   5   1  -4   43.58    2.57 
  -5   1   4   38.06    2.12 
   3  -1  -4   39.29    2.41 
   3   1  -4   36.22    2.22 
   1  -1  -4  148.78    8.78 
  -1  -1  -4  179.74   10.58 
   1   1   4  131.55    7.79 
   3  -1   4  112.22    6.69 
   3   1   4  121.39    7.25 
   5  -1   4   44.00    2.84 
  -5  -1  -4   45.18    2.20 
   5   1   4   52.05    2.95 
   5   1   4   46.79    3.14 
  -7  -1  -4   21.36    1.03 
  -7  -1  -4   21.60    1.00 
  -7  -1  -4   20.75    1.08 
  -7   1  -4   20.85    0.95 
  -7   1  -4   20.23    1.03 
   7   1   4   22.84    1.30 
  -9  -1  -4   13.67    0.74 
  -9  -1  -4   13.88    0.68 
  -9  -1  -4   14.10    0.70 
   9   1   4   13.53    0.86 
  -9   1  -4   14.84    0.66 
  -9   1  -4   15.06    0.73 
 -11  -1  -4   11.11    0.55 
 -11   1  -4   10.04    0.50 
 -10  -2   4    5.62    0.36 
 -10  -2   4    5.91    0.34 
 -10   2   4    4.07    0.25 
  -8  -2   4   11.57    0.57 
   8  -2  -4   10.97    0.63 
  -8  -2   4   10.74    0.62 
   8   2  -4    9.13    0.60 
   8   2  -4    8.68    0.54 
   8   2  -4    9.57    0.57 
  -8   2   4   10.74    0.53 
  -8   2   4    9.62    0.49 
  -6  -2   4    3.91    0.26 
   6  -2  -4    4.13    0.26 
   6  -2  -4    4.03    0.19 
  -6  -2   4    3.65    0.26 
   6  -2  -4    3.58    0.21 
  -6   2   4    2.71    0.27 
   6   2  -4    2.67    0.19 
   6   2  -4    2.43    0.17 
  -6   2   4    2.92    0.21 
  -6   2   4    3.07    0.22 
   4  -2  -4   30.54    2.05 
  -4  -2   4   33.74    1.60 
  -4   2   4   33.90    2.95 
  -4   2   4   34.89    2.08 
   2  -2  -4  167.65    9.93 
   0  -2  -4    3.10    0.30 
   2  -2   4   64.10    3.84 
  -2   2  -4   49.96    3.15 
   2   2   4   55.59    3.24 
   4  -2   4   28.25    1.81 
  -4  -2  -4   26.95    1.37 
  -4   2  -4   26.74    1.69 
   4   2   4   29.25    1.86 
  -6  -2  -4    6.59    0.35 
  -6  -2  -4    5.81    0.35 
  -6  -2  -4    6.26    0.37 
   6   2   4    6.92    0.41 
   6   2   4    7.50    0.44 
  -6   2  -4    6.59    0.35 
  -6   2  -4    6.03    0.37 
  -8  -2  -4    8.01    0.44 
  -8  -2  -4    8.21    0.45 
  -8  -2  -4    7.90    0.47 
  -8   2  -4    8.37    0.46 
   8   2   4    8.41    0.56 
  -8   2  -4    8.91    0.43 
 -10  -2  -4   19.02    0.87 
 -10  -2  -4   16.58    0.91 
 -10  -2  -4   17.16    0.83 
 -10   2  -4   17.43    0.84 
 -10   2  -4   17.24    0.77 
  -9  -3   4   18.74    0.97 
  -9  -3   4   19.36    0.90 
   9  -3  -4   17.56    1.00 
  -9   3   4   14.09    0.69 
  -9   3   4   13.88    0.63 
   9   3  -4   14.50    0.79 
   9   3  -4   12.25    0.84 
   7  -3  -4   16.85    0.74 
  -7  -3   4   17.49    0.83 
  -7  -3   4   17.53    0.90 
   7  -3  -4   16.67    0.92 
   7  -3  -4   16.31    0.82 
  -7   3   4   12.89    0.63 
  -7   3   4   13.84    0.68 
   7   3  -4   11.41    0.70 
   7   3  -4   13.22    0.74 
   7   3  -4   13.24    0.79 
   5  -3  -4   30.62    1.41 
   5  -3  -4   29.02    1.47 
   5  -3  -4   29.29    1.51 
   5  -3  -4   28.54    1.41 
   5  -3  -4   31.69    1.57 
  -5  -3   4   29.10    1.50 
   5  -3  -4   30.50    1.29 
  -5   3   4   22.21    2.18 
  -5   3   4   25.65    1.51 
  -5   3   4   24.93    1.40 
  -5   3   4   24.60    1.18 
   3  -3  -4   36.68    2.36 
  -3   3   4   35.70    2.15 
   1  -3  -4   62.35    3.81 
  -1  -3  -4   37.60    2.34 
   1   3   4   26.50    1.75 
  -3  -3  -4   38.00    1.88 
  -3   3  -4   25.49    1.50 
  -3   3  -4   27.94    1.61 
   3   3   4   25.99    1.86 
   5  -3   4   10.80    0.57 
   5  -3   4   11.78    0.52 
  -5  -3  -4    9.00    0.52 
  -5  -3  -4    8.95    0.55 
  -5   3  -4    8.33    0.43 
  -5   3  -4    8.94    0.58 
  -5   3  -4    8.57    0.54 
  -7  -3  -4   12.42    0.62 
   7  -3   4   10.70    0.60 
  -7  -3  -4   12.21    0.60 
   7  -3   4   12.21    0.66 
  -7  -3  -4   11.53    0.65 
  -7   3  -4    9.40    0.58 
   7   3   4   11.10    0.66 
  -7   3  -4   10.72    0.51 
  -7   3  -4    9.80    0.54 
   7   3   4   11.28    0.62 
  -9  -3  -4    3.18    0.25 
  -9  -3  -4    3.70    0.25 
  -9  -3  -4    3.48    0.26 
  -9   3  -4    2.58    0.19 
  -9   3  -4    2.38    0.18 
   9   3   4    2.84    0.23 
   8  -4  -4   10.40    0.49 
   8  -4  -4    9.44    0.56 
  -8  -4   4    9.71    0.58 
   8   4  -4    8.80    0.50 
  -8   4   4    8.41    0.46 
  -8   4   4    8.53    0.43 
   8   4  -4    8.37    0.54 
   6  -4  -4   20.41    1.07 
   6  -4  -4   19.34    0.86 
   6  -4  -4   19.36    1.01 
   6  -4  -4   19.82    0.99 
   6  -4  -4   19.52    0.95 
  -6   4   4   16.56    0.87 
  -6   4   4   16.75    1.12 
  -6   4   4   19.00    1.05 
   4  -4  -4   26.04    1.27 
   4  -4  -4   26.88    1.42 
   4  -4  -4   28.08    1.16 
   4  -4  -4   26.45    1.36 
   4  -4  -4   25.91    1.27 
   4  -4  -4   26.90    1.33 
  -4   4   4   21.40    1.31 
  -4   4   4   20.62    1.22 
   2  -4  -4   19.35    1.06 
  -2  -4   4   19.96    0.95 
   2  -4  -4   20.63    1.02 
   2  -4  -4   20.00    0.99 
   2  -4  -4   20.01    0.95 
   2  -4  -4   19.69    0.86 
   2  -4  -4   18.51    0.95 
   0  -4   4   33.56    1.60 
   0  -4  -4   33.55    1.67 
   0  -4   4   34.22    1.71 
   0  -4  -4   34.10    1.72 
   0  -4   4   34.15    1.78 
  -2  -4  -4   19.25    0.98 
   2  -4   4   18.46    0.91 
   2  -4   4   19.89    1.01 
   2  -4   4   18.54    0.97 
   2  -4   4   18.41    0.94 
   4  -4   4   22.34    0.92 
   4  -4   4   21.86    1.14 
  -4  -4  -4   18.89    1.01 
   4  -4   4   21.54    1.01 
   4  -4   4   21.10    1.08 
   4  -4   4   22.98    1.06 
  -4  -4  -4   19.13    1.09 
  -4   4  -4   17.54    1.04 
  -4   4  -4   15.73    0.76 
  -4   4  -4   15.89    0.97 
  -6  -4  -4    4.24    0.31 
   6  -4   4    3.54    0.29 
  -6  -4  -4    4.14    0.31 
  -6   4  -4    3.44    0.30 
  -6   4  -4    3.68    0.25 
  -8  -4  -4    1.85    0.21 
  -8  -4  -4    1.52    0.21 
   8  -4   4    1.69    0.17 
  -8   4  -4    1.19    0.14 
   7  -5  -4    8.94    0.43 
   7  -5  -4    8.44    0.50 
   7  -5  -4    9.09    0.39 
   7  -5  -4    8.03    0.44 
  -7   5   4    6.47    0.37 
  -7   5   4    6.92    0.35 
   5  -5  -4    6.59    0.36 
   5  -5  -4    6.73    0.38 
   5  -5  -4    6.84    0.44 
   5  -5  -4    7.09    0.37 
   5  -5  -4    7.10    0.33 
  -5   5   4    5.76    0.40 
  -5   5   4    4.77    0.32 
  -5   5   4    4.69    0.41 
   3  -5  -4    6.47    0.36 
   3  -5  -4    6.51    0.35 
   3  -5  -4    6.62    0.31 
   3  -5  -4    5.91    0.42 
   3  -5  -4    6.17    0.34 
  -1  -5   4   28.40    1.49 
   1  -5  -4   29.04    1.46 
   1  -5  -4   29.28    1.40 
   1  -5  -4   29.76    1.50 
  -1  -5   4   29.65    1.40 
   1  -5  -4   29.89    1.27 
   1  -5   4   21.73    1.12 
   1  -5   4   22.87    1.09 
   1  -5   4   22.99    1.16 
   3  -5   4    0.91    0.09 
   3  -5   4    1.06    0.10 
  -3   5  -4    1.88    0.23 
   5  -5   4   12.94    0.75 
   5  -5   4   13.65    0.67 
   5  -5   4   14.46    0.69 
   5  -5   4   13.11    0.71 
  -5   5  -4    9.82    0.68 
  -5   5  -4   10.26    0.51 
  -5   5  -4   10.54    0.64 
  -7  -5  -4   16.01    0.72 
   7  -5   4   12.44    0.70 
  -7   5  -4   11.44    0.53 
  -7   5  -4   11.29    0.60 
   6  -6  -4    2.88    0.17 
   6  -6  -4    3.25    0.18 
  -6   6   4    2.68    0.18 
   4  -6  -4   10.97    0.57 
   4  -6  -4   10.70    0.54 
   4  -6  -4   10.55    0.48 
   4  -6  -4   10.95    0.55 
  -4   6   4    7.08    0.47 
   2  -6  -4    7.00    0.39 
   2  -6  -4    7.62    0.35 
   2  -6  -4    7.60    0.40 
   2  -6  -4    7.49    0.41 
   0  -6  -4    2.94    0.21 
   0  -6   4    3.55    0.22 
   0  -6  -4    2.92    0.19 
   2  -6   4   10.93    0.58 
   2  -6   4   11.00    0.55 
   2  -6   4   10.68    0.55 
  -2   6  -4    8.69    0.50 
  -2   6  -4    6.63    0.51 
   4  -6   4    7.82    0.43 
   4  -6   4    8.55    0.42 
   4  -6   4    7.72    0.41 
  -4   6  -4    7.32    0.48 
 -10   0   5    4.23    0.30 
 -10   0   5    4.69    0.28 
 -10   0   5    4.68    0.29 
  10   0  -5    4.43    0.29 
  -8   0   5   35.60    1.63 
  -8   0   5   35.04    1.77 
  -8   0   5   35.32    1.69 
   6   0  -5    4.37    0.29 
  -6   0   5    4.84    0.28 
   4   0  -5    2.82    0.35 
   2   0  -5  453.71   26.62 
   0   0  -5  163.07    9.40 
   0   0   5  156.70    9.39 
   2   0   5    6.73    0.50 
   4   0   5   43.41    2.66 
   4   0   5   45.85    2.80 
   6   0   5   47.61    2.72 
  -6   0  -5   42.03    2.24 
   6   0   5   46.62    2.54 
  -8   0  -5    1.57    0.18 
  -8   0  -5    1.66    0.16 
  -8   0  -5    1.89    0.17 
 -10   0  -5    9.38    0.49 
 -11  -1   5    6.85    0.36 
 -11   1   5    6.85    0.36 
 -11   1   5    7.13    0.37 
   9  -1  -5   10.23    0.58 
  -9  -1   5    9.94    0.57 
  -9  -1   5   10.32    0.53 
  -9   1   5    8.85    0.52 
  -9   1   5    9.53    0.49 
  -9   1   5    9.15    0.50 
  -7  -1   5   28.97    1.48 
   7  -1  -5   30.96    1.55 
  -7  -1   5   28.20    1.35 
  -7   1   5   24.96    1.21 
   7   1  -5   26.60    1.47 
   7   1  -5   25.63    1.37 
   7   1  -5   28.71    1.58 
  -7   1   5   25.66    1.32 
  -7   1   5   24.91    1.26 
   5  -1  -5   84.61    5.16 
  -5  -1   5   85.21    4.15 
   5   1  -5   81.50    5.06 
   5   1  -5   92.24    7.02 
  -5   1   5   76.30    4.07 
   5   1  -5   83.35    4.95 
   3  -1  -5  110.86    6.60 
   3   1  -5  112.37    6.67 
   1  -1  -5   11.14    0.73 
  -1  -1  -5  381.27   22.38 
   1   1   5  318.93   18.76 
   3   1   5   84.10    5.08 
  -5  -1  -5    3.20    0.21 
   5   1   5    2.57    0.18 
   5   1   5    2.65    0.19 
  -7  -1  -5   16.38    0.85 
  -7  -1  -5   16.74    0.81 
  -7  -1  -5   16.31    0.78 
   7   1   5   18.24    1.06 
  -7   1  -5   16.20    0.84 
  -7   1  -5   16.83    0.77 
  -9  -1  -5   23.51    1.24 
  -9  -1  -5   25.96    1.19 
  -9  -1  -5   23.96    1.14 
  -9   1  -5   24.29    1.15 
   9   1   5   22.91    1.36 
  -9   1  -5   23.95    1.05 
 -11  -1  -5    7.27    0.38 
 -11   1  -5    6.34    0.33 
  10  -2  -5   12.19    0.69 
 -10  -2   5   12.58    0.67 
 -10  -2   5   12.87    0.62 
 -10   2   5   11.63    0.59 
   8  -2  -5   23.26    1.20 
  -8  -2   5   22.27    1.06 
  -8  -2   5   21.68    1.16 
   8   2  -5   18.68    1.15 
  -8   2   5   17.58    0.89 
   8   2  -5   19.56    1.07 
  -8   2   5   18.57    0.93 
   8   2  -5   19.28    1.00 
   6  -2  -5    6.87    0.42 
   6  -2  -5    6.60    0.33 
  -6  -2   5    8.03    0.42 
   6  -2  -5    6.39    0.36 
  -6  -2   5    7.81    0.40 
  -6   2   5    6.65    0.36 
  -6   2   5    5.89    0.37 
   6   2  -5    6.68    0.39 
  -6   2   5    7.29    0.38 
   6   2  -5    7.00    0.42 
  -6   2   5    6.36    0.45 
  -4  -2   5  115.22    5.95 
   4  -2  -5  129.22    7.33 
   4   2  -5  116.62    7.27 
  -4   2   5  116.97    7.29 
  -4   2   5  133.97   10.17 
   2  -2  -5  105.18    6.28 
   0  -2  -5   26.38    1.65 
  -2   2  -5   35.43    2.27 
   2   2   5   40.61    2.39 
  -4  -2  -5   47.87    2.36 
  -4   2  -5   44.71    2.76 
   4   2   5   47.28    2.93 
  -6  -2  -5   12.55    0.65 
  -6  -2  -5   12.69    0.70 
  -6  -2  -5   13.22    0.67 
   6  -2   5   13.98    0.67 
   6  -2   5   14.29    0.73 
   6   2   5   13.07    0.72 
   6   2   5   13.32    0.68 
  -6   2  -5    9.74    0.62 
  -6   2  -5   10.35    0.58 
  -6   2  -5   11.65    0.55 
  -8  -2  -5   14.34    0.77 
  -8  -2  -5   13.81    0.71 
  -8  -2  -5   14.85    0.73 
  -8   2  -5   13.91    0.72 
  -8   2  -5   14.78    0.67 
   8   2   5   13.58    0.90 
   8   2   5   15.41    0.86 
 -10  -2  -5   18.17    0.88 
 -10  -2  -5   19.27    0.92 
 -10   2  -5   14.70    0.72 
 -10   2  -5   14.94    0.66 
  -9  -3   5   12.88    0.70 
   9  -3  -5   11.58    0.70 
  -9  -3   5   13.45    0.65 
  -9   3   5   10.14    0.54 
   9   3  -5   10.49    0.61 
   7  -3  -5   13.17    0.73 
  -7  -3   5   12.88    0.67 
  -7  -3   5   12.58    0.72 
   7  -3  -5   13.56    0.58 
   7  -3  -5   13.38    0.64 
   7   3  -5   10.80    0.61 
   7   3  -5   10.77    0.65 
  -7   3   5   10.07    0.56 
   5  -3  -5   39.62    1.75 
   5  -3  -5   38.70    1.60 
  -5  -3   5   32.48    1.85 
   5  -3  -5   37.33    1.95 
   5  -3  -5   37.60    1.83 
   5  -3  -5   37.66    1.88 
   5  -3  -5   36.41    1.75 
  -5   3   5   28.65    1.72 
  -5   3   5   28.40    1.60 
  -5   3   5   26.75    2.48 
  -3   3   5   80.67    4.81 
   1  -3  -5   63.40    3.88 
  -1  -3  -5   20.33    1.35 
  -1  -3  -5   20.67    1.04 
   1   3   5   13.82    1.03 
  -3  -3  -5   21.76    1.10 
  -3   3  -5   18.81    1.09 
  -3   3  -5   16.48    1.01 
  -5  -3  -5   21.02    1.04 
   5  -3   5   21.90    1.13 
  -5  -3  -5   19.15    1.00 
   5  -3   5   22.93    1.06 
  -5  -3  -5   21.34    1.10 
  -5   3  -5   17.44    0.77 
  -5   3  -5   16.54    1.05 
  -5   3  -5   16.02    0.97 
  -7  -3  -5    2.14    0.22 
  -7  -3  -5    2.40    0.22 
  -7  -3  -5    2.45    0.23 
   7  -3   5    1.91    0.20 
  -7   3  -5    2.01    0.19 
   7   3   5    1.95    0.18 
   7   3   5    2.17    0.20 
  -7   3  -5    1.91    0.20 
  -9  -3  -5    3.27    0.24 
  -9  -3  -5    2.97    0.25 
  -9  -3  -5    3.34    0.24 
   9   3   5    2.63    0.23 
  -9   3  -5    2.91    0.18 
  -9   3  -5    2.55    0.19 
   8  -4  -5    5.26    0.34 
   8  -4  -5    5.60    0.29 
   8   4  -5    4.07    0.32 
  -8   4   5    4.84    0.28 
  -8   4   5    4.71    0.30 
   8   4  -5    5.44    0.30 
   6  -4  -5   30.27    1.47 
   6  -4  -5   29.80    1.42 
   6  -4  -5   29.32    1.58 
   6  -4  -5   29.69    1.52 
   6  -4  -5   29.89    1.29 
  -6   4   5   21.54    1.06 
  -6   4   5   22.85    1.27 
  -6   4   5   20.05    1.36 
   4  -4  -5   23.55    0.99 
   4  -4  -5   22.07    1.22 
   4  -4  -5   22.43    1.16 
   4  -4  -5   22.37    1.09 
   4  -4  -5   22.71    1.09 
   4  -4  -5   22.87    1.13 
  -4   4   5   17.04    1.05 
  -4   4   5   16.03    0.97 
   2  -4  -5   30.97    1.49 
  -2  -4   5   27.03    1.39 
   2  -4  -5   30.55    1.27 
   2  -4  -5   29.58    1.39 
   2  -4  -5   31.51    1.46 
  -2  -4   5   25.94    1.56 
   2  -4  -5   29.67    1.39 
   0  -4   5   23.06    1.10 
   0  -4  -5   22.97    1.00 
   0  -4   5   24.38    1.23 
   0  -4   5   23.73    1.18 
   0  -4  -5   21.57    1.14 
   0  -4  -5   22.49    1.18 
  -2  -4  -5   27.33    1.42 
  -2  -4  -5   25.45    1.31 
   2  -4   5   28.93    1.33 
  -2  -4  -5   24.67    1.34 
   2  -4   5   30.61    1.38 
   2  -4   5   28.98    1.48 
   2  -4   5   29.68    1.42 
  -2   4  -5   18.84    1.17 
  -2   4  -5   22.21    1.26 
   4  -4   5    9.25    0.45 
   4  -4   5    9.46    0.50 
   4  -4   5    9.35    0.57 
  -4  -4  -5   11.20    0.55 
   4  -4   5    9.46    0.51 
  -4  -4  -5   11.56    0.55 
  -4  -4  -5   11.20    0.58 
   4  -4   5    9.00    0.53 
  -4   4  -5    8.42    0.55 
  -4   4  -5    8.44    0.44 
  -4   4  -5    9.15    0.59 
   6  -4   5    3.68    0.27 
  -6  -4  -5    3.78    0.29 
  -6  -4  -5    3.30    0.28 
   6  -4   5    3.41    0.21 
  -6  -4  -5    3.45    0.29 
  -6   4  -5    2.22    0.24 
  -6   4  -5    2.15    0.20 
  -8  -4  -5    4.64    0.32 
  -8  -4  -5    4.89    0.31 
  -8   4  -5    4.22    0.23 
   8   4   5    3.87    0.30 
   7  -5  -5    8.59    0.37 
   7  -5  -5    7.75    0.47 
   7  -5  -5    8.41    0.41 
   7  -5  -5    7.48    0.41 
  -7   5   5    6.35    0.34 
  -7   5   5    5.89    0.36 
   7   5  -5    7.27    0.39 
   5  -5  -5    8.00    0.42 
   5  -5  -5    8.40    0.43 
   5  -5  -5    8.47    0.38 
   5  -5  -5    7.63    0.50 
   5  -5  -5    8.04    0.44 
  -5   5   5    4.65    0.42 
  -5   5   5    5.57    0.39 
  -5   5   5    5.22    0.33 
  -3  -5   5    5.59    0.35 
   3  -5  -5    4.91    0.29 
   3  -5  -5    5.37    0.29 
   3  -5  -5    4.88    0.29 
   3  -5  -5    5.22    0.31 
   3  -5  -5    4.83    0.37 
   3  -5  -5    5.16    0.26 
  -3   5   5    5.55    0.40 
   1  -5  -5   25.39    1.27 
   1  -5  -5   26.11    1.11 
   1  -5  -5   25.44    1.21 
  -1  -5   5   24.62    1.30 
  -1  -5   5   24.94    1.22 
   1  -5  -5   25.78    1.30 
   1  -5   5    5.06    0.30 
  -1  -5  -5    4.95    0.28 
   1  -5   5    5.63    0.33 
   1  -5   5    6.25    0.39 
   1  -5   5    5.87    0.32 
   3  -5   5    8.93    0.47 
   3  -5   5    9.11    0.49 
   3  -5   5    8.30    0.54 
   3  -5   5    9.46    0.47 
  -3   5  -5    7.37    0.51 
  -3   5  -5    6.93    0.48 
   5  -5   5   16.55    0.81 
  -5  -5  -5   16.09    0.89 
  -5  -5  -5   16.56    0.83 
   5  -5   5   16.48    0.86 
   5  -5   5   17.25    0.83 
  -5   5  -5   12.60    0.60 
  -5   5  -5   13.11    0.76 
  -5   5  -5   11.63    0.81 
  -7  -5  -5    7.62    0.43 
  -7   5  -5    6.27    0.32 
  -7   5  -5    6.19    0.36 
   6  -6  -5    4.21    0.21 
   6  -6  -5    3.65    0.21 
  -6   6   5    3.30    0.20 
   4  -6  -5    3.52    0.21 
   4  -6  -5    3.58    0.18 
   4  -6  -5    3.42    0.21 
   4  -6  -5    3.43    0.20 
  -4   6   5    2.85    0.27 
   2  -6  -5    2.42    0.18 
   2  -6  -5    2.32    0.16 
   2  -6  -5    2.39    0.17 
   2  -6  -5    2.40    0.14 
   0  -6  -5    6.31    0.34 
   0  -6   5    5.27    0.34 
   0  -6  -5    5.93    0.32 
   0  -6   5    5.79    0.34 
   2  -6   5    1.41    0.12 
   2  -6   5    1.77    0.15 
   4  -6   5    5.30    0.30 
   4  -6   5    5.00    0.34 
   4  -6   5    5.36    0.28 
   4  -6   5    5.54    0.30 
  -4   6  -5    4.88    0.35 
 -10   0   6   10.32    0.58 
 -10   0   6   11.06    0.56 
  10   0  -6   11.12    0.60 
 -10   0   6   10.46    0.54 
   8   0  -6   21.39    1.11 
  -8   0   6   20.72    0.99 
  -8   0   6   21.14    1.08 
  -8   0   6   20.03    1.02 
  -6   0   6    5.20    0.31 
   4   0  -6   24.25    1.56 
   2   0  -6   15.49    0.98 
   0   0  -6    0.53    0.11 
   0   0   6    0.49    0.12 
   2   0   6   37.61    2.31 
   4   0   6   14.80    0.93 
   4   0   6   15.82    1.10 
   6   0   6   45.68    2.58 
  -6   0  -6   43.28    1.86 
  -6   0  -6   44.26    2.03 
   6   0   6   43.83    2.41 
  -6   0  -6   37.97    2.12 
  -8   0  -6    7.08    0.44 
  -8   0  -6    8.52    0.40 
  -8   0  -6    8.46    0.43 
 -10   0  -6    9.03    0.47 
 -11  -1   6   10.13    0.50 
 -11   1   6   10.36    0.49 
 -11   1   6    9.00    0.47 
   9  -1  -6    6.95    0.43 
  -9  -1   6    7.27    0.44 
  -9  -1   6    7.28    0.41 
   9   1  -6    7.19    0.41 
  -9   1   6    6.36    0.38 
  -9   1   6    6.80    0.39 
  -9   1   6    6.59    0.40 
   7  -1  -6   16.10    0.86 
  -7  -1   6   15.95    0.84 
  -7  -1   6   15.82    0.77 
  -7   1   6   14.29    0.66 
   7   1  -6   12.33    0.72 
  -7   1   6   13.67    0.70 
  -7   1   6   13.72    0.68 
   7   1  -6   12.96    0.82 
   7   1  -6   12.68    0.76 
   5  -1  -6   63.52    3.80 
  -5  -1   6   59.41    3.02 
   5   1  -6   56.95    3.44 
   5   1  -6   52.52    3.09 
  -5   1   6   55.56    2.73 
   5   1  -6   57.58    3.31 
   3  -1  -6   24.18    1.54 
   3   1  -6   25.99    1.60 
   3   1  -6   25.30    1.53 
   1  -1  -6   53.87    3.24 
  -1  -1  -6   61.75    3.69 
   1   1   6   44.70    2.73 
   3  -1   6    2.77    0.34 
   3   1   6    2.72    0.20 
   3   1   6    3.25    0.38 
   5  -1   6    5.47    0.62 
  -5  -1  -6    5.65    0.33 
   5   1   6    4.87    0.31 
   5   1   6    5.30    0.34 
  -7  -1  -6   15.09    0.82 
  -7  -1  -6   15.38    0.76 
  -7  -1  -6   15.86    0.78 
  -7  -1  -6   16.40    0.71 
   7   1   6   15.88    0.97 
  -7   1  -6   15.10    0.77 
  -7   1  -6   14.84    0.70 
   7   1   6   16.23    0.91 
  -9  -1  -6   14.47    0.71 
  -9  -1  -6   14.87    0.73 
  -9  -1  -6   14.26    0.77 
  -9   1  -6   13.24    0.61 
  -9   1  -6   13.41    0.67 
 -11  -1  -6    2.86    0.18 
 -11   1  -6    3.59    0.20 
 -10  -2   6   16.19    0.86 
 -10  -2   6   16.76    0.79 
 -10   2   6   15.70    0.74 
  10   2  -6   13.95    0.79 
  -8  -2   6   11.27    0.64 
  -8  -2   6   11.13    0.59 
   8  -2  -6   12.44    0.66 
   8   2  -6    9.88    0.57 
   8   2  -6    9.67    0.54 
  -8   2   6    9.81    0.53 
  -8   2   6    9.35    0.50 
   8   2  -6    9.49    0.61 
   6  -2  -6   22.61    1.05 
   6  -2  -6   21.42    1.17 
  -6  -2   6   19.92    1.03 
   6  -2  -6   25.02    0.96 
  -6  -2   6   21.07    1.12 
  -6   2   6   15.70    0.79 
  -6   2   6   17.44    0.86 
  -6   2   6   16.68    0.84 
   6   2  -6   17.27    0.95 
   6   2  -6   17.86    1.02 
  -6   2   6   15.73    0.99 
  -4  -2   6   24.17    1.24 
   4  -2  -6   25.58    1.64 
   4   2  -6   18.80    1.24 
  -4   2   6   22.88    1.28 
  -4   2   6   23.00    1.83 
  -4   2   6   18.24    1.03 
   2  -2  -6   79.49    4.79 
  -2   2   6   63.64    3.79 
   0  -2  -6   32.65    2.02 
  -2   2  -6   67.55    4.14 
   2   2   6   71.53    4.24 
  -4  -2  -6   60.90    2.99 
  -4   2  -6   54.79    2.99 
  -4   2  -6   51.72    3.19 
  -6  -2  -6   14.05    0.70 
  -6  -2  -6   13.55    0.73 
   6  -2   6   14.54    0.70 
  -6  -2  -6   13.41    0.68 
  -6   2  -6   12.17    0.55 
   6   2   6   12.20    0.68 
   6   2   6   12.62    0.73 
  -6   2  -6   10.47    0.62 
  -6   2  -6   10.80    0.59 
  -8  -2  -6   19.01    0.92 
  -8  -2  -6   18.90    1.01 
  -8  -2  -6   20.08    0.96 
   8   2   6   17.53    1.11 
  -8   2  -6   17.37    0.88 
   8   2   6   18.62    1.05 
  -8   2  -6   18.27    0.81 
 -10  -2  -6    5.24    0.30 
 -10  -2  -6    5.12    0.30 
 -10   2  -6    3.49    0.20 
 -10   2  -6    3.71    0.22 
   9  -3  -6   12.15    0.70 
  -9  -3   6   12.75    0.70 
  -9  -3   6   13.01    0.64 
  -9   3   6   10.26    0.53 
   9   3  -6    9.98    0.60 
  -7  -3   6    2.94    0.28 
   7  -3  -6    3.86    0.21 
   7  -3  -6    3.60    0.27 
   7  -3  -6    3.90    0.18 
  -7  -3   6    3.02    0.29 
  -7   3   6    2.70    0.22 
   7   3  -6    2.18    0.18 
   7   3  -6    2.34    0.17 
   5  -3  -6   28.32    1.15 
   5  -3  -6   28.17    1.27 
   5  -3  -6   26.44    1.41 
  -5  -3   6   22.57    1.34 
   5  -3  -6   27.28    1.31 
   5  -3  -6   26.12    1.26 
   5  -3  -6   26.86    1.35 
  -5   3   6   20.30    1.24 
  -5   3   6   19.11    1.83 
  -5   3   6   19.81    1.15 
  -3   3   6   50.05    3.00 
  -3   3   6   57.42    3.22 
   1  -3  -6    5.72    0.55 
  -1  -3  -6   12.17    0.92 
  -1  -3  -6   13.58    0.68 
   1   3   6    9.41    0.83 
  -1   3  -6   10.95    0.65 
  -3  -3  -6   37.38    1.86 
  -3   3  -6   29.54    1.70 
  -3   3  -6   26.53    1.59 
  -5  -3  -6    2.87    0.24 
  -5  -3  -6    3.19    0.25 
   5  -3   6    3.45    0.24 
   5  -3   6    3.11    0.19 
  -5  -3  -6    3.34    0.26 
  -5   3  -6    3.20    0.28 
  -5   3  -6    3.47    0.23 
  -5   3  -6    3.49    0.27 
   7  -3   6    3.35    0.24 
  -7  -3  -6    3.09    0.26 
  -7  -3  -6    3.15    0.25 
   7  -3   6    3.35    0.19 
  -7  -3  -6    2.99    0.26 
   7   3   6    2.44    0.22 
  -7   3  -6    2.77    0.22 
  -7   3  -6    2.93    0.21 
   7   3   6    2.55    0.23 
  -9  -3  -6    8.48    0.50 
  -9  -3  -6    8.66    0.46 
  -9  -3  -6    9.49    0.48 
  -9   3  -6    7.10    0.34 
   9   3   6    6.73    0.44 
   8  -4  -6   14.26    0.69 
  -8   4   6   10.15    0.55 
   8   4  -6   11.15    0.61 
  -8   4   6   10.24    0.51 
   6  -4  -6   27.99    1.42 
   6  -4  -6   26.31    1.48 
   6  -4  -6   28.58    1.21 
   6  -4  -6   27.60    1.33 
   6  -4  -6   28.73    1.38 
  -6   4   6   19.79    1.14 
  -6   4   6   19.06    0.95 
   6   4  -6   18.79    1.07 
  -6   4   6   18.85    1.23 
   4  -4  -6   13.57    0.58 
   4  -4  -6   12.93    0.65 
   4  -4  -6   12.21    0.67 
   4  -4  -6   12.46    0.63 
   4  -4  -6   12.34    0.72 
   4  -4  -6   13.01    0.64 
  -4   4   6    8.82    0.56 
  -4   4   6    9.04    0.62 
  -2  -4   6    8.69    0.49 
   2  -4  -6    9.34    0.51 
   2  -4  -6    9.98    0.44 
   2  -4  -6    9.74    0.50 
   2  -4  -6    9.41    0.48 
   2  -4  -6    9.72    0.49 
   0  -4  -6   47.66    2.49 
   0  -4  -6   50.81    2.18 
   0  -4   6   54.41    2.56 
   0  -4  -6   46.27    2.39 
   0  -4  -6   48.10    2.56 
   0  -4   6   54.11    2.49 
   0  -4   6   52.58    2.65 
   0  -4   6   52.84    2.38 
   2  -4   6   36.01    1.71 
   2  -4   6   36.99    1.84 
  -2  -4  -6   35.40    1.73 
  -2  -4  -6   36.44    1.83 
   2  -4   6   36.70    1.79 
  -2  -4  -6   34.24    1.68 
  -2  -4  -6   37.69    1.57 
   2  -4   6   37.14    1.91 
  -2   4  -6   27.46    1.57 
  -2   4  -6   23.96    1.46 
   4  -4   6   14.31    0.74 
  -4  -4  -6   13.74    0.71 
   4  -4   6   15.26    0.72 
  -4  -4  -6   13.90    0.77 
   4  -4   6   13.99    0.69 
   4  -4   6   14.93    0.78 
  -4  -4  -6   13.05    0.73 
  -4   4  -6    9.74    0.64 
  -4   4  -6    9.74    0.60 
  -4   4  -6    9.09    0.47 
  -6  -4  -6   16.08    0.86 
  -6  -4  -6   16.28    0.92 
  -6  -4  -6   15.79    0.84 
   6  -4   6   18.79    0.86 
   6  -4   6   18.52    0.93 
  -6   4  -6   12.01    0.66 
  -6   4  -6   11.91    0.74 
  -6   4  -6   12.62    0.58 
  -8  -4  -6    6.53    0.41 
  -8  -4  -6    7.26    0.39 
   8   4   6    4.84    0.33 
  -8   4  -6    5.16    0.27 
   7  -5  -6    5.39    0.27 
   7  -5  -6    4.44    0.27 
   7  -5  -6    5.51    0.33 
   7  -5  -6    5.29    0.24 
  -7   5   6    4.03    0.24 
  -7   5   6    3.80    0.24 
   5  -5  -6    5.14    0.25 
   5  -5  -6    5.10    0.28 
   5  -5  -6    5.35    0.36 
   5  -5  -6    4.80    0.28 
   5  -5  -6    4.91    0.30 
  -5   5   6    4.64    0.31 
  -5   5   6    5.14    0.38 
   3  -5  -6   18.77    0.92 
   3  -5  -6   19.05    0.96 
   3  -5  -6   18.68    0.98 
   3  -5  -6   18.91    0.92 
   3  -5  -6   19.41    0.84 
  -3   5   6   12.54    0.85 
  -3   5   6   13.73    0.79 
  -1  -5   6   16.89    0.85 
   1  -5  -6   17.51    0.76 
   1  -5  -6   17.25    0.85 
   1  -5  -6   17.61    0.84 
   1  -5  -6   17.29    0.89 
   1  -5  -6   17.72    0.87 
  -1  -5   6   16.04    0.89 
  -1  -5  -6   15.80    0.77 
   1  -5   6   18.61    0.85 
  -1  -5  -6   14.84    0.87 
   1  -5   6   17.66    0.96 
   1  -5   6   18.60    0.90 
   1  -5   6   18.29    0.87 
   3  -5   6   19.13    0.94 
   3  -5   6   18.51    0.97 
   3  -5   6   18.59    0.91 
   3  -5   6   18.65    1.02 
  -3   5  -6   14.30    0.83 
  -3   5  -6   13.00    0.87 
   5  -5   6   23.41    1.10 
   5  -5   6   22.38    1.13 
   5  -5   6   21.82    1.06 
  -5  -5  -6   21.19    1.06 
  -5  -5  -6   21.28    1.15 
  -5   5  -6   16.95    0.77 
  -5   5  -6   17.11    1.00 
  -5   5  -6   16.55    1.07 
  -7  -5  -6    6.39    0.36 
   7  -5   6    6.08    0.37 
  -7   5  -6    5.62    0.32 
  -7   5  -6    5.53    0.28 
   6  -6  -6    5.97    0.27 
  -6   6   6    4.43    0.25 
   4  -6  -6    1.65    0.10 
   4  -6  -6    1.65    0.11 
   4  -6  -6    1.63    0.14 
   4  -6  -6    1.59    0.13 
  -4   6   6    1.21    0.20 
   2  -6  -6    2.54    0.15 
   2  -6  -6    2.62    0.18 
  -2  -6   6    2.69    0.33 
   2  -6  -6    2.65    0.17 
   2  -6  -6    2.64    0.19 
   0  -6  -6    3.02    0.18 
   0  -6  -6    3.15    0.21 
   0  -6  -6    2.94    0.19 
   0  -6   6    3.15    0.21 
   0  -6   6    3.24    0.23 
   2  -6   6    2.14    0.14 
   2  -6   6    2.14    0.18 
   2  -6   6    2.09    0.17 
  -2   6  -6    2.06    0.22 
  -2   6  -6    2.00    0.22 
   4  -6   6    2.49    0.18 
   4  -6   6    2.46    0.17 
   4  -6   6    2.50    0.15 
  -4   6  -6    2.62    0.24 
  -4   6  -6    2.91    0.22 
 -10   0   7    7.14    0.39 
 -10   0   7    6.78    0.41 
 -10   0   7    7.10    0.39 
  10   0  -7    7.11    0.41 
  -8   0   7    8.08    0.46 
  -8   0   7    8.68    0.46 
  -8   0   7    8.76    0.49 
   8   0  -7    8.40    0.49 
  -6   0   7   25.91    1.20 
  -6   0   7   26.03    1.31 
   4   0  -7    0.68    0.19 
   2   0  -7    0.53    0.14 
   0   0   7   71.13    4.30 
   0   0  -7   73.43    4.29 
   2   0   7    0.62    0.16 
   4   0   7   21.16    1.45 
   4   0   7   20.60    1.26 
  -6   0  -7   46.80    2.01 
   6   0   7   46.92    2.62 
  -6   0  -7   46.34    2.20 
  -8   0  -7    6.28    0.36 
  -8   0  -7    6.55    0.33 
 -10   0  -7    4.88    0.28 
 -11  -1   7    3.25    0.21 
 -11   1   7    3.17    0.20 
 -11   1   7    3.46    0.20 
  11   1  -7    3.40    0.21 
  -9  -1   7    4.96    0.32 
  -9  -1   7    4.52    0.34 
   9  -1  -7    5.36    0.33 
  -9   1   7    5.28    0.34 
  -9   1   7    5.55    0.32 
   9   1  -7    4.80    0.34 
  -9   1   7    5.56    0.33 
   7  -1  -7   29.58    1.58 
  -7  -1   7   29.80    1.39 
   7  -1  -7   29.26    1.42 
  -7  -1   7   31.74    1.53 
   7   1  -7   25.11    1.38 
   7   1  -7   26.91    1.48 
  -7   1   7   26.25    1.22 
  -7   1   7   25.61    1.27 
   7   1  -7   26.82    1.59 
  -7   1   7   26.61    1.33 
  -5  -1   7    1.21    0.13 
   5   1  -7    1.75    0.41 
  -5   1   7    1.67    0.15 
   5   1  -7    1.65    0.13 
   5   1  -7    1.46    0.38 
   5   1  -7    1.90    0.13 
   3  -1  -7   13.07    0.90 
   3   1  -7    9.96    0.60 
   3   1  -7    9.72    0.67 
   1  -1  -7  118.88    7.05 
  -1  -1  -7   64.68    3.87 
   1   1   7   52.51    3.19 
   3  -1   7   28.57    1.82 
   3   1   7   29.70    1.82 
   3   1   7   25.64    1.65 
   5  -1   7    6.77    0.75 
  -5  -1  -7    8.28    0.43 
   5   1   7    8.49    0.53 
  -7  -1  -7    6.72    0.37 
  -7  -1  -7    6.38    0.39 
  -7  -1  -7    6.31    0.37 
  -7  -1  -7    6.54    0.33 
   7   1   7    6.41    0.42 
   7   1   7    6.47    0.40 
  -7   1  -7    5.49    0.31 
  -7   1  -7    5.61    0.34 
  -9  -1  -7    4.79    0.29 
  -9  -1  -7    4.57    0.28 
  -9  -1  -7    4.17    0.30 
  -9   1  -7    5.79    0.33 
  -9   1  -7    6.04    0.31 
 -10  -2   7    6.40    0.39 
 -10  -2   7    6.52    0.36 
 -10   2   7    5.05    0.30 
 -10   2   7    5.25    0.31 
  10   2  -7    5.82    0.32 
  -8  -2   7    5.67    0.34 
  -8  -2   7    5.64    0.37 
   8  -2  -7    5.30    0.35 
   8  -2  -7    5.55    0.30 
  -8   2   7    4.29    0.31 
   8   2  -7    4.66    0.30 
   8   2  -7    4.89    0.30 
  -8   2   7    4.56    0.30 
   8   2  -7    4.45    0.32 
  -8   2   7    4.72    0.30 
  -6  -2   7   10.00    0.54 
  -6  -2   7   10.85    0.59 
   6  -2  -7   10.30    0.52 
   6  -2  -7   10.99    0.48 
   6  -2  -7   10.40    0.60 
   6  -2  -7   11.37    0.53 
   6   2  -7    8.49    0.51 
   6   2  -7    8.71    0.47 
  -6   2   7    7.47    0.45 
  -6   2   7    7.52    0.42 
  -6   2   7    8.32    0.45 
  -4  -2   7   31.02    1.54 
  -4   2   7   25.10    1.47 
  -4   2   7   22.46    1.29 
   4   2  -7   28.23    1.55 
  -4   2   7   26.44    2.28 
  -4   2   7   26.56    1.59 
   4   2  -7   27.06    1.45 
   2  -2  -7  100.54    6.03 
  -2   2   7   82.98    4.94 
   0  -2  -7   46.37    2.83 
   0   2  -7   37.25    2.23 
  -2   2  -7  137.61    8.44 
   2   2   7  146.34    8.49 
  -4  -2  -7   51.28    2.53 
  -4   2  -7   37.39    2.09 
  -4   2  -7   36.95    2.24 
  -6  -2  -7   21.76    1.05 
  -6  -2  -7   21.92    1.09 
  -6  -2  -7   22.77    1.15 
  -6  -2  -7   23.19    0.99 
   6   2   7   18.79    1.13 
   6   2   7   18.73    1.06 
  -6   2  -7   17.48    0.95 
  -6   2  -7   19.28    0.84 
  -8  -2  -7   14.68    0.80 
  -8  -2  -7   14.62    0.73 
  -8  -2  -7   15.54    0.76 
   8   2   7   12.37    0.75 
  -8   2  -7   11.23    0.55 
   8   2   7   12.75    0.71 
  -8   2  -7   10.57    0.59 
 -10  -2  -7    1.04    0.14 
 -10  -2  -7    1.13    0.15 
 -10   2  -7    0.35    0.07 
 -10   2  -7    0.35    0.08 
  -9  -3   7    7.20    0.41 
   9  -3  -7    6.80    0.41 
  -9  -3   7    6.96    0.43 
   9   3  -7    5.73    0.33 
  -9   3   7    5.69    0.32 
   9   3  -7    5.29    0.35 
   7  -3  -7    0.19    0.07 
   7  -3  -7    0.15    0.05 
  -7  -3   7    0.16    0.15 
  -7  -3   7    0.26    0.15 
   7  -3  -7    0.16    0.10 
   7   3  -7    0.11    0.05 
  -7   3   7    0.11    0.12 
   7   3  -7    0.14    0.05 
   5  -3  -7   16.75    0.84 
   5  -3  -7   15.91    0.91 
   5  -3  -7   16.23    0.81 
   5  -3  -7   17.35    0.74 
   5  -3  -7   17.52    0.81 
   5  -3  -7   16.54    0.86 
  -5   3   7    9.26    1.18 
  -5   3   7   12.34    0.69 
   5   3  -7   11.71    0.67 
   5   3  -7   10.95    0.63 
  -5   3   7    9.48    0.54 
  -5   3   7   12.13    0.74 
  -3   3   7   30.45    1.75 
  -3   3   7   29.56    1.54 
  -3   3   7   33.30    1.89 
   1  -3  -7   11.34    0.60 
   1  -3  -7   10.73    0.85 
  -1  -3  -7   18.63    1.29 
  -1  -3  -7   18.50    0.96 
  -1   3  -7   12.35    0.79 
   1   3   7   13.32    1.01 
   3  -3   7   38.46    1.80 
  -3  -3  -7   34.91    1.83 
  -3   3  -7   24.41    1.45 
  -3   3  -7   26.40    1.55 
  -5  -3  -7   24.77    1.24 
   5  -3   7   25.18    1.27 
  -5  -3  -7   23.06    1.17 
  -5  -3  -7   23.40    1.13 
  -5   3  -7   20.23    0.87 
  -5   3  -7   18.38    1.12 
  -7  -3  -7   10.66    0.55 
  -7  -3  -7    9.86    0.57 
  -7  -3  -7    9.99    0.54 
  -7   3  -7    7.41    0.44 
   7   3   7    7.86    0.51 
  -7   3  -7    7.96    0.40 
  -9  -3  -7   11.40    0.65 
  -9  -3  -7   11.72    0.60 
  -9  -3  -7   13.01    0.61 
  -9   3  -7    8.99    0.42 
   9   3   7    9.20    0.55 
   8  -4  -7   13.40    0.62 
   8  -4  -7   12.17    0.70 
  -8   4   7    9.22    0.46 
   8   4  -7    9.95    0.56 
   8   4  -7    9.48    0.53 
  -8   4   7    9.49    0.50 
   6  -4  -7   26.87    1.33 
   6  -4  -7   27.22    1.16 
   6  -4  -7   26.70    1.28 
   6  -4  -7   25.55    1.42 
   6  -4  -7   27.31    1.36 
  -6   4   7   18.53    0.92 
   6   4  -7   19.56    1.11 
  -6   4   7   16.69    1.18 
   6   4  -7   18.31    1.04 
  -6   4   7   18.76    1.10 
   4  -4  -7    9.74    0.56 
   4  -4  -7    9.86    0.44 
  -4  -4   7    8.35    0.53 
   4  -4  -7    9.88    0.49 
   4  -4  -7    9.39    0.51 
   4  -4  -7    9.37    0.48 
   4  -4  -7    9.96    0.50 
  -4   4   7    6.42    0.50 
  -4   4   7    7.25    0.46 
  -2  -4   7   20.91    1.05 
   2  -4  -7   20.77    0.98 
   2  -4  -7   19.66    1.04 
  -2  -4   7   21.24    0.99 
   2  -4  -7   20.78    0.89 
   2  -4  -7   19.59    1.02 
   2  -4  -7   19.22    0.98 
   0  -4  -7   89.60    4.52 
   0  -4  -7  102.98    4.13 
   0  -4  -7   94.40    4.85 
   0  -4  -7   94.78    4.76 
   0  -4  -7   90.40    4.34 
   0  -4   7   98.31    5.01 
   0  -4  -7   95.71    4.72 
   0  -4   7  102.65    4.85 
   0  -4   7  103.14    4.52 
  -2  -4  -7   34.90    1.48 
   2  -4   7   37.03    1.80 
  -2  -4  -7   32.39    1.63 
   2  -4   7   34.07    1.73 
  -2  -4  -7   32.85    1.72 
   2  -4   7   34.77    1.61 
  -2  -4  -7   33.18    1.58 
   2  -4   7   33.45    1.68 
  -2   4  -7   22.72    1.33 
  -2   4  -7   23.69    1.42 
  -4  -4  -7   16.40    0.92 
   4  -4   7   19.48    0.88 
  -4  -4  -7   15.78    0.85 
  -4  -4  -7   15.35    0.87 
   4  -4   7   18.37    0.95 
   4  -4   7   17.32    0.84 
   4  -4   7   18.75    0.90 
  -4   4  -7   11.30    0.55 
  -4   4  -7   11.81    0.75 
  -4   4  -7   11.72    0.71 
  -6  -4  -7   25.56    1.31 
  -6  -4  -7   25.06    1.20 
   6  -4   7   24.29    1.26 
  -6  -4  -7   27.27    1.24 
   6  -4   7   24.69    1.35 
  -6   4  -7   18.51    0.96 
  -6   4  -7   18.64    0.84 
  -8  -4  -7    9.84    0.49 
  -8  -4  -7    8.48    0.51 
  -8  -4  -7    9.03    0.48 
  -8   4  -7    6.38    0.35 
  -8   4  -7    6.51    0.31 
   8   4   7    6.07    0.40 
   7  -5  -7    3.35    0.24 
   7  -5  -7    3.29    0.19 
   7  -5  -7    3.05    0.16 
  -7   5   7    3.08    0.20 
   7   5  -7    2.99    0.19 
  -7   5   7    2.82    0.20 
   5  -5  -7   14.69    0.74 
   5  -5  -7   13.81    0.83 
   5  -5  -7   15.43    0.79 
   5  -5  -7   15.92    0.68 
   5  -5  -7   15.35    0.74 
   5  -5  -7   15.73    0.77 
  -5   5   7   10.73    0.64 
  -5   5   7    8.71    0.69 
  -5   5   7   10.51    0.54 
   3  -5  -7   29.01    1.18 
   3  -5  -7   27.26    1.34 
   3  -5  -7   26.53    1.29 
  -3  -5   7   23.13    1.31 
   3  -5  -7   27.88    1.38 
   3  -5  -7   28.02    1.29 
  -3   5   7   17.67    1.04 
  -1  -5   7   28.53    1.43 
   1  -5  -7   27.28    1.42 
   1  -5  -7   27.70    1.21 
   1  -5  -7   28.14    1.33 
  -1  -5   7   29.24    1.35 
   1  -5  -7   27.50    1.39 
   1  -5  -7   26.69    1.34 
   1  -5   7   26.86    1.41 
  -1  -5  -7   24.59    1.30 
   1  -5   7   26.60    1.34 
  -1  -5  -7   27.90    1.14 
   1  -5   7   27.06    1.26 
  -1  -5  -7   25.18    1.26 
   1  -5   7   24.26    1.29 
  -1   5  -7   18.30    1.14 
   3  -5   7   27.10    1.30 
  -3  -5  -7   24.35    1.27 
   3  -5   7   26.59    1.25 
   3  -5   7   27.33    1.34 
  -3  -5  -7   25.09    1.35 
  -3  -5  -7   26.26    1.25 
   3  -5   7   26.40    1.40 
  -3   5  -7   19.95    1.13 
  -3   5  -7   18.79    1.21 
  -5  -5  -7   24.35    1.16 
  -5  -5  -7   24.34    1.27 
   5  -5   7   23.78    1.25 
   5  -5   7   23.89    1.16 
   5  -5   7   25.80    1.21 
  -5   5  -7   18.09    1.21 
  -5   5  -7   19.30    1.14 
  -5   5  -7   20.42    1.01 
  -5   5  -7   20.31    0.88 
  -7  -5  -7    4.26    0.27 
   7  -5   7    3.61    0.25 
  -7   5  -7    3.26    0.19 
  -7   5  -7    3.40    0.22 
   4  -6  -7    1.78    0.14 
   4  -6  -7    1.79    0.12 
   4  -6  -7    1.83    0.14 
   4  -6  -7    1.78    0.11 
  -4   6   7    1.28    0.20 
   2  -6  -7    2.45    0.15 
   2  -6  -7    2.69    0.18 
   2  -6  -7    2.55    0.16 
   2  -6  -7    2.52    0.19 
   0  -6   7    7.28    0.39 
   0  -6   7    7.09    0.38 
   0  -6  -7    6.39    0.32 
   0  -6  -7    6.26    0.35 
   0  -6  -7    6.37    0.37 
   2  -6   7    3.08    0.21 
   2  -6   7    3.13    0.22 
   2  -6   7    3.12    0.18 
  -2   6  -7    2.76    0.25 
  -2   6  -7    2.78    0.23 
   4  -6   7    2.11    0.17 
   4  -6   7    2.16    0.16 
   4  -6   7    2.13    0.21 
   4  -6   7    2.28    0.14 
  -4   6  -7    1.89    0.19 
  -4   6  -7    1.95    0.18 
  10   0  -8    6.48    0.38 
 -10   0   8    6.31    0.38 
 -10   0   8    6.32    0.36 
  -8   0   8    7.82    0.45 
   8   0  -8    7.45    0.45 
  -8   0   8    7.06    0.42 
  -8   0   8    7.71    0.42 
  -6   0   8   16.45    0.79 
   6   0  -8   16.54    0.88 
  -6   0   8   16.42    0.85 
   4   0  -8   11.37    0.83 
  -4   0   8   11.78    0.60 
   2   0  -8   31.73    1.94 
   0   0  -8    7.41    0.50 
   2   0   8    0.16    0.13 
   4   0   8   13.06    1.01 
   4   0   8   13.07    0.81 
  -6   0  -8   21.06    0.92 
   6   0   8   20.82    1.19 
  -6   0  -8   20.63    1.01 
  -8   0  -8    6.44    0.36 
  -8   0  -8    6.39    0.33 
 -10   0  -8    5.42    0.30 
 -11  -1   8    3.50    0.22 
  11   1  -8    3.67    0.23 
 -11   1   8    4.08    0.22 
   9  -1  -8   10.79    0.65 
  -9  -1   8   12.00    0.65 
  -9  -1   8   12.10    0.60 
  -9   1   8   10.56    0.53 
  -9   1   8    9.85    0.53 
  -9   1   8    9.93    0.56 
  -7  -1   8   16.76    0.84 
   7  -1  -8   17.69    0.83 
   7  -1  -8   17.51    0.94 
  -7  -1   8   17.51    0.91 
  -7   1   8   15.92    0.74 
  -7   1   8   15.92    0.80 
   7   1  -8   14.81    0.87 
  -7   1   8   14.80    0.76 
   7   1  -8   14.13    0.81 
  -5  -1   8    2.39    0.18 
   5   1  -8    2.28    0.16 
  -5   1   8    2.91    0.19 
   5   1  -8    2.26    0.17 
   5   1  -8    2.65    0.48 
   3  -1  -8   59.09    3.59 
   3   1  -8   47.59    3.01 
   3   1  -8   52.23    2.98 
  -3   1   8   50.45    3.00 
   1  -1  -8  106.25    6.32 
  -1  -1  -8  112.34    6.67 
   1   1   8   85.98    5.16 
   3  -1   8    2.72    0.36 
   3   1   8    3.42    0.43 
   3   1   8    3.14    0.23 
  -5  -1  -8    5.79    0.34 
   5   1   8    5.50    0.38 
   5   1   8    5.89    0.37 
  -7  -1  -8    0.44    0.10 
  -7  -1  -8    0.35    0.12 
  -7  -1  -8    0.33    0.09 
  -7  -1  -8    0.40    0.13 
  -7   1  -8    0.73    0.14 
   7   1   8    0.75    0.17 
   7   1   8    0.60    0.13 
  -7   1  -8    0.62    0.11 
  -9  -1  -8    3.86    0.27 
  -9  -1  -8    4.03    0.25 
  -9   1  -8    4.23    0.23 
  -9   1  -8    4.12    0.25 
 -10  -2   8    3.97    0.26 
 -10  -2   8    3.52    0.26 
 -10   2   8    3.27    0.21 
 -10   2   8    2.94    0.21 
   8  -2  -8    8.59    0.43 
   8  -2  -8    8.19    0.49 
  -8  -2   8    8.30    0.46 
  -8  -2   8    8.38    0.50 
  -8   2   8    7.34    0.43 
   8   2  -8    7.28    0.44 
   8   2  -8    7.02    0.47 
  -8   2   8    7.29    0.41 
  -8   2   8    7.18    0.40 
   8   2  -8    7.30    0.43 
   6  -2  -8    8.93    0.46 
   6  -2  -8    9.00    0.52 
   6  -2  -8    9.79    0.47 
  -6  -2   8    8.61    0.48 
  -6  -2   8    9.47    0.52 
  -6   2   8    7.10    0.39 
   6   2  -8    7.39    0.46 
  -6   2   8    6.62    0.41 
   6   2  -8    7.53    0.42 
  -6   2   8    7.63    0.42 
  -4  -2   8   78.39    3.84 
  -4   2   8   75.98    6.07 
   4   2  -8   67.04    4.01 
  -4   2   8   67.96    3.53 
  -4   2   8   75.40    4.32 
  -4   2   8   70.08    4.03 
   4   2  -8   76.79    4.29 
   2  -2  -8   44.10    2.75 
  -2   2   8   34.90    2.09 
   0  -2  -8   91.66    5.49 
   0   2  -8   65.18    3.88 
  -2  -2  -8   69.81    3.42 
  -2   2  -8   52.61    3.31 
   2   2   8   58.32    3.45 
  -4  -2  -8   13.65    0.72 
  -4   2  -8    9.72    0.58 
  -6  -2  -8   22.00    1.08 
  -6  -2  -8   23.98    1.02 
  -6  -2  -8   22.85    1.18 
  -6  -2  -8   23.04    1.12 
  -6   2  -8   17.22    0.77 
  -6   2  -8   15.65    0.87 
   6   2   8   17.71    1.04 
  -8  -2  -8    1.89    0.18 
  -8  -2  -8    1.60    0.20 
  -8  -2  -8    2.00    0.21 
  -8   2  -8    1.07    0.14 
  -8   2  -8    0.90    0.12 
 -10  -2  -8    2.75    0.21 
 -10  -2  -8    2.79    0.19 
 -10   2  -8    2.84    0.16 
  -9  -3   8    4.36    0.32 
   9  -3  -8    4.95    0.30 
  -9  -3   8    4.39    0.31 
  -9   3   8    3.88    0.24 
   9   3  -8    3.20    0.25 
   9   3  -8    3.91    0.25 
  -7  -3   8    0.33    0.16 
   7  -3  -8    0.47    0.08 
   7  -3  -8    0.44    0.12 
   7  -3  -8    0.41    0.06 
  -7   3   8    0.35    0.13 
   7   3  -8    0.38    0.08 
   7   3  -8    0.24    0.06 
  -7   3   8    0.23    0.12 
   5  -3  -8    7.06    0.36 
   5  -3  -8    6.89    0.32 
   5  -3  -8    6.47    0.35 
   5  -3  -8    6.85    0.38 
   5  -3  -8    6.47    0.41 
   5  -3  -8    7.12    0.36 
   5   3  -8    4.68    0.29 
  -5   3   8    4.18    0.28 
  -5   3   8    4.25    0.28 
  -5   3   8    5.12    0.35 
  -5   3   8    5.04    0.38 
   5   3  -8    4.38    0.27 
   3  -3  -8   33.76    1.83 
   3  -3  -8   36.32    1.72 
   3  -3  -8   38.72    1.57 
   3   3  -8   24.15    1.48 
  -3   3   8   24.02    1.40 
  -3   3   8   23.88    1.23 
  -3   3   8   26.60    1.51 
   1  -3  -8   13.00    0.69 
  -1  -3  -8   10.31    0.57 
  -1   3  -8    6.91    0.43 
  -1   3  -8    6.24    0.41 
   3  -3   8   69.99    3.52 
  -3  -3  -8   67.37    3.35 
   3  -3   8   75.07    3.32 
  -3  -3  -8   64.95    3.06 
  -3  -3  -8   63.02    3.18 
   3  -3   8   71.92    3.41 
  -3  -3  -8   63.58    2.91 
  -3   3  -8   49.78    2.88 
  -3   3  -8   45.95    2.69 
   5  -3   8   28.46    1.63 
  -5  -3  -8   32.88    1.58 
  -5  -3  -8   31.28    1.36 
  -5  -3  -8   31.05    1.49 
  -5  -3  -8   32.56    1.45 
   5  -3   8   30.24    1.53 
  -5   3  -8   22.67    1.16 
  -5   3  -8   22.13    1.31 
  -5   3  -8   23.35    1.02 
  -7  -3  -8    7.17    0.41 
  -7  -3  -8    6.89    0.45 
  -7  -3  -8    7.53    0.42 
  -7   3  -8    5.22    0.33 
   7   3   8    5.21    0.38 
   7   3   8    5.71    0.37 
  -7   3  -8    5.41    0.30 
  -9  -3  -8    8.61    0.45 
  -9  -3  -8    8.23    0.44 
   9   3   8    6.25    0.41 
  -9   3  -8    6.42    0.31 
   8  -4  -8    8.13    0.48 
   8  -4  -8    8.53    0.42 
  -8   4   8    5.86    0.32 
  -8   4   8    6.05    0.34 
   8   4  -8    5.88    0.36 
   8   4  -8    5.98    0.35 
   6  -4  -8   25.51    1.20 
   6  -4  -8   24.87    1.28 
   6  -4  -8   23.88    1.34 
   6  -4  -8   25.16    1.20 
   6  -4  -8   25.93    1.10 
   6  -4  -8   25.23    1.25 
  -6   4   8   15.35    0.75 
   6   4  -8   14.46    0.89 
  -6   4   8   13.91    0.97 
   6   4  -8   14.17    0.83 
  -6   4   8   15.38    0.89 
   4  -4  -8   27.30    1.26 
   4  -4  -8   25.17    1.35 
   4  -4  -8   26.78    1.10 
   4  -4  -8   24.91    1.21 
   4  -4  -8   25.19    1.29 
  -4  -4   8   21.77    1.23 
   4  -4  -8   25.46    1.21 
  -4   4   8   15.08    1.00 
  -4   4   8   15.97    0.92 
   2  -4  -8   30.16    1.53 
   2  -4  -8   31.71    1.43 
   2  -4  -8   31.44    1.49 
   2  -4  -8   31.62    1.31 
  -2  -4   8   27.66    1.53 
  -2  -4   8   28.74    1.44 
   2  -4  -8   28.88    1.43 
   0  -4  -8   52.21    2.48 
   0  -4  -8   52.59    2.28 
   0  -4  -8   50.27    2.35 
   0  -4   8   47.30    2.60 
   0  -4   8   44.56    2.51 
   0  -4  -8   49.46    2.51 
   0  -4   8   47.62    2.34 
   0  -4  -8   48.84    2.45 
   0  -4  -8   55.81    2.15 
   0   4  -8   30.18    1.83 
   2  -4   8   31.96    1.52 
   2  -4   8   32.80    1.70 
  -2  -4  -8   33.24    1.40 
   2  -4   8   31.43    1.58 
  -2  -4  -8   31.37    1.50 
  -2  -4  -8   32.69    1.64 
   2  -4   8   33.36    1.64 
  -2  -4  -8   30.04    1.59 
  -2  -4  -8   32.77    1.55 
  -2   4  -8   20.72    1.22 
  -2   4  -8   21.60    1.30 
   4  -4   8   17.89    0.89 
   4  -4   8   17.52    0.91 
  -4  -4  -8   17.91    0.89 
  -4  -4  -8   17.74    0.87 
   4  -4   8   17.78    0.96 
  -4  -4  -8   18.00    0.94 
   4  -4   8   16.63    0.85 
  -4   4  -8   12.85    0.60 
  -4   4  -8   12.23    0.81 
  -4   4  -8   13.03    0.76 
   6  -4   8    5.13    0.32 
  -6  -4  -8    6.24    0.40 
  -6  -4  -8    6.28    0.37 
  -6  -4  -8    6.53    0.39 
   6  -4   8    5.63    0.37 
  -6   4  -8    4.96    0.28 
  -6   4  -8    5.26    0.33 
  -8  -4  -8   12.40    0.61 
  -8  -4  -8   11.35    0.59 
  -8   4  -8    9.92    0.49 
   8   4   8    8.79    0.56 
  -8   4  -8    9.16    0.43 
   7  -5  -8    6.16    0.29 
   7  -5  -8    5.99    0.36 
   7  -5  -8    6.60    0.32 
   7   5  -8    4.74    0.30 
  -7   5   8    5.30    0.28 
  -7   5   8    5.33    0.29 
   5  -5  -8   15.74    0.69 
   5  -5  -8   14.28    0.85 
   5  -5  -8   15.97    0.81 
   5  -5  -8   15.72    0.76 
   5  -5  -8   15.62    0.76 
   5  -5  -8   15.97    0.79 
  -5   5   8   10.26    0.50 
  -5   5   8    8.09    0.64 
  -5   5   8   10.30    0.60 
   5   5  -8    8.33    0.52 
   3  -5  -8   25.10    1.27 
   3  -5  -8   25.69    1.19 
   3  -5  -8   24.73    1.23 
   3  -5  -8   25.67    1.08 
  -3  -5   8   22.77    1.21 
   3  -5  -8   24.19    1.19 
  -3   5   8   15.61    1.00 
  -1  -5   8   38.02    1.93 
   1  -5  -8   40.65    1.92 
   1  -5  -8   42.25    2.06 
   1  -5  -8   42.46    2.00 
  -1  -5   8   36.74    2.05 
   1  -5  -8   43.15    1.75 
   1  -5   8   12.44    0.70 
  -1  -5  -8   13.99    0.68 
   1  -5   8   12.54    0.66 
  -1  -5  -8   14.22    0.68 
   1  -5   8   12.71    0.76 
  -1   5  -8    9.04    0.56 
  -1   5  -8    9.03    0.60 
   3  -5   8   10.37    0.55 
  -3  -5  -8    9.56    0.59 
   3  -5   8   10.31    0.60 
  -3  -5  -8   10.39    0.55 
   3  -5   8   10.08    0.53 
  -3  -5  -8   10.09    0.56 
   3  -5   8   10.87    0.53 
  -3   5  -8    9.10    0.57 
  -3   5  -8    8.81    0.60 
   5  -5   8   10.24    0.52 
   5  -5   8   10.20    0.59 
  -5  -5  -8   10.82    0.60 
   5  -5   8    9.80    0.55 
  -5  -5  -8   11.10    0.55 
   5  -5   8   10.01    0.53 
  -5   5  -8    8.70    0.43 
  -5   5  -8    7.89    0.54 
  -5   5  -8    9.64    0.50 
  -7  -5  -8    1.37    0.18 
  -7   5  -8    1.07    0.11 
  -7   5  -8    0.98    0.10 
   4  -6  -8    3.35    0.19 
   4  -6  -8    3.44    0.20 
   4  -6  -8    3.28    0.17 
   4  -6  -8    3.53    0.21 
  -4   6   8    2.25    0.23 
   2  -6  -8    2.47    0.16 
   2  -6  -8    2.51    0.17 
   2  -6  -8    2.35    0.14 
  -2  -6   8    2.03    0.25 
   2  -6  -8    2.29    0.18 
   0  -6   8    6.94    0.48 
   0  -6   8    6.30    0.40 
   0  -6  -8    7.69    0.38 
   0  -6   8    6.85    0.40 
   0  -6  -8    7.37    0.33 
   0   6  -8    4.14    0.29 
   2  -6   8    3.82    0.24 
   2  -6   8    3.61    0.21 
   2  -6   8    3.63    0.24 
  -2   6  -8    2.88    0.23 
   4  -6   8    2.69    0.18 
   4  -6   8    2.61    0.18 
   4  -6   8    2.53    0.22 
  -4   6  -8    2.05    0.20 
  -4   6  -8    2.37    0.18 
 -10   0   9    3.60    0.25 
 -10   0   9    3.31    0.26 
  10   0  -9    3.85    0.25 
  -8   0   9    3.83    0.29 
  -8   0   9    4.19    0.29 
   8   0  -9    3.96    0.29 
   6   0  -9   30.44    1.57 
   6   0  -9   29.22    1.41 
  -6   0   9   30.69    1.51 
  -6   0   9   29.29    1.38 
   4   0  -9   32.76    2.07 
  -4   0   9   32.77    1.62 
   2   0  -9    1.17    0.21 
   0   0  -9   15.63    1.00 
   0   0   9   16.42    1.04 
   2   0   9    0.14    0.11 
   4   0   9   30.35    1.75 
   4   0   9   27.56    1.94 
  -6   0  -9   16.86    0.83 
   6   0   9   16.47    0.98 
  -6   0  -9   17.36    0.76 
  -8   0  -9    5.52    0.32 
  -8   0  -9    5.24    0.28 
 -10   0  -9    3.42    0.19 
 -10   0  -9    3.47    0.21 
  11  -1  -9    3.42    0.21 
 -11  -1   9    3.08    0.20 
 -11   1   9    3.24    0.20 
  -9  -1   9   17.89    0.87 
  -9  -1   9   17.55    0.94 
   9  -1  -9   18.45    0.97 
  -9   1   9   16.11    0.86 
   9   1  -9   16.35    0.88 
  -9   1   9   16.34    0.79 
  -9   1   9   16.50    0.81 
  -7  -1   9   25.57    1.17 
   7  -1  -9   24.71    1.18 
  -7  -1   9   25.26    1.28 
   7  -1  -9   23.96    1.32 
   7   1  -9   21.54    1.22 
  -7   1   9   22.27    1.02 
  -7   1   9   21.70    1.10 
  -7   1   9   21.03    1.05 
   7   1  -9   20.87    1.14 
  -5  -1   9   46.07    2.28 
   5   1  -9   43.37    3.55 
   5   1  -9   41.24    2.41 
   5   1  -9   39.47    2.25 
  -5   1   9   37.80    2.00 
   3  -1  -9   33.95    2.13 
   3   1  -9   33.06    1.98 
  -3   1   9   33.47    2.01 
   1  -1  -9  100.97    6.02 
  -1   1   9   85.47    5.08 
  -1  -1  -9    8.50    0.62 
   1   1   9    7.92    0.53 
   1   1   9    9.05    0.65 
  -3  -1  -9   36.23    1.80 
   3   1   9   32.18    2.11 
   3   1   9   31.89    1.92 
  -5  -1  -9    5.77    0.34 
  -5  -1  -9    5.58    0.29 
  -5  -1  -9    5.97    0.32 
   5   1   9    5.06    0.34 
  -5   1  -9    4.89    0.26 
   5   1   9    4.95    0.33 
  -7  -1  -9    8.99    0.43 
  -7  -1  -9    9.04    0.51 
  -7  -1  -9    8.56    0.47 
  -7  -1  -9    9.27    0.48 
  -7   1  -9    9.22    0.46 
   7   1   9    7.91    0.58 
  -7   1  -9    9.87    0.43 
   7   1   9    8.12    0.55 
  -9  -1  -9   11.17    0.55 
  -9  -1  -9   10.15    0.54 
  -9  -1  -9   10.93    0.50 
  -9   1  -9   10.25    0.53 
  -9   1  -9   10.55    0.48 
  10  -2  -9   14.39    0.78 
 -10  -2   9   14.48    0.69 
 -10   2   9   14.44    0.68 
  10   2  -9   13.60    0.74 
 -10   2   9   13.56    0.66 
   8  -2  -9    6.07    0.37 
  -8  -2   9    5.45    0.38 
  -8  -2   9    5.67    0.36 
   8  -2  -9    6.11    0.31 
   8   2  -9    5.34    0.33 
  -8   2   9    5.40    0.32 
  -8   2   9    5.58    0.33 
  -8   2   9    5.14    0.33 
   8   2  -9    4.86    0.33 
   6  -2  -9   18.47    0.91 
   6  -2  -9   18.36    0.90 
  -6  -2   9   19.04    0.91 
  -6  -2   9   20.46    0.99 
   6  -2  -9   18.12    1.01 
   6   2  -9   17.27    0.96 
  -6   2   9   15.32    0.82 
  -6   2   9   15.45    0.76 
   6   2  -9   16.93    0.89 
  -6   2   9   14.59    0.79 
   6   2  -9   15.11    0.75 
  -4  -2   9   85.39    4.18 
  -4   2   9   79.25    6.46 
  -4   2   9   75.53    4.29 
  -4   2   9   71.99    3.76 
   4   2  -9   79.58    4.57 
  -4   2   9   80.93    4.60 
   4   2  -9   73.69    4.26 
   2  -2  -9   15.99    0.84 
   2  -2  -9   16.57    1.14 
  -2   2   9   14.96    0.91 
  -2   2   9   14.32    0.75 
   2   2  -9   15.09    0.89 
   0  -2  -9    9.27    0.70 
   0   2  -9    7.13    0.45 
  -2  -2  -9   37.18    1.85 
  -2   2  -9   32.57    2.03 
   2   2   9   35.04    2.20 
  -4  -2  -9   31.29    1.57 
  -4  -2  -9   32.19    1.65 
   4  -2   9   35.66    1.63 
  -4  -2  -9   33.10    1.52 
  -4   2  -9   25.85    1.23 
   4   2   9   23.82    1.46 
  -4   2  -9   22.94    1.38 
  -6  -2  -9    4.18    0.25 
  -6  -2  -9    4.38    0.30 
  -6  -2  -9    4.29    0.30 
  -6  -2  -9    4.39    0.28 
   6   2   9    3.32    0.27 
   6   2   9    3.14    0.26 
  -8  -2  -9   12.00    0.62 
  -8  -2  -9   12.32    0.68 
  -8  -2  -9   12.52    0.63 
   8   2   9    9.78    0.69 
  -8   2  -9   11.78    0.50 
   8   2   9   10.14    0.65 
 -10  -2  -9    8.74    0.43 
 -10  -2  -9    8.11    0.43 
 -10   2  -9    7.43    0.34 
   9  -3  -9    2.19    0.18 
   9  -3  -9    2.23    0.14 
  -9  -3   9    1.55    0.23 
  -9   3   9    1.81    0.15 
   9   3  -9    1.19    0.15 
   9   3  -9    1.64    0.16 
  -7  -3   9    0.20    0.15 
   7  -3  -9    0.29    0.11 
   7  -3  -9    0.15    0.05 
   7  -3  -9    0.22    0.07 
  -7   3   9    0.24    0.12 
  -7   3   9    0.27    0.12 
   7   3  -9    0.20    0.06 
   5  -3  -9    3.44    0.20 
   5  -3  -9    3.45    0.22 
   5  -3  -9    3.30    0.18 
   5  -3  -9    3.64    0.26 
   5  -3  -9    3.31    0.21 
   5  -3  -9    3.27    0.21 
  -5   3   9    2.62    0.22 
  -5   3   9    2.65    0.22 
  -5   3   9    2.92    0.30 
   5   3  -9    3.11    0.19 
  -5   3   9    3.07    0.28 
   5   3  -9    3.32    0.20 
   3  -3  -9   22.92    1.17 
   3  -3  -9   23.81    1.00 
  -3  -3   9   23.01    1.12 
   3  -3  -9   24.16    1.15 
   3  -3  -9   23.57    1.09 
   3  -3  -9   21.32    1.10 
  -3  -3   9   22.78    1.24 
   3  -3  -9   22.27    1.07 
   3   3  -9   18.97    1.10 
  -3   3   9   19.29    1.13 
  -3   3   9   17.74    0.92 
   3   3  -9   17.30    1.03 
  -3   3   9   17.85    1.05 
   1  -3  -9   12.12    0.65 
   1   3  -9    9.49    0.59 
   1   3  -9   10.63    0.63 
  -1  -3  -9   32.52    1.64 
  -1   3  -9   27.95    1.61 
  -1   3  -9   24.98    1.50 
  -3  -3  -9   45.55    1.94 
   3  -3   9   45.54    2.27 
   3  -3   9   43.54    2.34 
  -3  -3  -9   46.11    2.06 
  -3  -3  -9   44.59    2.13 
   3  -3   9   45.69    2.21 
  -3  -3  -9   46.33    2.25 
   3  -3   9   42.81    2.11 
  -3   3  -9   33.07    1.95 
  -3   3  -9   32.08    1.82 
  -3   3  -9   31.16    1.40 
  -5  -3  -9   24.64    1.18 
  -5  -3  -9   24.57    1.10 
   5  -3   9   25.58    1.24 
  -5  -3  -9   23.96    1.21 
  -5  -3  -9   26.02    1.29 
  -5   3  -9   20.44    0.90 
  -5   3  -9   19.67    1.03 
  -7  -3  -9   18.15    0.91 
  -7  -3  -9   18.22    0.89 
  -7  -3  -9   18.45    0.97 
   7   3   9   13.07    0.90 
  -7   3  -9   15.70    0.67 
  -7   3  -9   15.19    0.76 
   7   3   9   13.98    0.85 
  -9  -3  -9    8.24    0.42 
  -9  -3  -9    7.77    0.42 
  -9   3  -9    6.49    0.29 
   9   3   9    5.63    0.38 
   8  -4  -9    5.59    0.29 
   8  -4  -9    5.20    0.33 
   8   4  -9    3.96    0.24 
   8   4  -9    3.65    0.24 
  -8   4   9    3.54    0.23 
  -8   4   9    3.83    0.24 
   6  -4  -9   10.82    0.57 
   6  -4  -9   10.46    0.53 
   6  -4  -9   10.66    0.48 
   6  -4  -9   10.69    0.53 
   6  -4  -9   10.36    0.54 
   6  -4  -9   10.57    0.60 
  -6   4   9    6.22    0.37 
   6   4  -9    6.11    0.36 
  -6   4   9    6.52    0.44 
  -6   4   9    5.15    0.48 
   6   4  -9    6.34    0.39 
   4  -4  -9   16.19    0.82 
   4  -4  -9   16.44    0.81 
   4  -4  -9   17.09    0.75 
   4  -4  -9   17.39    0.85 
   4  -4  -9   16.44    0.87 
   4   4  -9    9.60    0.60 
  -4   4   9   10.11    0.61 
  -4   4   9    9.54    0.66 
   2  -4  -9   13.19    0.70 
   2  -4  -9   13.05    0.65 
   2  -4  -9   13.90    0.67 
   2  -4  -9   13.33    0.69 
   2  -4  -9   14.34    0.59 
  -2  -4   9   11.14    0.66 
   2  -4  -9   12.84    0.65 
  -2  -4   9   10.97    0.76 
   2  -4  -9   14.03    0.65 
  -2   4   9    8.51    0.44 
   2   4  -9    7.63    0.51 
   0  -4  -9   14.77    0.84 
   0  -4  -9   16.20    0.80 
   0  -4  -9   15.78    0.81 
   0  -4   9   17.77    0.85 
   0  -4   9   16.88    0.80 
   0  -4   9   17.25    0.90 
   0  -4  -9   16.09    0.73 
   0  -4  -9   16.54    0.86 
   0  -4  -9   14.71    0.82 
   0   4  -9   14.15    0.85 
   0   4  -9   13.21    0.80 
   2  -4   9   37.88    1.76 
   2  -4   9   40.30    1.89 
  -2  -4  -9   34.61    1.72 
  -2  -4  -9   35.80    1.77 
  -2  -4  -9   35.78    1.61 
  -2  -4  -9   36.38    1.88 
   2  -4   9   38.79    1.96 
   2  -4   9   38.77    1.83 
  -2  -4  -9   36.14    1.83 
  -2   4  -9   30.93    1.81 
  -2   4  -9   28.31    1.68 
  -4  -4  -9    7.10    0.43 
  -4  -4  -9    6.98    0.45 
   4  -4   9    6.69    0.37 
   4  -4   9    7.06    0.40 
   4  -4   9    7.07    0.43 
  -4  -4  -9    6.65    0.35 
  -4  -4  -9    7.06    0.41 
   4  -4   9    7.28    0.37 
  -4   4  -9    6.04    0.33 
  -4   4  -9    6.43    0.38 
  -4   4  -9    6.08    0.44 
  -4   4  -9    6.05    0.42 
   6  -4   9   14.87    0.83 
  -6  -4  -9   15.61    0.78 
  -6  -4  -9   15.53    0.77 
  -6  -4  -9   15.08    0.83 
  -6   4  -9   13.26    0.69 
  -6   4  -9   12.88    0.60 
  -8  -4  -9   13.31    0.68 
  -8  -4  -9   14.81    0.70 
   8   4   9   10.73    0.63 
  -8   4  -9   10.65    0.49 
  -8   4  -9   10.94    0.55 
   7  -5  -9   10.88    0.46 
   7  -5  -9    9.15    0.56 
   7  -5  -9   11.21    0.51 
  -7   5   9    8.75    0.42 
   7   5  -9    7.38    0.47 
  -7   5   9    8.31    0.39 
   5  -5  -9    9.65    0.45 
   5  -5  -9    9.68    0.50 
   5  -5  -9   10.19    0.52 
   5  -5  -9    9.34    0.49 
   5  -5  -9    9.77    0.49 
  -5   5   9    6.52    0.38 
  -5   5   9    6.54    0.45 
   3  -5  -9   16.75    0.82 
   3  -5  -9   16.96    0.82 
  -3  -5   9   14.27    0.85 
   3  -5  -9   17.63    0.85 
   3  -5  -9   17.17    0.87 
   3  -5  -9   17.54    0.75 
  -3   5   9   10.03    0.62 
  -3   5   9    9.83    0.67 
  -1  -5   9   15.21    0.90 
   1  -5  -9   18.30    0.77 
  -1  -5   9   15.84    0.86 
   1  -5  -9   17.88    0.89 
   1  -5  -9   18.22    0.87 
   1  -5  -9   17.20    0.85 
   1   5  -9   10.13    0.64 
   1  -5   9    2.07    0.14 
  -1  -5  -9    1.88    0.15 
   1  -5   9    2.46    0.27 
   1  -5   9    2.42    0.21 
  -1  -5  -9    1.66    0.21 
  -1  -5  -9    1.95    0.27 
   1  -5   9    2.38    0.18 
  -1   5  -9    2.41    0.22 
  -1   5  -9    2.08    0.22 
  -1   5  -9    2.32    0.23 
   3  -5   9    1.87    0.14 
  -3  -5  -9    2.62    0.16 
  -3  -5  -9    2.40    0.26 
   3  -5   9    1.79    0.23 
   3  -5   9    2.10    0.18 
   3  -5   9    2.28    0.19 
  -3  -5  -9    2.71    0.27 
  -3   5  -9    2.05    0.23 
  -3   5  -9    2.55    0.22 
  -3   5  -9    2.17    0.23 
   5  -5   9    6.80    0.42 
  -5  -5  -9    7.22    0.39 
  -5  -5  -9    6.82    0.40 
  -5  -5  -9    6.39    0.43 
   5  -5   9    6.88    0.39 
  -5   5  -9    5.75    0.33 
  -5   5  -9    4.95    0.35 
  -7   5  -9    0.85    0.11 
   4  -6  -9    3.66    0.21 
   4  -6  -9    3.59    0.19 
   4  -6  -9    3.81    0.22 
   4  -6  -9    3.82    0.21 
  -4   6   9    2.75    0.19 
  -4   6   9    2.19    0.23 
  -2  -6   9    1.51    0.23 
   2  -6  -9    1.40    0.11 
   2  -6  -9    1.34    0.11 
   2  -6  -9    1.37    0.14 
   2  -6  -9    1.57    0.13 
   0  -6   9    4.71    0.30 
   0  -6  -9    4.40    0.26 
   0  -6  -9    4.30    0.23 
   0  -6   9    4.85    0.29 
   0   6  -9    3.44    0.25 
   2  -6   9    4.52    0.29 
   2  -6   9    4.61    0.28 
  -2   6  -9    3.77    0.27 
  -2   6  -9    3.46    0.25 
   4  -6   9    3.87    0.24 
   4  -6   9    3.97    0.24 
  -4   6  -9    3.76    0.24 
  10   0 -10    3.47    0.23 
 -10   0  10    3.20    0.23 
 -10   0  10    3.09    0.24 
   8   0 -10   12.80    0.70 
  -8   0  10   12.17    0.64 
  -8   0  10   13.01    0.69 
  -6   0  10   21.25    1.06 
   6   0 -10   21.34    1.09 
  -6   0  10   19.92    0.97 
   6   0 -10   19.67    0.98 
  -4   0  10   23.84    1.17 
   4   0 -10   22.51    1.51 
   0   0  10   20.68    1.32 
   0   0 -10   20.65    1.29 
   2   0  10   33.19    1.99 
   4   0  10   27.20    1.50 
   4   0  10   28.24    1.61 
   4   0  10   23.86    1.82 
   6   0  10    9.11    0.54 
  -6   0 -10    8.40    0.42 
  -6   0 -10    8.59    0.46 
  -8   0 -10    0.14    0.09 
  -8   0 -10    0.01    0.07 
 -10   0 -10    6.27    0.33 
 -10   0 -10    6.08    0.29 
  -9  -1  10   16.05    0.87 
  -9  -1  10   16.02    0.80 
   9  -1 -10   17.29    0.89 
  -9   1  10   15.43    0.75 
  -9   1  10   14.37    0.79 
   9   1 -10   15.17    0.81 
  -9   1  10   14.70    0.73 
   7  -1 -10   81.11    3.81 
  -7  -1  10   79.88    3.68 
  -7  -1  10   84.81    4.03 
   7  -1 -10   80.97    4.22 
  -7   1  10   67.94    3.13 
   7   1 -10   72.11    3.59 
  -7   1  10   67.12    3.26 
  -7   1  10   67.69    3.42 
   7   1 -10   69.19    3.23 
   7   1 -10   72.31    3.87 
  -5  -1  10   48.02    2.22 
   5  -1 -10   41.29    2.09 
   5   1 -10   41.79    2.37 
  -5   1  10   42.95    2.10 
  -5   1  10   41.66    1.93 
   5   1 -10   43.58    2.54 
   3  -1 -10   33.47    2.11 
   3   1 -10   33.78    2.00 
  -3   1  10   34.02    2.03 
  -3   1  10   32.78    1.66 
   1  -1 -10  109.04    6.50 
  -1   1  10   98.90    5.65 
   1   1 -10   91.28    5.65 
   1   1  10   99.20    5.93 
   1   1  10   98.29    5.87 
  -3  -1 -10    2.08    0.17 
   3   1  10    2.25    0.42 
   3   1  10    2.38    0.20 
  -5  -1 -10    7.92    0.37 
  -5  -1 -10    7.35    0.41 
  -5  -1 -10    8.09    0.44 
  -5  -1 -10    7.53    0.41 
   5   1  10    7.12    0.49 
  -5   1 -10    7.55    0.41 
   5   1  10    7.12    0.46 
  -5   1 -10    8.07    0.37 
  -7  -1 -10   41.05    1.97 
  -7  -1 -10   41.88    1.80 
  -7  -1 -10   42.82    2.08 
  -7  -1 -10   40.59    1.90 
   7   1  10   33.92    2.01 
  -7   1 -10   36.85    1.69 
   7   1  10   33.44    2.15 
  -7   1 -10   37.80    1.55 
  -9  -1 -10    4.50    0.25 
  -9  -1 -10    4.59    0.27 
  -9   1 -10    3.49    0.22 
  -9   1 -10    3.51    0.20 
 -10  -2  10   16.53    0.80 
  10  -2 -10   17.29    0.90 
  10   2 -10   15.84    0.82 
 -10   2  10   15.53    0.75 
 -10   2  10   14.82    0.72 
   8  -2 -10    8.29    0.44 
  -8  -2  10    8.88    0.52 
   8  -2 -10    8.70    0.50 
  -8  -2  10    8.87    0.48 
  -8   2  10    7.58    0.45 
   8   2 -10    7.86    0.47 
   8   2 -10    8.21    0.46 
  -8   2  10    7.89    0.44 
  -8   2  10    7.97    0.43 
  -6  -2  10   38.43    1.96 
  -6  -2  10   36.35    1.79 
   6  -2 -10   41.71    1.85 
   6  -2 -10   38.46    1.84 
   6  -2 -10   40.67    2.05 
  -6   2  10   30.60    1.46 
   6   2 -10   31.20    1.50 
   6   2 -10   32.87    1.78 
  -6   2  10   32.57    1.60 
   6   2 -10   33.29    1.91 
  -6   2  10   30.35    1.53 
  -4   2  10   31.46    1.62 
  -4   2  10   34.95    1.99 
   4   2 -10   32.33    1.95 
   4   2 -10   29.60    1.82 
  -4   2  10   32.32    1.85 
  -4   2  10   35.07    2.89 
   2  -2 -10   12.41    0.65 
   2  -2 -10   12.12    0.91 
  -2   2  10   10.95    0.58 
   2   2 -10   11.45    0.69 
  -2   2  10   11.47    0.70 
   0  -2 -10   12.34    0.66 
   0  -2 -10   12.49    0.88 
   0   2 -10   10.98    0.69 
   0   2  10   11.62    0.69 
  -2  -2 -10   23.99    1.21 
  -2   2 -10   17.73    1.01 
  -2   2 -10   17.42    1.07 
  -4  -2 -10   19.82    0.94 
  -4  -2 -10   19.57    0.87 
  -4  -2 -10   20.21    1.02 
  -4  -2 -10   19.27    0.96 
   4   2  10   15.09    0.87 
  -4   2 -10   14.94    0.78 
   4   2  10   14.96    0.93 
  -4   2 -10   15.35    0.68 
  -6  -2 -10    2.88    0.20 
  -6  -2 -10    3.20    0.27 
  -6  -2 -10    3.06    0.25 
  -6  -2 -10    2.94    0.23 
  -6   2 -10    3.03    0.19 
   6   2  10    2.56    0.24 
  -6   2 -10    2.67    0.20 
   6   2  10    2.51    0.25 
  -8  -2 -10   18.29    0.89 
  -8  -2 -10   18.13    0.80 
  -8  -2 -10   17.54    0.86 
  -8  -2 -10   17.81    0.94 
   8   2  10   14.85    0.84 
   8   2  10   13.45    0.89 
  -8   2 -10   14.19    0.65 
 -10  -2 -10    4.69    0.26 
   9  -3 -10    1.20    0.14 
   9  -3 -10    1.25    0.10 
   9   3 -10    0.84    0.14 
  -9   3  10    1.03    0.13 
   7  -3 -10    1.73    0.15 
   7  -3 -10    1.69    0.20 
  -7   3  10    1.41    0.18 
  -7   3  10    1.33    0.18 
   7   3 -10    1.45    0.14 
   7   3 -10    1.81    0.13 
   5  -3 -10    9.69    0.45 
   5  -3 -10    9.73    0.56 
   5  -3 -10   10.07    0.52 
   5  -3 -10    9.47    0.49 
   5  -3 -10    9.72    0.50 
   5  -3 -10    9.50    0.50 
  -5   3  10    7.20    0.54 
   5   3 -10    7.42    0.42 
  -5   3  10    7.38    0.41 
  -5   3  10    6.87    0.39 
   5   3 -10    6.92    0.36 
  -5   3  10    7.38    0.49 
   5   3 -10    7.55    0.45 
   3  -3 -10   21.33    1.01 
   3  -3 -10   19.87    1.02 
   3  -3 -10   21.57    0.93 
   3  -3 -10   22.87    1.06 
   3  -3 -10   20.65    1.00 
  -3  -3  10   20.95    1.04 
   3  -3 -10   21.46    1.09 
  -3  -3  10   20.78    1.15 
  -3   3  10   16.50    0.85 
   3   3 -10   16.49    0.94 
  -3   3  10   17.25    1.04 
  -3   3  10   15.92    0.96 
   3   3 -10   17.04    1.01 
   1  -3 -10   17.20    0.94 
   1  -3 -10   18.84    0.92 
   1   3 -10   11.92    0.72 
   1   3 -10   12.83    0.76 
  -1  -3 -10   36.88    1.85 
  -1  -3 -10   38.90    1.95 
  -1  -3 -10   37.50    1.68 
  -1  -3 -10   41.44    1.80 
   1  -3  10   40.41    1.97 
  -1   3 -10   30.71    1.82 
  -1   3 -10   29.34    1.70 
  -3  -3 -10   42.40    1.94 
   3  -3  10   40.29    2.20 
   3  -3  10   43.05    2.14 
  -3  -3 -10   41.30    2.01 
  -3  -3 -10   42.77    2.12 
   3  -3  10   44.32    2.08 
  -3  -3 -10   41.95    1.83 
  -3   3 -10   32.88    1.84 
  -3   3 -10   32.47    1.63 
  -3   3 -10   32.06    1.97 
  -5  -3 -10   33.84    1.69 
  -5  -3 -10   34.02    1.45 
  -5  -3 -10   33.19    1.54 
  -5  -3 -10   31.52    1.59 
  -5   3 -10   24.71    1.09 
  -5   3 -10   24.37    1.25 
   5   3  10   24.74    1.40 
  -7  -3 -10   20.00    0.98 
  -7  -3 -10   20.78    1.01 
  -7  -3 -10   20.54    1.07 
   7   3  10   15.50    0.88 
   7   3  10   15.29    0.94 
  -7   3 -10   14.29    0.77 
  -7   3 -10   14.70    0.68 
  -9  -3 -10    6.45    0.35 
  -9  -3 -10    6.31    0.35 
  -9   3 -10    4.73    0.23 
   8  -4 -10    3.77    0.20 
   8  -4 -10    3.41    0.23 
   8   4 -10    2.66    0.19 
   8   4 -10    2.44    0.19 
  -8   4  10    2.78    0.19 
   6  -4 -10    3.83    0.23 
   6  -4 -10    3.90    0.21 
   6  -4 -10    4.11    0.24 
   6  -4 -10    4.17    0.24 
   6  -4 -10    3.91    0.28 
   6  -4 -10    3.89    0.24 
  -6   4  10    3.22    0.25 
   6   4 -10    3.23    0.23 
  -6   4  10    2.91    0.30 
   6   4 -10    3.51    0.21 
   4  -4 -10    8.45    0.43 
   4  -4 -10    7.56    0.41 
   4  -4 -10    7.84    0.44 
   4  -4 -10    7.80    0.42 
   4  -4 -10    7.85    0.38 
   4   4 -10    3.68    0.25 
  -4   4  10    3.96    0.31 
  -4   4  10    3.57    0.25 
  -4   4  10    4.23    0.35 
   2  -4 -10    1.12    0.20 
  -2  -4  10    1.59    0.18 
   2  -4 -10    1.45    0.21 
   2  -4 -10    1.16    0.12 
   2  -4 -10    1.24    0.13 
   2  -4 -10    1.18    0.12 
   2  -4 -10    1.39    0.15 
   2  -4 -10    1.32    0.16 
  -2   4  10    1.57    0.17 
   2   4 -10    1.87    0.15 
   2   4 -10    1.74    0.17 
   0  -4 -10   60.74    3.11 
   0  -4 -10   58.56    2.66 
   0  -4  10   65.43    2.91 
   0  -4  10   64.88    3.12 
   0  -4 -10   62.85    3.04 
   0  -4  10   65.14    3.23 
   0  -4 -10   59.34    2.91 
   0  -4 -10   60.15    2.81 
   0  -4 -10   60.42    3.07 
   0   4 -10   52.08    3.03 
   0   4 -10   49.02    2.84 
   2  -4  10   11.16    0.72 
  -2  -4 -10   14.67    0.63 
  -2  -4 -10   15.09    0.71 
  -2  -4 -10   14.73    0.76 
  -2  -4 -10   13.98    0.70 
  -2  -4 -10   15.02    0.71 
   2  -4  10   11.95    0.68 
  -2   4 -10    9.33    0.62 
  -2   4 -10    9.49    0.53 
  -2   4 -10    9.60    0.59 
   4  -4  10    5.33    0.35 
  -4  -4 -10    4.88    0.33 
   4  -4  10    5.07    0.31 
  -4  -4 -10    5.18    0.36 
  -4  -4 -10    5.32    0.37 
   4  -4  10    5.18    0.28 
  -4  -4 -10    4.76    0.28 
  -4   4 -10    4.29    0.29 
  -4   4 -10    4.13    0.32 
  -4   4 -10    4.20    0.31 
  -6  -4 -10   23.98    1.12 
  -6  -4 -10   23.04    1.21 
  -6  -4 -10   22.94    1.14 
  -6   4 -10   17.71    0.82 
  -6   4 -10   18.79    0.94 
  -8  -4 -10    6.12    0.34 
  -8   4 -10    4.07    0.21 
   7  -5 -10   10.13    0.49 
   7  -5 -10    9.74    0.44 
  -7   5  10    6.65    0.33 
   7   5 -10    6.07    0.38 
  -7   5  10    7.68    0.36 
   5  -5 -10    6.46    0.35 
   5  -5 -10    6.46    0.34 
   5  -5 -10    6.41    0.31 
   5  -5 -10    6.45    0.34 
   5  -5 -10    6.74    0.36 
   5   5 -10    3.37    0.20 
  -5   5  10    3.02    0.32 
  -5   5  10    3.89    0.29 
   5   5 -10    3.04    0.22 
   3  -5 -10    2.99    0.19 
   3  -5 -10    2.95    0.21 
   3  -5 -10    2.97    0.20 
   3  -5 -10    2.86    0.20 
  -3  -5  10    2.65    0.29 
   3  -5 -10    2.83    0.18 
   3   5 -10    1.17    0.11 
  -3   5  10    1.41    0.20 
  -3   5  10    1.24    0.22 
   3   5 -10    1.50    0.13 
   1  -5 -10    3.79    0.24 
   1  -5 -10    3.94    0.25 
  -1  -5  10    3.85    0.28 
   1  -5 -10    3.93    0.22 
  -1  -5  10    4.30    0.31 
   1  -5 -10    3.84    0.26 
   1   5 -10    2.97    0.22 
   1   5 -10    2.63    0.22 
  -1  -5 -10    2.12    0.16 
  -1  -5 -10    2.11    0.27 
  -1  -5 -10    2.13    0.16 
  -1  -5 -10    1.96    0.25 
  -1  -5 -10    2.37    0.22 
  -1   5 -10    1.18    0.18 
  -1   5 -10    1.06    0.16 
  -1   5 -10    1.18    0.18 
  -3  -5 -10    1.85    0.16 
  -3  -5 -10    1.73    0.24 
  -3  -5 -10    1.95    0.21 
   3  -5  10    2.56    0.20 
   3  -5  10    2.76    0.19 
  -3   5 -10    1.64    0.19 
  -3   5 -10    1.60    0.18 
  -3   5 -10    1.59    0.19 
   5  -5  10    7.30    0.42 
  -5  -5 -10    7.07    0.45 
  -5  -5 -10    7.71    0.43 
  -5  -5 -10    7.87    0.41 
  -5   5 -10    6.38    0.37 
   4  -6 -10    3.33    0.19 
   4  -6 -10    3.05    0.18 
   4  -6 -10    3.28    0.17 
   4  -6 -10    3.18    0.19 
  -4   6  10    2.61    0.19 
   2  -6 -10    5.46    0.31 
  -2  -6  10    6.45    0.40 
  -2  -6  10    6.14    0.35 
   2  -6 -10    5.07    0.26 
   2  -6 -10    5.19    0.30 
   2  -6 -10    4.95    0.29 
   2   6 -10    4.71    0.29 
   0  -6 -10    7.69    0.37 
   0  -6 -10    7.83    0.41 
   0  -6  10    8.21    0.45 
   0  -6  10    7.76    0.44 
   0  -6  10    8.05    0.50 
   0  -6 -10    7.93    0.41 
   0   6 -10    5.97    0.37 
   2  -6  10    5.55    0.33 
   2  -6  10    5.45    0.32 
  -2   6 -10    4.41    0.29 
  -2   6 -10    4.13    0.27 
   4  -6  10    5.17    0.30 
  -4   6 -10    4.45    0.26 
  10   0 -11    1.58    0.15 
 -10   0  11    1.20    0.16 
 -10   0  11    1.31    0.16 
   8   0 -11    3.79    0.26 
  -8   0  11    3.36    0.26 
  -8   0  11    3.47    0.27 
   8   0 -11    3.36    0.21 
   6   0 -11    7.28    0.39 
  -6   0  11    8.04    0.44 
  -6   0  11    7.65    0.41 
   6   0 -11    7.55    0.44 
  -4   0  11   44.83    2.21 
   2   0 -11   38.89    2.38 
   0   0 -11   33.67    2.02 
   0   0  11   32.34    2.05 
   2   0  11    7.60    0.47 
   2   0  11    7.09    0.63 
   4   0  11   26.60    1.50 
   4   0  11   26.39    1.60 
  -6   0 -11    2.32    0.19 
  -6   0 -11    2.08    0.16 
  -8   0 -11    0.58    0.09 
  -8   0 -11    0.49    0.10 
 -10   0 -11    2.49    0.17 
 -10   0 -11    2.54    0.15 
   9  -1 -11   14.48    0.76 
  -9  -1  11   13.49    0.68 
  -9  -1  11   13.50    0.74 
  -9   1  11   12.76    0.63 
   9   1 -11   12.62    0.68 
  -9   1  11   12.32    0.62 
  -9   1  11   12.08    0.67 
   7  -1 -11   38.07    1.76 
  -7  -1  11   34.88    1.71 
  -7  -1  11   37.20    1.88 
   7  -1 -11   38.94    1.95 
  -7   1  11   32.39    1.49 
   7   1 -11   31.08    1.52 
  -7   1  11   33.04    1.55 
  -7   1  11   33.08    1.63 
   7   1 -11   31.80    1.69 
   5  -1 -11   19.61    0.97 
   5  -1 -11   17.66    0.87 
  -5  -1  11   17.31    0.87 
  -5  -1  11   18.22    0.94 
   5   1 -11   15.92    1.01 
   5   1 -11   16.14    0.94 
  -5   1  11   17.24    0.79 
  -5   1  11   17.99    0.86 
   5   1 -11   16.11    0.79 
   3  -1 -11   16.12    1.16 
  -3  -1  11   17.66    0.87 
  -3   1  11   17.73    0.88 
   3   1 -11   16.42    1.04 
  -3   1  11   17.92    1.08 
   1  -1 -11   81.56    4.90 
  -1   1  11   84.66    4.84 
   1   1 -11   77.97    4.83 
   1   1  11   35.64    2.23 
   1   1  11   34.46    2.10 
  -3  -1 -11   13.80    0.72 
   3   1  11   13.27    1.07 
   3   1  11   13.17    0.79 
   3   1  11   14.27    0.84 
  -5  -1 -11   38.51    1.71 
  -5  -1 -11   42.09    1.98 
  -5  -1 -11   38.52    1.87 
  -5  -1 -11   38.91    1.80 
  -5   1 -11   33.46    1.64 
   5   1  11   31.28    1.86 
   5   1  11   32.22    1.99 
  -5   1 -11   34.88    1.44 
  -7  -1 -11   27.79    1.31 
  -7  -1 -11   26.81    1.39 
  -7  -1 -11   26.93    1.27 
  -7  -1 -11   27.18    1.19 
  -7   1 -11   20.58    1.04 
   7   1  11   20.90    1.32 
  -7   1 -11   21.48    0.95 
   7   1  11   22.59    1.24 
  -9  -1 -11    0.89    0.13 
  -9  -1 -11    0.80    0.11 
  -9   1 -11    1.05    0.13 
  -9   1 -11    1.02    0.10 
 -10  -2  11    8.37    0.44 
  10  -2 -11    9.54    0.50 
 -10   2  11    8.34    0.42 
 -10   2  11    8.40    0.42 
  10   2 -11    8.52    0.47 
  -8  -2  11   13.72    0.73 
   8  -2 -11   15.37    0.72 
   8  -2 -11   15.36    0.81 
  -8  -2  11   14.88    0.80 
  -8   2  11   12.69    0.64 
  -8   2  11   12.89    0.69 
   8   2 -11   13.35    0.71 
   8   2 -11   12.01    0.74 
  -8   2  11   13.36    0.66 
   6  -2 -11    6.91    0.36 
   6  -2 -11    7.38    0.42 
  -6  -2  11    5.86    0.42 
   6  -2 -11    7.36    0.37 
   6   2 -11    5.28    0.36 
  -6   2  11    5.85    0.35 
  -6   2  11    6.08    0.35 
   6   2 -11    5.68    0.33 
  -6   2  11    5.18    0.33 
   6   2 -11    5.51    0.29 
   4  -2 -11    6.92    0.38 
   4  -2 -11    7.21    0.39 
   4  -2 -11    6.71    0.36 
   4  -2 -11    6.80    0.37 
  -4  -2  11    7.57    0.42 
  -4   2  11    5.69    0.42 
  -4   2  11    5.83    0.39 
  -4   2  11    5.24    0.79 
  -4   2  11    5.17    0.32 
  -4   2  11    5.47    0.31 
   4   2 -11    5.93    0.33 
   4   2 -11    6.10    0.36 
   2  -2 -11    5.54    0.34 
   2   2 -11    5.12    0.32 
  -2   2  11    5.34    0.31 
  -2   2  11    5.46    0.34 
   2   2 -11    5.36    0.34 
  -2   2  11    5.40    0.36 
   0  -2 -11    5.01    0.31 
   0  -2 -11    4.33    0.45 
   0   2 -11    3.37    0.24 
   0   2  11    4.01    0.24 
   0   2 -11    3.08    0.24 
  -2  -2 -11   24.47    1.24 
  -2   2 -11   20.70    1.19 
  -2   2 -11   21.54    1.27 
   2   2  11   20.20    1.26 
  -4  -2 -11   22.80    1.07 
  -4  -2 -11   22.47    1.00 
  -4  -2 -11   22.63    1.11 
  -4  -2 -11   23.33    1.17 
   4   2  11   17.91    1.11 
  -4   2 -11   18.69    0.81 
   4   2  11   16.76    1.03 
  -4   2 -11   18.82    0.93 
  -6  -2 -11    8.71    0.52 
  -6  -2 -11    8.58    0.42 
  -6  -2 -11    8.68    0.47 
  -6  -2 -11    8.94    0.48 
   6   2  11    6.58    0.43 
  -6   2 -11    5.95    0.36 
  -6   2 -11    6.33    0.33 
   6   2  11    6.58    0.45 
  -8  -2 -11    3.10    0.22 
  -8  -2 -11    2.89    0.19 
  -8  -2 -11    2.70    0.25 
  -8  -2 -11    3.15    0.25 
  -8   2 -11    2.22    0.16 
   8   2  11    2.83    0.25 
   8   2  11    2.47    0.24 
   9  -3 -11    0.81    0.09 
   9  -3 -11    0.75    0.13 
  -9   3  11    0.61    0.11 
   9   3 -11    0.41    0.08 
   7  -3 -11    1.56    0.14 
   7  -3 -11    1.61    0.19 
   7   3 -11    1.18    0.17 
   7   3 -11    0.88    0.12 
  -7   3  11    1.15    0.17 
   7   3 -11    1.17    0.11 
  -7   3  11    1.34    0.17 
  -7   3  11    1.23    0.16 
   5  -3 -11   11.53    0.58 
   5  -3 -11   11.41    0.59 
   5  -3 -11   11.49    0.58 
   5  -3 -11   12.19    0.62 
   5  -3 -11   11.38    0.65 
   5  -3 -11   11.21    0.52 
  -5   3  11    9.19    0.47 
  -5   3  11    8.93    0.58 
  -5   3  11    8.32    0.64 
   5   3 -11    9.32    0.56 
   5   3 -11    8.83    0.45 
   5   3 -11    9.58    0.52 
  -5   3  11    8.97    0.50 
   3  -3 -11   10.80    0.51 
   3  -3 -11   10.76    0.56 
   3  -3 -11   11.31    0.59 
   3  -3 -11   10.96    0.55 
   3  -3 -11   11.41    0.57 
  -3  -3  11   11.17    0.67 
   3  -3 -11   11.70    0.58 
  -3  -3  11   10.92    0.60 
   3   3 -11    9.06    0.55 
  -3   3  11    8.90    0.48 
  -3   3  11    8.96    0.60 
   3   3 -11    8.76    0.52 
  -3   3  11    8.79    0.54 
  -1  -3  11   13.68    0.62 
   1  -3 -11   11.87    0.66 
  -1  -3  11   13.00    0.65 
   1  -3 -11   11.31    0.55 
   1  -3 -11   12.03    0.61 
   1  -3 -11   11.70    0.64 
   1  -3 -11   11.25    0.61 
  -1  -3  11   13.11    0.70 
   1  -3 -11   11.28    0.62 
   1   3 -11    9.43    0.57 
   1   3 -11    9.92    0.60 
  -1  -3 -11   45.51    2.08 
  -1  -3 -11   44.04    2.15 
   1  -3  11   44.95    2.14 
   1  -3  11   43.37    2.23 
  -1  -3 -11   44.16    1.96 
  -1  -3 -11   45.86    2.24 
   1  -3  11   47.80    2.38 
   1  -3  11   48.96    2.30 
  -1  -3 -11   46.11    2.28 
  -1   3 -11   32.95    1.73 
  -1   3 -11   35.07    1.96 
  -1   3 -11   36.25    2.10 
  -3  -3 -11   45.93    1.94 
  -3  -3 -11   46.45    2.26 
   3  -3  11   42.64    2.21 
   3  -3  11   44.72    2.28 
  -3  -3 -11   44.35    2.13 
  -3  -3 -11   45.94    2.07 
  -3  -3 -11   45.35    2.22 
  -3   3 -11   33.81    2.07 
  -3   3 -11   34.37    1.71 
  -3   3 -11   34.27    1.93 
  -5  -3 -11   12.52    0.63 
  -5  -3 -11   11.48    0.62 
  -5  -3 -11   12.04    0.67 
  -5  -3 -11   12.11    0.56 
  -5   3 -11    7.78    0.46 
  -5   3 -11    7.74    0.40 
   5   3  11    8.34    0.51 
   5   3  11    8.51    0.54 
  -7  -3 -11   10.09    0.53 
  -7  -3 -11   10.53    0.53 
  -7  -3 -11   10.21    0.57 
  -7  -3 -11    8.83    0.48 
   7   3  11    7.02    0.49 
  -7   3 -11    7.37    0.41 
   7   3  11    7.48    0.47 
  -7   3 -11    7.32    0.36 
  -9  -3 -11    8.00    0.41 
  -9   3 -11    6.08    0.28 
   8  -4 -11    3.77    0.20 
   8  -4 -11    3.51    0.23 
  -8   4  11    3.37    0.21 
   8   4 -11    3.26    0.21 
   8   4 -11    2.86    0.21 
   6  -4 -11    4.37    0.25 
   6  -4 -11    4.22    0.22 
   6  -4 -11    4.37    0.25 
   6  -4 -11    4.60    0.26 
   6  -4 -11    4.23    0.25 
   6   4 -11    3.15    0.20 
  -6   4  11    2.93    0.29 
   6   4 -11    2.84    0.22 
  -6   4  11    3.44    0.24 
   4  -4 -11    1.70    0.15 
   4  -4 -11    1.70    0.13 
   4  -4 -11    1.69    0.15 
   4  -4 -11    1.69    0.16 
   4  -4 -11    1.67    0.13 
   4   4 -11    0.79    0.08 
  -4   4  11    0.48    0.15 
  -4   4  11    0.51    0.14 
   4   4 -11    0.77    0.08 
  -4   4  11    0.79    0.13 
   2  -4 -11   21.97    1.11 
   2  -4 -11   22.21    1.14 
  -2  -4  11   24.70    1.29 
  -2  -4  11   24.72    1.22 
   2  -4 -11   24.45    1.21 
   2  -4 -11   23.16    1.13 
   2  -4 -11   24.56    1.18 
  -2  -4  11   24.57    1.16 
   2  -4 -11   21.82    1.03 
   2  -4 -11   23.03    1.21 
  -2   4  11   18.49    0.98 
   2   4 -11   21.30    1.18 
  -2   4  11   18.67    1.20 
   2   4 -11   20.43    1.11 
  -2   4  11   18.10    1.11 
   0  -4 -11   38.99    1.72 
   0  -4 -11   39.84    1.77 
   0  -4 -11   39.48    1.87 
   0  -4  11   32.43    1.96 
   0  -4  11   32.51    1.76 
   0  -4 -11   39.40    1.88 
   0  -4 -11   37.80    1.61 
   0  -4 -11   39.91    1.84 
   0  -4  11   33.04    1.88 
   0   4 -11   24.58    1.38 
   0   4 -11   23.56    1.46 
   2  -4  11    3.82    0.24 
  -2  -4 -11    3.02    0.26 
   2  -4  11    3.68    0.24 
  -2  -4 -11    2.97    0.20 
   2  -4  11    3.77    0.28 
  -2  -4 -11    3.04    0.21 
  -2  -4 -11    3.24    0.29 
  -2  -4 -11    3.01    0.29 
   2  -4  11    3.63    0.20 
  -2   4 -11    2.17    0.22 
  -2   4 -11    2.44    0.22 
  -2   4 -11    2.13    0.20 
   4  -4  11   14.28    0.82 
  -4  -4 -11   14.54    0.68 
   4  -4  11   15.58    0.80 
  -4  -4 -11   15.49    0.76 
  -4  -4 -11   15.55    0.83 
  -4  -4 -11   14.74    0.76 
  -4   4 -11   12.40    0.64 
  -4   4 -11   11.20    0.70 
  -6  -4 -11   13.61    0.75 
  -6  -4 -11   13.65    0.70 
  -6  -4 -11   13.92    0.70 
   6   4  11   10.03    0.60 
  -6   4 -11    9.63    0.47 
  -6   4 -11   10.31    0.54 
  -8   4 -11    2.79    0.15 
   7  -5 -11    5.27    0.27 
  -7   5  11    3.78    0.22 
   5  -5 -11    4.68    0.26 
   5  -5 -11    4.50    0.23 
   5  -5 -11    4.31    0.26 
   5  -5 -11    4.75    0.27 
   5  -5 -11    5.08    0.26 
  -5   5  11    3.79    0.24 
  -5   5  11    2.95    0.28 
   5   5 -11    3.38    0.21 
   3  -5 -11    3.35    0.22 
   3  -5 -11    3.40    0.22 
  -3  -5  11    3.41    0.36 
   3  -5 -11    3.19    0.19 
   3  -5 -11    3.54    0.22 
   3  -5 -11    3.26    0.21 
  -3  -5  11    3.54    0.31 
  -3   5  11    1.89    0.23 
   3   5 -11    2.27    0.15 
   3   5 -11    1.98    0.15 
   1  -5 -11    2.09    0.17 
  -1  -5  11    1.96    0.21 
   1  -5 -11    1.99    0.24 
   1  -5 -11    2.06    0.15 
   1  -5 -11    2.17    0.16 
   1  -5 -11    2.27    0.19 
  -1  -5  11    1.88    0.25 
  -1  -5  11    1.74    0.31 
   1   5 -11    1.40    0.15 
   1   5 -11    1.33    0.13 
  -1  -5 -11    9.05    0.49 
  -1  -5 -11    8.90    0.47 
  -1  -5 -11    8.29    0.52 
  -1  -5 -11    8.25    0.41 
  -1  -5 -11    8.87    0.46 
  -1   5 -11    8.29    0.51 
  -1   5 -11    6.86    0.44 
  -1   5 -11    8.21    0.49 
  -3  -5 -11   10.23    0.50 
  -3  -5 -11   10.32    0.56 
  -3  -5 -11   10.08    0.61 
   3  -5  11   11.42    0.55 
   3  -5  11   11.39    0.62 
  -3  -5 -11    9.56    0.55 
   3  -5  11   11.97    0.58 
  -3   5 -11    8.54    0.52 
  -3   5 -11    8.16    0.55 
  -3   5 -11    8.67    0.47 
  -5  -5 -11    4.00    0.28 
  -5  -5 -11    3.47    0.29 
  -5  -5 -11    4.08    0.25 
   5  -5  11    3.73    0.27 
   5  -5  11    3.57    0.25 
  -5   5 -11    3.40    0.23 
   4  -6 -11    5.89    0.32 
   4  -6 -11    5.59    0.27 
   4  -6 -11    5.85    0.30 
  -4   6  11    4.54    0.26 
   2  -6 -11   16.94    0.81 
   2  -6 -11   16.12    0.74 
   2  -6 -11   16.49    0.84 
   2  -6 -11   17.75    0.87 
   2   6 -11   12.59    0.71 
   0  -6  11   11.82    0.63 
   0  -6 -11   11.91    0.58 
   0  -6 -11   11.64    0.60 
   0  -6  11   11.85    0.61 
   0  -6  11   11.78    0.68 
   0  -6 -11   11.59    0.53 
   0   6 -11    9.12    0.53 
   2  -6  11    6.48    0.37 
   2  -6  11    6.83    0.38 
  -2   6 -11    6.04    0.37 
 -10   0  12    0.04    0.09 
  10   0 -12    0.02    0.06 
 -10   0  12    0.06    0.08 
  -8   0  12    4.30    0.28 
  -8   0  12    4.07    0.30 
   8   0 -12    4.10    0.29 
   8   0 -12    3.96    0.23 
   6   0 -12   37.43    1.95 
   6   0 -12   37.77    1.76 
  -6   0  12   36.28    1.71 
  -6   0  12   38.28    1.88 
  -4   0  12   24.91    1.25 
  -2   0  12   63.30    3.10 
   0   0  12   34.55    2.14 
   0   0  12   36.88    2.22 
   2   0  12   20.88    1.48 
   2   0  12   21.99    1.30 
  -4   0 -12   24.71    1.23 
  -4   0 -12   24.54    1.08 
   4   0  12   24.90    1.40 
  -6   0 -12    0.25    0.09 
  -6   0 -12    0.36    0.10 
  -8   0 -12    0.16    0.08 
  -8   0 -12    0.24    0.09 
  -9  -1  12    8.01    0.48 
  -9  -1  12    8.27    0.44 
   9  -1 -12    8.28    0.42 
   9  -1 -12    8.51    0.47 
   9   1 -12    7.63    0.43 
  -9   1  12    7.39    0.40 
  -9   1  12    7.23    0.43 
   7  -1 -12    4.81    0.31 
   7  -1 -12    4.59    0.26 
  -7  -1  12    4.54    0.32 
  -7  -1  12    4.90    0.33 
   7   1 -12    4.34    0.24 
  -7   1  12    4.15    0.29 
   7   1 -12    4.54    0.29 
  -7   1  12    4.28    0.29 
  -7   1  12    4.23    0.29 
  -5  -1  12   17.09    0.81 
  -5  -1  12   18.38    0.88 
   5  -1 -12   16.72    0.86 
   5  -1 -12   14.99    0.82 
   5  -1 -12   16.69    0.80 
   5  -1 -12   16.76    0.90 
  -5   1  12   16.38    0.82 
  -5   1  12   15.19    0.75 
   5   1 -12   16.28    0.76 
  -5   1  12   15.36    0.80 
   5   1 -12   16.22    0.90 
   3  -1 -12   34.09    2.19 
  -3  -1  12   34.54    1.71 
   3   1 -12   33.45    2.07 
  -3   1  12   34.94    1.96 
   3   1 -12   32.60    1.93 
  -3   1  12   36.63    1.72 
  -3   1  12   36.08    2.10 
   1  -1 -12   72.62    3.32 
   1  -1 -12   62.47    4.07 
  -1   1  12   68.37    3.83 
   1   1 -12   60.12    3.82 
  -1  -1 -12   21.48    1.09 
   1   1  12   22.32    1.49 
   1   1  12   22.05    1.34 
  -3  -1 -12   24.81    1.25 
   3   1  12   21.04    1.26 
   3   1  12   23.36    1.35 
  -5  -1 -12   29.13    1.29 
  -5  -1 -12   29.45    1.41 
  -5  -1 -12   30.08    1.49 
  -5  -1 -12   29.30    1.37 
   5   1  12   22.29    1.24 
   5   1  12   22.53    1.33 
  -5   1 -12   19.77    1.09 
  -5   1 -12   21.95    0.96 
  -7  -1 -12    1.69    0.17 
  -7  -1 -12    1.38    0.22 
  -7  -1 -12    1.40    0.14 
  -7   1 -12    1.21    0.13 
   7   1  12    1.51    0.21 
  -9  -1 -12    2.30    0.18 
  -9  -1 -12    2.30    0.15 
  -9   1 -12    2.25    0.14 
  10  -2 -12    6.09    0.34 
 -10   2  12    6.00    0.30 
  10   2 -12    5.69    0.33 
  -8  -2  12    1.58    0.22 
  -8  -2  12    1.50    0.21 
   8  -2 -12    2.37    0.19 
   8  -2 -12    2.13    0.15 
  -8   2  12    1.99    0.20 
   8   2 -12    1.83    0.19 
  -8   2  12    2.01    0.19 
  -8   2  12    2.16    0.19 
   6  -2 -12    8.03    0.44 
   6  -2 -12    8.95    0.49 
   6  -2 -12    8.51    0.43 
   6   2 -12    7.23    0.36 
  -6   2  12    6.43    0.41 
   6   2 -12    7.87    0.42 
   6   2 -12    7.21    0.45 
  -6   2  12    6.81    0.39 
  -6   2  12    6.43    0.40 
   4  -2 -12   22.21    1.06 
   4  -2 -12   22.29    1.08 
  -4  -2  12   23.71    1.11 
   4  -2 -12   23.19    1.16 
   4  -2 -12   21.74    1.08 
  -4   2  12   19.43    1.13 
  -4   2  12   19.38    1.22 
  -4   2  12   18.72    0.91 
   4   2 -12   20.45    1.17 
  -4   2  12   19.61    0.99 
   4   2 -12   19.88    1.09 
   4   2 -12   18.71    0.92 
   2  -2 -12    9.32    0.52 
  -2   2  12    8.95    0.47 
   2   2 -12    8.17    0.50 
  -2   2  12    8.91    0.56 
  -2   2  12    8.34    0.52 
   2   2 -12    9.06    0.53 
   0  -2 -12   15.95    0.83 
   0   2  12   13.87    0.80 
   0   2  12   13.46    0.85 
   0   2 -12   14.62    0.85 
  -2  -2 -12   35.05    1.76 
  -2   2 -12   26.74    1.54 
   2   2  12   28.54    1.64 
   2   2  12   26.41    1.54 
  -4  -2 -12   18.33    0.83 
  -4  -2 -12   18.52    0.92 
  -4  -2 -12   18.92    0.90 
  -4  -2 -12   17.94    0.94 
  -4  -2 -12   19.65    0.98 
   4   2  12   14.26    0.85 
  -4   2 -12   13.46    0.62 
  -4   2 -12   13.20    0.71 
   4   2  12   13.60    0.80 
  -6  -2 -12    4.85    0.34 
  -6  -2 -12    5.05    0.35 
  -6  -2 -12    4.93    0.31 
  -6  -2 -12    4.80    0.27 
   6   2  12    3.47    0.30 
   6   2  12    3.66    0.30 
  -6   2 -12    3.62    0.22 
  -6   2 -12    3.46    0.23 
  -8  -2 -12    3.92    0.30 
  -8  -2 -12    4.22    0.26 
  -8  -2 -12    3.97    0.28 
  -8  -2 -12    3.99    0.22 
   8   2  12    3.14    0.26 
  -8   2 -12    3.34    0.19 
   9  -3 -12    1.71    0.12 
   9  -3 -12    1.64    0.15 
  -9   3  12    1.16    0.12 
  -9   3  12    0.97    0.13 
   9   3 -12    1.36    0.14 
   7  -3 -12    2.75    0.22 
   7  -3 -12    2.79    0.19 
  -7   3  12    2.37    0.20 
  -7   3  12    2.15    0.20 
   7   3 -12    2.06    0.18 
   7   3 -12    2.47    0.20 
  -7   3  12    1.86    0.19 
   7   3 -12    2.61    0.17 
   5  -3 -12   24.31    1.19 
   5  -3 -12   24.13    1.08 
   5  -3 -12   26.54    1.28 
   5  -3 -12   24.58    1.24 
   5  -3 -12   24.79    1.20 
  -5   3  12   19.33    0.92 
   5   3 -12   19.36    0.93 
   5   3 -12   20.68    1.10 
  -5   3  12   19.07    1.00 
  -5   3  12   20.06    1.15 
  -5   3  12   17.45    1.23 
   5   3 -12   20.42    1.18 
   3  -3 -12   20.99    0.99 
   3  -3 -12   20.03    1.01 
   3  -3 -12   20.15    1.00 
  -3  -3  12   21.05    1.14 
  -3  -3  12   21.86    1.03 
   3  -3 -12   19.54    0.91 
   3  -3 -12   21.29    1.07 
   3  -3 -12   21.56    1.05 
  -3   3  12   16.92    1.06 
   3   3 -12   17.64    0.95 
  -3   3  12   16.48    0.86 
   3   3 -12   18.38    1.02 
   3   3 -12   14.54    0.87 
  -3   3  12   16.53    0.97 
   1  -3 -12   16.09    0.73 
  -1  -3  12   15.50    0.86 
   1  -3 -12   16.33    0.82 
   1  -3 -12   16.46    0.85 
   1  -3 -12   16.36    0.80 
   1  -3 -12   16.78    0.80 
  -1  -3  12   15.93    0.81 
  -1  -3  12   16.24    0.91 
   1  -3 -12   16.80    0.86 
   1   3 -12   10.86    0.67 
  -1   3  12   10.91    0.63 
  -1   3  12   10.63    0.68 
   1   3 -12   10.81    0.63 
   1  -3  12   27.05    1.54 
  -1  -3 -12   31.34    1.36 
  -1  -3 -12   28.48    1.45 
  -1  -3 -12   30.35    1.49 
  -1  -3 -12   30.00    1.40 
  -1  -3 -12   30.09    1.27 
   1  -3  12   27.39    1.39 
   1  -3  12   28.30    1.49 
  -1   3 -12   21.83    1.31 
  -1   3 -12   20.16    1.09 
  -1   3 -12   22.61    1.23 
  -3  -3 -12   27.26    1.39 
  -3  -3 -12   29.24    1.44 
  -3  -3 -12   28.63    1.32 
   3  -3  12   26.21    1.43 
  -3  -3 -12   27.36    1.35 
  -3  -3 -12   28.93    1.22 
  -3   3 -12   20.29    1.16 
  -3   3 -12   19.63    1.25 
  -3   3 -12   20.44    1.04 
  -5  -3 -12    2.58    0.23 
  -5  -3 -12    2.73    0.26 
  -5  -3 -12    2.70    0.27 
  -5  -3 -12    2.48    0.18 
  -5   3 -12    1.68    0.15 
   5   3  12    1.68    0.21 
   5   3  12    1.81    0.24 
  -5   3 -12    1.54    0.17 
  -7  -3 -12    9.20    0.44 
  -7  -3 -12    9.45    0.50 
  -7  -3 -12    9.25    0.49 
  -7  -3 -12    9.03    0.54 
  -7   3 -12    6.61    0.36 
  -7   3 -12    6.20    0.32 
   7   3  12    6.43    0.44 
   7   3  12    6.71    0.42 
   8  -4 -12   10.67    0.52 
   8   4 -12    8.05    0.46 
  -8   4  12    8.63    0.43 
   6  -4 -12    0.82    0.11 
   6  -4 -12    0.69    0.11 
   6  -4 -12    0.65    0.08 
   6  -4 -12    0.63    0.10 
  -6   4  12    0.68    0.11 
   6   4 -12    0.43    0.10 
  -6   4  12    0.47    0.15 
  -6   4  12    0.81    0.15 
   6   4 -12    0.48    0.09 
   4  -4 -12    1.41    0.14 
   4  -4 -12    1.26    0.14 
   4  -4 -12    1.18    0.12 
   4  -4 -12    1.34    0.15 
  -4  -4  12    1.64    0.28 
   4  -4 -12    1.18    0.12 
  -4   4  12    1.44    0.17 
   4   4 -12    1.51    0.11 
  -4   4  12    1.26    0.17 
   4   4 -12    1.46    0.12 
   2  -4 -12   39.81    1.85 
   2  -4 -12   37.32    1.77 
  -2  -4  12   33.63    1.91 
  -2  -4  12   34.66    1.99 
   2  -4 -12   38.51    1.88 
   2  -4 -12   38.01    1.72 
   2  -4 -12   39.14    1.78 
  -2  -4  12   36.63    1.79 
   2  -4 -12   39.24    1.90 
   2  -4 -12   36.80    1.62 
   2   4 -12   23.80    1.34 
  -2   4  12   27.84    1.60 
  -2   4  12   26.20    1.31 
   2   4 -12   26.42    1.47 
  -2   4  12   26.14    1.48 
   2   4 -12   26.25    1.57 
   0  -4 -12   10.44    0.54 
   0  -4 -12    9.21    0.52 
   0  -4  12   10.15    0.61 
   0  -4 -12    9.58    0.54 
   0  -4  12   10.38    0.54 
   0  -4 -12   10.00    0.47 
   0  -4  12   10.13    0.55 
   0  -4 -12    9.76    0.53 
   0  -4 -12    9.85    0.57 
   0   4 -12    7.06    0.47 
   0   4 -12    7.31    0.45 
   2  -4  12    4.69    0.34 
  -2  -4 -12    4.40    0.33 
  -2  -4 -12    4.07    0.33 
   2  -4  12    4.48    0.29 
  -2  -4 -12    4.31    0.30 
  -2  -4 -12    4.19    0.26 
  -2  -4 -12    4.29    0.25 
   2  -4  12    4.78    0.29 
  -2   4 -12    3.17    0.24 
  -2   4 -12    3.10    0.25 
  -2   4 -12    3.24    0.26 
  -4  -4 -12   11.84    0.53 
   4  -4  12    9.84    0.61 
  -4  -4 -12   11.53    0.64 
  -4  -4 -12   11.49    0.59 
  -4  -4 -12   11.30    0.60 
  -4   4 -12    6.99    0.47 
  -4   4 -12    8.08    0.44 
  -6  -4 -12   14.35    0.71 
  -6  -4 -12   13.91    0.70 
  -6  -4 -12   14.07    0.77 
  -6   4 -12   10.42    0.50 
  -6   4 -12   11.36    0.57 
   6   4  12   10.69    0.64 
   5  -5 -12   13.80    0.61 
   5  -5 -12   13.67    0.71 
   5  -5 -12   14.39    0.67 
   5  -5 -12   12.88    0.69 
   5  -5 -12   13.67    0.67 
   5   5 -12   10.05    0.54 
  -5   5  12    8.34    0.59 
  -5   5  12    9.83    0.50 
   5   5 -12    9.68    0.46 
  -3  -5  12    4.28    0.35 
   3  -5 -12    4.78    0.27 
   3  -5 -12    4.42    0.24 
   3  -5 -12    4.74    0.26 
   3  -5 -12    4.44    0.26 
   3  -5 -12    4.56    0.28 
   3   5 -12    2.41    0.17 
  -3   5  12    2.05    0.26 
  -3   5  12    2.54    0.24 
   3   5 -12    2.61    0.17 
   1  -5 -12    5.69    0.34 
   1  -5 -12    5.37    0.36 
   1  -5 -12    5.57    0.35 
  -1  -5  12    6.76    0.38 
  -1  -5  12    6.95    0.40 
   1  -5 -12    5.35    0.30 
  -1  -5  12    6.94    0.45 
   1  -5 -12    5.60    0.33 
   1   5 -12    5.06    0.33 
   1   5 -12    4.97    0.32 
  -1  -5 -12   30.28    1.44 
   1  -5  12   31.87    1.45 
  -1  -5 -12   29.49    1.40 
   1  -5  12   32.07    1.55 
  -1  -5 -12   29.42    1.31 
  -1  -5 -12   27.19    1.52 
  -1  -5 -12   30.00    1.50 
   1  -5  12   30.62    1.61 
  -1   5 -12   23.16    1.28 
  -1   5 -12   23.38    1.37 
  -1   5 -12   20.77    1.15 
   3  -5  12    9.00    0.50 
  -3  -5 -12    9.93    0.50 
   3  -5  12    9.31    0.52 
  -3  -5 -12    9.95    0.52 
   3  -5  12    8.94    0.56 
  -3  -5 -12    9.42    0.55 
  -3  -5 -12   10.00    0.45 
  -3   5 -12    8.00    0.42 
  -3   5 -12    6.70    0.48 
  -3   5 -12    7.16    0.45 
   5  -5  12    4.72    0.30 
  -5  -5 -12    5.02    0.30 
  -5  -5 -12    5.33    0.29 
  -5   5 -12    4.27    0.25 
  -5   5 -12    4.17    0.26 
   4  -6 -12    8.78    0.44 
   4  -6 -12    8.57    0.39 
   4  -6 -12    8.98    0.46 
   2  -6 -12   24.98    1.24 
   2  -6 -12   24.47    1.16 
   2  -6 -12   24.02    1.06 
   2  -6 -12   24.15    1.21 
   2   6 -12   15.37    0.86 
   0  -6  12   14.72    0.82 
   0  -6 -12   14.65    0.64 
   0  -6  12   14.58    0.77 
   0  -6 -12   14.51    0.71 
   0  -6  12   14.13    0.73 
   0  -6 -12   14.76    0.73 
   0   6 -12   11.43    0.65 
   0   6 -12   11.26    0.61 
   2  -6  12    5.17    0.30 
   2  -6  12    4.56    0.34 
   2  -6  12    4.76    0.30 
  -2  -6 -12    5.37    0.28 
  -2   6 -12    4.87    0.29 
 -10   0  13    0.02    0.08 
  10   0 -13    0.03    0.06 
   8   0 -13   22.92    1.19 
   8   0 -13   22.36    1.07 
  -8   0  13   22.54    1.16 
  -8   0  13   22.07    1.06 
   6   0 -13   49.02    2.55 
   6   0 -13   49.85    2.30 
  -6   0  13   48.34    2.23 
  -6   0  13   49.65    2.45 
   4   0 -13   19.82    0.96 
  -4   0  13   20.97    1.04 
  -2   0  13   29.63    1.47 
   2   0  13   31.68    1.73 
   2   0  13   29.75    1.85 
  -4   0 -13    0.38    0.07 
   4   0  13    0.49    0.10 
  -4   0 -13    0.60    0.09 
  -6   0 -13   15.34    0.76 
  -6   0 -13   14.98    0.69 
  -8   0 -13    3.56    0.21 
  -8   0 -13    3.67    0.24 
   9  -1 -13    4.08    0.26 
  -9  -1  13    4.16    0.27 
  -9  -1  13    3.95    0.28 
   9  -1 -13    3.90    0.22 
  -9   1  13    3.59    0.26 
  -9   1  13    3.70    0.25 
   9   1 -13    4.12    0.26 
  -7  -1  13    5.20    0.34 
   7  -1 -13    5.78    0.30 
  -7  -1  13    5.36    0.37 
   7  -1 -13    5.63    0.35 
  -7   1  13    5.26    0.33 
  -7   1  13    5.42    0.34 
   7   1 -13    5.38    0.29 
   7   1 -13    5.45    0.34 
  -5  -1  13   20.69    1.07 
  -5  -1  13   19.93    0.98 
   5  -1 -13   21.36    0.99 
   5  -1 -13   20.35    1.06 
   5  -1 -13   20.86    1.09 
  -5   1  13   20.49    1.00 
   5   1 -13   18.97    0.92 
  -5   1  13   19.46    0.91 
   5   1 -13   18.69    1.09 
  -3  -1  13   30.76    1.54 
  -3   1  13   32.23    1.50 
   3   1 -13   27.27    1.67 
  -3   1  13   30.59    1.70 
   1  -1 -13   17.40    1.22 
   1  -1 -13   19.46    0.95 
  -1   1  13   18.47    1.13 
  -1  -1 -13   13.52    0.71 
   1   1  13   12.69    1.01 
   1   1  13   14.19    0.79 
   1   1  13   13.88    0.84 
  -3  -1 -13    5.70    0.35 
  -3  -1 -13    5.51    0.28 
  -3  -1 -13    5.40    0.31 
  -3   1 -13    5.93    0.35 
   3   1  13    6.45    0.42 
   3   1  13    6.37    0.39 
  -5  -1 -13    1.05    0.18 
  -5  -1 -13    1.22    0.16 
  -5  -1 -13    0.96    0.19 
  -5  -1 -13    0.88    0.12 
  -5  -1 -13    0.95    0.12 
   5   1  13    0.95    0.19 
  -5   1 -13    1.62    0.14 
  -5   1 -13    1.47    0.14 
   5   1  13    1.02    0.18 
  -7  -1 -13    6.06    0.35 
  -7  -1 -13    5.77    0.30 
  -7   1 -13    5.35    0.27 
   7   1  13    4.91    0.35 
  -9  -1 -13    2.75    0.16 
  -9  -1 -13    2.89    0.19 
  -9   1 -13    2.56    0.15 
  10   2 -13    2.97    0.19 
   8  -2 -13    4.01    0.24 
  -8  -2  13    4.90    0.31 
  -8  -2  13    4.34    0.28 
   8  -2 -13    3.98    0.27 
  -8   2  13    3.16    0.22 
  -8   2  13    2.92    0.22 
  -8   2  13    2.75    0.22 
   6  -2 -13   23.40    1.13 
  -6  -2  13   23.23    1.23 
   6  -2 -13   23.26    1.14 
   6  -2 -13   25.20    1.22 
   6  -2 -13   23.48    1.26 
  -6   2  13   19.20    0.88 
   6   2 -13   16.57    1.11 
  -6   2  13   18.25    0.91 
   6   2 -13   18.64    1.04 
   6   2 -13   18.41    0.88 
  -6   2  13   19.11    0.95 
  -4  -2  13   14.08    0.75 
   4  -2 -13   14.45    0.71 
   4  -2 -13   14.41    0.76 
   4  -2 -13   15.01    0.71 
   4  -2 -13   14.69    0.72 
   4   2 -13   11.61    0.60 
  -4   2  13   13.13    0.82 
  -4   2  13   12.60    0.61 
   4   2 -13   11.80    0.70 
  -4   2  13   13.44    0.66 
  -4   2  13   12.82    0.74 
   4   2 -13   11.74    0.75 
   2  -2 -13   14.89    0.73 
   2  -2 -13   15.46    0.79 
  -2  -2  13   15.85    0.76 
   2  -2 -13   14.12    0.78 
   2   2 -13   12.29    0.74 
   2   2 -13   11.56    0.69 
  -2   2  13   12.68    0.63 
  -2   2  13   12.74    0.71 
  -2   2  13   13.10    0.77 
   2   2 -13   10.72    0.64 
   0  -2 -13   16.38    0.86 
   0   2 -13   11.57    0.70 
   0   2  13   13.30    0.75 
   0   2 -13   11.05    0.74 
   0   2  13   12.89    0.70 
  -2  -2 -13   11.34    0.57 
  -2  -2 -13   11.05    0.61 
  -2  -2 -13   10.85    0.57 
   2  -2  13   11.57    0.61 
  -2  -2 -13   11.08    0.57 
  -2  -2 -13   10.94    0.51 
   2   2  13   11.52    0.67 
   2   2  13   10.63    0.63 
  -2   2 -13   10.30    0.56 
  -2   2 -13    9.88    0.62 
  -4  -2 -13    7.32    0.40 
  -4  -2 -13    7.55    0.44 
  -4  -2 -13    7.12    0.41 
  -4  -2 -13    7.84    0.46 
  -4  -2 -13    7.36    0.36 
   4   2  13    6.00    0.42 
  -4   2 -13    6.41    0.37 
  -4   2 -13    6.49    0.32 
   4   2  13    6.32    0.44 
  -6  -2 -13    4.93    0.31 
  -6  -2 -13    4.96    0.36 
  -6  -2 -13    5.23    0.35 
  -6  -2 -13    4.96    0.27 
  -6   2 -13    4.04    0.23 
  -6   2 -13    3.92    0.24 
   6   2  13    3.49    0.30 
   6   2  13    3.44    0.30 
  -8  -2 -13    8.95    0.41 
  -8  -2 -13    8.66    0.47 
  -8  -2 -13    9.27    0.46 
  -8  -2 -13    8.15    0.52 
  -8   2 -13    8.17    0.37 
   8   2  13    7.32    0.47 
   9  -3 -13    6.01    0.29 
   9  -3 -13    5.52    0.33 
  -9   3  13    4.51    0.25 
  -9   3  13    4.19    0.25 
   9   3 -13    4.86    0.28 
   7  -3 -13    6.14    0.38 
   7  -3 -13    7.10    0.35 
   7   3 -13    5.33    0.29 
   7   3 -13    4.74    0.35 
  -7   3  13    5.60    0.32 
   7   3 -13    5.71    0.33 
   7   3 -13    5.93    0.34 
  -7   3  13    5.02    0.33 
  -7   3  13    5.52    0.31 
   5  -3 -13   31.59    1.42 
   5  -3 -13   33.26    1.67 
   5  -3 -13   34.12    1.56 
   5  -3 -13   32.42    1.56 
   5   3 -13   21.94    1.11 
  -5   3  13   23.78    1.09 
   5   3 -13   23.46    1.31 
   5   3 -13   23.48    1.41 
  -5   3  13   24.81    1.19 
  -5   3  13   24.19    1.36 
  -5   3  13   22.02    1.46 
   3  -3 -13   23.32    1.06 
  -3  -3  13   22.01    1.10 
   3  -3 -13   23.06    1.08 
   3  -3 -13   21.67    1.14 
  -3  -3  13   20.74    1.22 
   3  -3 -13   22.12    0.98 
   3  -3 -13   22.47    1.07 
   3  -3 -13   22.48    1.12 
   3   3 -13   14.30    0.81 
  -3   3  13   16.11    0.81 
   3   3 -13   15.48    0.94 
  -3   3  13   16.24    0.99 
  -3   3  13   16.00    0.91 
   3   3 -13   15.33    0.88 
   1  -3 -13    1.80    0.22 
   1  -3 -13    1.66    0.18 
   1  -3 -13    1.48    0.13 
   1  -3 -13    1.53    0.14 
   1  -3 -13    1.73    0.15 
   1  -3 -13    1.87    0.21 
  -1   3  13    2.37    0.21 
   1   3 -13    3.02    0.20 
  -1  -3 -13   12.66    0.56 
  -1  -3 -13   11.94    0.62 
   1  -3  13   12.11    0.66 
   1  -3  13   12.02    0.62 
  -1  -3 -13   11.03    0.63 
  -1  -3 -13   12.65    0.67 
  -1  -3 -13   12.51    0.63 
  -1   3 -13    9.98    0.63 
  -1   3 -13   10.23    0.60 
  -1   3 -13    9.77    0.54 
  -3  -3 -13   11.63    0.64 
  -3  -3 -13   11.56    0.53 
  -3  -3 -13   11.55    0.60 
  -3  -3 -13   10.68    0.59 
  -3  -3 -13   11.44    0.59 
   3  -3  13   10.75    0.62 
  -3   3 -13    8.70    0.48 
  -3   3 -13    8.18    0.52 
  -5  -3 -13    0.99    0.18 
  -5  -3 -13    1.05    0.13 
  -5  -3 -13    0.97    0.19 
  -5  -3 -13    1.07    0.22 
   5   3  13    0.96    0.22 
  -5   3 -13    1.21    0.13 
  -5   3 -13    1.24    0.15 
   5   3  13    1.01    0.19 
  -7  -3 -13    4.71    0.25 
  -7  -3 -13    4.66    0.33 
  -7  -3 -13    4.73    0.29 
  -7  -3 -13    4.81    0.32 
  -7   3 -13    3.45    0.20 
  -7   3 -13    3.58    0.23 
   7   3  13    4.04    0.28 
   8  -4 -13   10.92    0.53 
   8   4 -13    7.35    0.42 
  -8   4  13    7.96    0.39 
   6  -4 -13    2.44    0.17 
   6  -4 -13    2.28    0.14 
   6  -4 -13    2.64    0.17 
   6  -4 -13    2.63    0.18 
  -6   4  13    1.44    0.22 
   6   4 -13    1.43    0.14 
  -6   4  13    1.86    0.17 
  -6   4  13    1.94    0.18 
   6   4 -13    1.74    0.12 
   6   4 -13    1.85    0.13 
   4  -4 -13    8.10    0.43 
   4  -4 -13    7.89    0.38 
   4  -4 -13    8.63    0.43 
  -4  -4  13    7.66    0.49 
   4  -4 -13    8.05    0.42 
   4  -4 -13    8.26    0.45 
  -4   4  13    4.78    0.28 
  -4   4  13    5.16    0.30 
   4   4 -13    4.87    0.28 
  -4   4  13    4.89    0.35 
  -4   4  13    4.13    0.38 
   4   4 -13    4.49    0.30 
  -2  -4  13   10.58    0.70 
  -2  -4  13   11.55    0.69 
   2  -4 -13   13.92    0.65 
  -2  -4  13   11.25    0.75 
   2  -4 -13   13.88    0.65 
   2  -4 -13   13.09    0.63 
   2  -4 -13   12.92    0.66 
   2  -4 -13   13.05    0.68 
   2  -4 -13   13.62    0.58 
  -2   4  13    8.77    0.50 
  -2   4  13    8.85    0.56 
   2   4 -13    6.95    0.45 
   2   4 -13    7.64    0.48 
  -2   4  13    7.94    0.45 
   0  -4 -13    7.08    0.40 
   0  -4 -13    7.20    0.35 
   0  -4  13    6.84    0.49 
   0  -4 -13    7.42    0.45 
   0  -4  13    7.40    0.43 
   0  -4  13    7.03    0.43 
   0  -4 -13    7.51    0.43 
   0  -4 -13    6.78    0.39 
   0  -4 -13    6.84    0.40 
   0   4 -13    5.45    0.35 
   0   4 -13    5.35    0.36 
  -2  -4 -13    4.10    0.23 
  -2  -4 -13    4.26    0.32 
   2  -4  13    3.98    0.29 
  -2  -4 -13    3.90    0.25 
   2  -4  13    4.23    0.28 
   2  -4  13    3.69    0.33 
  -2  -4 -13    3.93    0.31 
  -2  -4 -13    4.26    0.28 
  -2   4 -13    2.58    0.21 
  -2   4 -13    2.34    0.21 
  -2   4 -13    2.40    0.21 
   4  -4  13    3.18    0.25 
  -4  -4 -13    3.35    0.29 
  -4  -4 -13    3.37    0.25 
  -4  -4 -13    3.32    0.21 
  -4  -4 -13    3.36    0.29 
  -4   4 -13    2.35    0.20 
  -6  -4 -13   13.27    0.59 
  -6  -4 -13   13.38    0.65 
  -6  -4 -13   12.79    0.65 
  -6  -4 -13   12.39    0.70 
  -6   4 -13    9.91    0.51 
  -6   4 -13    8.93    0.44 
   6   4  13   10.30    0.58 
   5  -5 -13   12.09    0.62 
   5  -5 -13   12.48    0.60 
   5  -5 -13   12.30    0.55 
   5  -5 -13   13.01    0.60 
   5  -5 -13   11.84    0.64 
  -5   5  13    7.14    0.47 
  -5   5  13    7.93    0.39 
   5   5 -13    7.19    0.36 
   5   5 -13    6.86    0.42 
   3  -5 -13    1.88    0.15 
   3  -5 -13    2.22    0.17 
   3  -5 -13    2.15    0.16 
   3  -5 -13    2.09    0.16 
  -3  -5  13    2.32    0.27 
   3  -5 -13    2.08    0.14 
   3   5 -13    1.45    0.10 
  -3   5  13    0.98    0.21 
  -3   5  13    1.27    0.19 
   3   5 -13    1.11    0.10 
   1  -5 -13   13.34    0.71 
  -1  -5  13   14.03    0.75 
  -1  -5  13   13.95    0.73 
   1  -5 -13   13.22    0.68 
  -1  -5  13   13.89    0.80 
   1  -5 -13   13.51    0.73 
   1  -5 -13   13.68    0.62 
   1  -5 -13   14.58    0.69 
   1   5 -13   10.62    0.64 
   1   5 -13    9.98    0.56 
   1   5 -13   10.41    0.60 
   1  -5  13   11.10    0.71 
  -1  -5 -13   12.95    0.62 
  -1  -5 -13   11.69    0.66 
  -1  -5 -13   13.22    0.56 
   1  -5  13   10.93    0.65 
  -1  -5 -13   12.47    0.63 
  -1  -5 -13   12.77    0.62 
   1  -5  13   11.27    0.62 
  -1   5 -13    8.34    0.48 
  -1   5 -13    7.49    0.50 
  -3  -5 -13    4.16    0.22 
   3  -5  13    4.00    0.26 
  -3  -5 -13    4.05    0.29 
   3  -5  13    3.78    0.26 
  -3  -5 -13    4.27    0.26 
  -3  -5 -13    3.83    0.30 
   3  -5  13    3.35    0.30 
  -3   5 -13    2.78    0.21 
  -3   5 -13    2.91    0.21 
  -5  -5 -13    5.26    0.29 
  -5  -5 -13    5.14    0.31 
  -5   5 -13    4.18    0.25 
   2  -6 -13   15.42    0.80 
   2  -6 -13   15.89    0.68 
  -2  -6  13   15.00    0.77 
   2  -6 -13   15.53    0.78 
   2  -6 -13   16.10    0.75 
   0  -6 -13    9.82    0.47 
   0  -6 -13   10.15    0.49 
   0  -6  13    8.41    0.56 
   0  -6  13    8.68    0.50 
   0  -6 -13    9.99    0.43 
   0   6 -13    6.90    0.36 
   0   6 -13    5.86    0.38 
   2  -6  13    1.52    0.18 
   2  -6  13    1.55    0.15 
  -2   6 -13    1.65    0.14 
  10   0 -14    0.27    0.06 
 -10   0  14    0.29    0.08 
   8   0 -14   24.67    1.18 
  -8   0  14   25.25    1.28 
   8   0 -14   25.01    1.32 
  -8   0  14   24.88    1.17 
  -6   0  14   32.69    1.52 
   6   0 -14   33.10    1.56 
  -6   0  14   34.48    1.67 
   6   0 -14   31.94    1.72 
  -4   0  14    7.44    0.40 
   4   0 -14    7.25    0.40 
  -4   0  14    7.77    0.42 
   4   0 -14    7.22    0.37 
  -2   0  14   21.02    1.06 
   0   0 -14  118.78    5.89 
   0   0  14  122.28    5.87 
   2   0  14   16.97    0.97 
   4   0  14   39.58    2.30 
  -4   0 -14   42.62    2.02 
  -4   0 -14   40.57    1.77 
  -6   0 -14   43.85    2.23 
  -6   0 -14   46.61    2.14 
  -6   0 -14   45.40    1.96 
  -8   0 -14    1.86    0.14 
  -8   0 -14    2.00    0.17 
  -9  -1  14    5.03    0.30 
  -9  -1  14    4.88    0.32 
   9  -1 -14    5.23    0.31 
   9  -1 -14    5.27    0.27 
   9   1 -14    5.01    0.31 
  -9   1  14    5.21    0.29 
  -9   1  14    5.06    0.31 
   7  -1 -14    2.65    0.18 
  -7  -1  14    2.63    0.24 
  -7  -1  14    2.43    0.23 
   7  -1 -14    2.54    0.22 
  -7   1  14    2.32    0.21 
   7   1 -14    2.25    0.16 
   7   1 -14    2.37    0.21 
  -7   1  14    2.36    0.21 
  -5  -1  14    7.62    0.45 
  -5  -1  14    8.36    0.48 
   5  -1 -14    8.72    0.42 
   5  -1 -14    8.09    0.45 
   5   1 -14    8.12    0.46 
   5   1 -14    7.98    0.41 
  -5   1  14    8.38    0.44 
  -5   1  14    8.46    0.46 
   3  -1 -14   18.18    0.86 
  -3  -1  14   17.21    0.93 
   3  -1 -14   18.08    0.86 
   3  -1 -14   18.97    0.93 
   3   1 -14   17.25    0.89 
  -3   1  14   18.40    0.89 
  -3   1  14   16.67    0.81 
  -3   1  14   17.67    1.01 
   3   1 -14   16.83    0.82 
   1  -1 -14   11.15    0.60 
  -1   1  14   11.24    0.66 
  -1   1  14   11.09    0.59 
  -1   1  14   11.78    0.72 
  -1  -1 -14   26.12    1.32 
   1   1  14   28.60    1.69 
   1   1  14   27.48    1.58 
  -3  -1 -14   17.75    0.89 
  -3  -1 -14   17.47    0.76 
  -3  -1 -14   15.95    0.82 
  -3  -1 -14   17.67    0.86 
  -3  -1 -14   16.54    0.84 
  -3   1 -14   16.32    0.78 
   3   1  14   18.00    1.08 
   3   1  14   17.61    1.01 
  -3   1 -14   18.20    0.89 
  -5  -1 -14   30.39    1.44 
  -5  -1 -14   28.77    1.52 
  -5  -1 -14   29.43    1.31 
  -5  -1 -14   30.91    1.48 
   5   1  14   24.92    1.45 
   5   1  14   23.98    1.55 
  -5   1 -14   26.45    1.12 
  -5   1 -14   26.56    1.28 
  -7  -1 -14   10.37    0.50 
  -7  -1 -14   11.23    0.56 
   7   1  14    7.74    0.53 
  -7   1 -14    9.54    0.42 
  -7   1 -14    8.84    0.47 
  -9  -1 -14    2.82    0.16 
  -9  -1 -14    2.91    0.19 
  -9   1 -14    3.22    0.17 
   8  -2 -14   11.32    0.56 
  -8  -2  14   11.47    0.62 
   8  -2 -14   11.29    0.62 
   8   2 -14   10.15    0.54 
  -8   2  14    9.72    0.48 
  -8   2  14    9.01    0.49 
  -8   2  14    9.09    0.52 
   6  -2 -14   15.69    0.74 
   6  -2 -14   15.15    0.79 
   6  -2 -14   14.74    0.74 
   6  -2 -14   15.06    0.82 
  -6   2  14   13.14    0.67 
   6   2 -14   12.32    0.68 
   6   2 -14   11.67    0.71 
   6   2 -14   12.02    0.61 
  -6   2  14   13.22    0.62 
  -6   2  14   12.22    0.64 
   4  -2 -14   10.40    0.54 
   4  -2 -14   10.79    0.53 
   4  -2 -14   10.05    0.54 
  -4  -2  14   11.76    0.59 
   4  -2 -14   10.22    0.57 
  -4   2  14   10.25    0.53 
  -4   2  14    9.42    0.59 
   4   2 -14    9.75    0.55 
  -4   2  14    9.08    0.65 
   4   2 -14    9.45    0.47 
  -4   2  14    9.40    0.48 
   4   2 -14    9.76    0.59 
   2  -2 -14   13.31    0.69 
  -2  -2  14   16.02    0.73 
   2  -2 -14   14.37    0.75 
   2  -2 -14   12.81    0.63 
   2  -2 -14   14.43    0.69 
   2  -2 -14   13.40    0.71 
   2  -2 -14   14.09    0.73 
   2  -2 -14   14.06    0.68 
   2   2 -14   13.43    0.81 
   2   2 -14   14.28    0.75 
  -2   2  14   14.31    0.74 
   2   2 -14   15.61    0.88 
  -2   2  14   14.50    0.91 
  -2   2  14   14.41    0.84 
   0  -2 -14   16.59    0.80 
   0  -2 -14   16.40    0.86 
   0  -2  14   17.70    0.88 
   0  -2 -14   17.30    0.87 
   0  -2 -14   15.98    0.81 
   0  -2 -14   15.37    0.73 
   0  -2 -14   16.45    0.83 
   0   2  14   15.73    0.90 
   0   2  14   16.33    0.97 
   0   2 -14   15.54    0.82 
   0   2 -14   15.38    0.90 
   0   2 -14   16.76    0.96 
   0   2 -14   14.80    0.80 
  -2  -2 -14   27.11    1.32 
  -2  -2 -14   27.08    1.35 
  -2  -2 -14   25.38    1.27 
   2  -2  14   27.53    1.37 
  -2  -2 -14   26.25    1.24 
  -2  -2 -14   25.31    1.15 
  -2   2 -14   23.72    1.22 
  -2   2 -14   23.51    1.24 
   2   2  14   24.33    1.37 
   2   2  14   25.16    1.47 
  -4  -2 -14    7.73    0.38 
  -4  -2 -14    7.53    0.43 
  -4  -2 -14    7.97    0.48 
  -4  -2 -14    7.97    0.42 
  -4  -2 -14    7.85    0.45 
  -4   2 -14    6.81    0.34 
   4   2  14    7.02    0.46 
  -4   2 -14    6.61    0.38 
   4   2  14    6.51    0.44 
  -6  -2 -14   14.71    0.73 
  -6  -2 -14   14.36    0.79 
  -6  -2 -14   14.22    0.73 
  -6  -2 -14   14.20    0.65 
  -6   2 -14   12.36    0.62 
   6   2  14   10.85    0.74 
  -6   2 -14   12.40    0.54 
   6   2  14   11.16    0.70 
  -8  -2 -14   15.45    0.69 
  -8  -2 -14   15.65    0.76 
   8   2  14   11.97    0.72 
  -8   2 -14   12.91    0.56 
   9   3 -14    6.76    0.37 
   7  -3 -14   13.30    0.65 
   7   3 -14   10.16    0.60 
  -7   3  14   10.58    0.52 
  -7   3  14   10.27    0.56 
   7   3 -14   10.75    0.58 
   7   3 -14   10.49    0.51 
  -7   3  14   10.57    0.54 
   5  -3 -14    6.42    0.33 
   5  -3 -14    7.11    0.38 
   5  -3 -14    6.94    0.39 
   5  -3 -14    7.36    0.37 
  -5   3  14    5.61    0.33 
  -5   3  14    5.62    0.39 
   5   3 -14    5.31    0.32 
  -5   3  14    5.89    0.32 
   5   3 -14    4.99    0.35 
   5   3 -14    4.83    0.28 
   3  -3 -14    2.25    0.18 
  -3  -3  14    3.05    0.30 
   3  -3 -14    2.62    0.23 
   3  -3 -14    2.49    0.18 
   3  -3 -14    2.19    0.20 
   3  -3 -14    2.14    0.15 
   3  -3 -14    2.15    0.17 
   3   3 -14    2.69    0.17 
  -3   3  14    2.58    0.24 
  -3   3  14    2.22    0.20 
   3   3 -14    2.24    0.18 
   3   3 -14    2.87    0.18 
  -3   3  14    2.05    0.26 
  -1  -3  14   15.78    0.94 
   1  -3 -14   18.44    0.86 
   1  -3 -14   17.65    0.90 
   1  -3 -14   18.63    0.94 
   1  -3 -14   16.91    0.92 
   1  -3 -14   18.54    0.88 
   1  -3 -14   18.28    0.79 
  -1  -3  14   17.24    0.99 
  -1  -3  14   18.24    0.90 
  -1   3  14   15.37    0.86 
   1   3 -14   15.02    0.85 
   1   3 -14   13.98    0.79 
   1   3 -14   14.97    0.91 
  -1   3  14   15.21    0.93 
  -1  -3 -14    5.28    0.34 
  -1  -3 -14    4.72    0.29 
  -1  -3 -14    5.25    0.35 
  -1  -3 -14    4.73    0.31 
  -1  -3 -14    5.08    0.27 
   1  -3  14    5.24    0.34 
   1  -3  14    4.88    0.33 
   1   3  14    4.45    0.30 
   1   3  14    4.28    0.31 
  -1   3 -14    4.42    0.29 
  -1   3 -14    4.21    0.29 
  -1   3 -14    3.97    0.27 
  -3  -3 -14    9.60    0.51 
  -3  -3 -14    9.30    0.51 
  -3  -3 -14    9.53    0.56 
  -3  -3 -14    9.28    0.52 
   3  -3  14    9.69    0.54 
  -3  -3 -14    9.33    0.45 
   3   3  14    7.96    0.54 
  -3   3 -14    8.66    0.47 
  -5  -3 -14    3.45    0.26 
  -5  -3 -14    3.69    0.30 
  -5  -3 -14    3.47    0.21 
  -5  -3 -14    3.33    0.30 
  -5   3 -14    2.99    0.21 
   5   3  14    2.78    0.25 
  -5   3 -14    2.86    0.19 
   5   3  14    2.75    0.26 
  -7  -3 -14    2.25    0.18 
  -7  -3 -14    2.13    0.14 
  -7  -3 -14    1.78    0.22 
  -7  -3 -14    2.03    0.21 
  -7   3 -14    2.14    0.15 
  -7   3 -14    1.95    0.13 
   7   3  14    2.14    0.19 
   6  -4 -14    3.43    0.19 
   6  -4 -14    3.99    0.23 
   6  -4 -14    3.95    0.23 
   6  -4 -14    3.94    0.22 
  -6   4  14    2.90    0.20 
  -6   4  14    2.93    0.21 
   6   4 -14    2.77    0.18 
   6   4 -14    2.80    0.17 
  -4  -4  14    3.43    0.33 
   4  -4 -14    3.71    0.23 
   4  -4 -14    3.77    0.21 
   4  -4 -14    3.93    0.24 
   4  -4 -14    3.72    0.24 
   4  -4 -14    3.87    0.23 
  -4   4  14    2.13    0.23 
   4   4 -14    1.65    0.13 
  -4   4  14    2.06    0.18 
  -4   4  14    2.23    0.19 
   4   4 -14    1.62    0.14 
  -4   4  14    1.76    0.25 
   4   4 -14    1.94    0.13 
   2  -4 -14    2.89    0.25 
   2  -4 -14    2.89    0.18 
  -2  -4  14    3.08    0.35 
   2  -4 -14    2.86    0.21 
  -2  -4  14    3.23    0.31 
   2  -4 -14    2.81    0.20 
   2  -4 -14    3.06    0.22 
  -2   4  14    2.56    0.24 
  -2   4  14    2.54    0.21 
  -2   4  14    2.40    0.27 
   2   4 -14    3.02    0.19 
   2   4 -14    2.82    0.19 
   2   4 -14    2.63    0.20 
   0  -4 -14    7.62    0.47 
   0  -4 -14    7.86    0.43 
   0  -4  14    8.47    0.46 
   0  -4 -14    7.62    0.45 
   0  -4 -14    7.47    0.43 
   0  -4  14    8.01    0.47 
   0  -4 -14    7.50    0.44 
   0  -4 -14    7.70    0.38 
   0  -4  14    8.24    0.53 
   0   4 -14    6.27    0.40 
   0   4 -14    6.24    0.39 
   0   4  14    6.01    0.39 
   2  -4  14    3.17    0.26 
  -2  -4 -14    3.14    0.28 
   2  -4  14    2.86    0.30 
  -2  -4 -14    2.80    0.20 
  -2  -4 -14    3.09    0.24 
  -2  -4 -14    3.06    0.27 
  -2  -4 -14    2.94    0.19 
   2  -4  14    3.00    0.25 
  -2   4 -14    1.79    0.17 
  -2   4 -14    1.78    0.17 
  -2   4 -14    1.87    0.18 
  -4  -4 -14    2.49    0.26 
  -4  -4 -14    2.68    0.22 
   4  -4  14    2.78    0.23 
  -4  -4 -14    2.62    0.27 
  -4  -4 -14    2.72    0.18 
   4   4  14    1.82    0.19 
  -4   4 -14    2.09    0.17 
   4   4  14    1.97    0.20 
  -4   4 -14    2.26    0.17 
  -6  -4 -14    8.85    0.49 
  -6  -4 -14    9.46    0.43 
  -6  -4 -14    9.60    0.48 
  -6   4 -14    7.38    0.39 
   6   4  14    7.18    0.44 
   5  -5 -14    2.13    0.15 
   5  -5 -14    1.99    0.14 
   5  -5 -14    1.97    0.12 
   5  -5 -14    2.38    0.15 
   5  -5 -14    2.08    0.13 
   5   5 -14    1.34    0.10 
  -5   5  14    1.22    0.19 
  -5   5  14    1.58    0.15 
   5   5 -14    1.29    0.11 
   3  -5 -14    3.25    0.20 
  -3  -5  14    3.51    0.30 
   3  -5 -14    3.30    0.18 
   3  -5 -14    3.45    0.21 
   3  -5 -14    3.36    0.22 
  -3   5  14    1.61    0.23 
   3   5 -14    1.42    0.12 
   1  -5 -14    7.48    0.42 
  -1  -5  14    6.96    0.51 
  -1  -5  14    7.20    0.45 
   1  -5 -14    7.57    0.41 
   1  -5 -14    8.08    0.41 
   1  -5 -14    7.62    0.36 
   1  -5 -14    7.20    0.41 
  -1  -5  14    7.72    0.45 
   1   5 -14    6.04    0.34 
   1   5 -14    5.87    0.34 
  -1   5  14    5.50    0.38 
  -1   5  14    5.58    0.34 
  -1   5  14    5.23    0.42 
  -1  -5 -14    0.75    0.11 
  -1  -5 -14    1.03    0.20 
   1  -5  14    0.63    0.15 
  -1  -5 -14    0.87    0.11 
  -1  -5 -14    0.60    0.15 
  -1  -5 -14    0.84    0.15 
   1  -5  14    0.75    0.17 
   1  -5  14    1.03    0.17 
  -1   5 -14    0.65    0.14 
  -1   5 -14    0.55    0.10 
   1   5  14    0.95    0.16 
  -1   5 -14    0.63    0.11 
  -3  -5 -14    5.50    0.27 
   3  -5  14    5.43    0.33 
  -3  -5 -14    5.37    0.33 
  -3  -5 -14    5.35    0.35 
  -3  -5 -14    5.28    0.31 
  -3   5 -14    4.31    0.27 
  -3   5 -14    4.43    0.26 
  -5  -5 -14    2.72    0.21 
  -5  -5 -14    3.10    0.19 
  -5   5 -14    2.83    0.18 
   2  -6 -14    5.63    0.29 
  -2  -6  14    5.90    0.38 
  -2  -6  14    5.97    0.33 
   2  -6 -14    5.18    0.26 
   2  -6 -14    6.00    0.30 
   0  -6  14    3.03    0.25 
   0  -6  14    3.00    0.23 
   0  -6 -14    2.83    0.15 
   0  -6 -14    2.84    0.17 
   0  -6 -14    2.72    0.17 
   0   6 -14    1.77    0.14 
  10   0 -15    3.06    0.20 
 -10   0  15    3.20    0.19 
   8   0 -15    9.61    0.54 
  -8   0  15    9.93    0.55 
   8   0 -15    9.83    0.48 
  -8   0  15    9.70    0.50 
  -6   0  15   25.12    1.25 
  -6   0  15   24.91    1.15 
   6   0 -15   24.72    1.16 
   6   0 -15   23.10    1.29 
  -4   0  15    8.62    0.46 
   4   0 -15    8.50    0.43 
  -4   0  15    9.11    0.49 
   4   0 -15    8.85    0.47 
  -2   0  15   52.52    2.57 
   2   0 -15   51.87    2.62 
  -2   0 -15   58.93    2.83 
  -2   0 -15   58.15    2.47 
   2   0  15   55.86    3.22 
  -4   0 -15   48.64    2.46 
  -4   0 -15   51.29    2.15 
  -6   0 -15    0.57    0.10 
  -6   0 -15    0.53    0.12 
  -8   0 -15    8.98    0.42 
  -8   0 -15    9.30    0.47 
   9  -1 -15    6.98    0.34 
  -9  -1  15    6.97    0.36 
  -9  -1  15    6.88    0.40 
   9  -1 -15    6.53    0.39 
  -9   1  15    6.42    0.37 
  -9   1  15    6.73    0.35 
   9   1 -15    6.41    0.38 
   7  -1 -15    3.84    0.27 
   7  -1 -15    3.83    0.23 
  -7  -1  15    3.79    0.29 
  -7  -1  15    3.79    0.28 
  -7   1  15    3.28    0.25 
   7   1 -15    3.49    0.21 
  -7   1  15    3.19    0.25 
   7   1 -15    3.56    0.25 
  -5  -1  15    6.36    0.39 
   5  -1 -15    6.43    0.34 
   5  -1 -15    6.35    0.36 
  -5   1  15    6.53    0.38 
  -5   1  15    6.22    0.36 
   5   1 -15    6.10    0.37 
   5   1 -15    6.32    0.33 
   3  -1 -15   20.76    0.97 
   3  -1 -15   19.71    0.98 
   3  -1 -15   21.48    1.06 
   3   1 -15   18.98    0.93 
  -3   1  15   18.77    0.91 
  -3   1  15   19.60    1.14 
  -3   1  15   20.87    1.00 
   3   1 -15   19.83    1.00 
   1  -1 -15   50.28    2.38 
   1  -1 -15   45.83    2.41 
   1   1 -15   43.34    2.26 
  -1   1  15   46.10    2.71 
  -1   1  15   45.60    2.22 
  -1   1  15   44.96    2.52 
  -1  -1 -15   12.48    0.66 
  -1  -1 -15   12.75    0.56 
  -1  -1 -15   11.42    0.62 
  -1   1 -15   10.77    0.61 
  -1   1 -15   10.45    0.62 
   1   1  15   12.94    0.69 
   1   1  15   12.89    0.74 
  -3  -1 -15   24.46    1.21 
  -3  -1 -15   26.04    1.13 
  -3  -1 -15   24.83    1.24 
  -3  -1 -15   27.11    1.29 
  -3  -1 -15   26.93    1.32 
  -3   1 -15   22.14    1.07 
   3   1  15   25.56    1.49 
  -3   1 -15   24.42    1.23 
   3   1  15   25.92    1.39 
  -5  -1 -15   38.41    1.79 
  -5  -1 -15   37.20    1.63 
  -5  -1 -15   36.79    1.85 
   5   1  15   29.19    1.90 
  -5   1 -15   32.08    1.56 
  -5   1 -15   32.94    1.37 
   5   1  15   31.44    1.78 
  -7  -1 -15    4.55    0.28 
  -7  -1 -15    4.37    0.24 
  -7   1 -15    3.77    0.23 
  -7   1 -15    4.04    0.22 
  -9  -1 -15    2.31    0.14 
  -9  -1 -15    2.34    0.17 
  -9   1 -15    2.12    0.12 
   8  -2 -15    8.13    0.39 
   8  -2 -15    7.37    0.44 
  -8   2  15    6.17    0.36 
  -8   2  15    6.26    0.35 
   8   2 -15    5.69    0.31 
   8   2 -15    6.43    0.37 
  -8   2  15    6.48    0.34 
   6  -2 -15   11.16    0.58 
   6  -2 -15   12.18    0.58 
   6  -2 -15   11.44    0.61 
   6   2 -15    9.77    0.48 
  -6   2  15    9.90    0.50 
  -6   2  15    8.69    0.51 
   6   2 -15    9.75    0.54 
  -6   2  15   10.03    0.54 
   4  -2 -15   23.31    1.10 
   4  -2 -15   22.96    1.12 
   4  -2 -15   23.70    1.20 
   4  -2 -15   23.53    1.11 
  -4   2  15   20.17    1.22 
   4   2 -15   21.40    1.19 
   4   2 -15   21.72    1.01 
  -4   2  15   20.47    0.99 
  -4   2  15   22.18    1.08 
  -2  -2  15   18.29    0.92 
   2  -2 -15   17.54    0.87 
   2  -2 -15   18.12    0.92 
   2  -2 -15   17.85    0.89 
   2  -2 -15   19.47    0.96 
   2  -2 -15   18.27    0.94 
   2  -2 -15   17.34    0.80 
   2  -2 -15   19.18    0.88 
  -2   2  15   17.07    0.99 
   2   2 -15   15.25    0.81 
   2   2 -15   15.00    0.95 
  -2   2  15   16.41    0.91 
   2   2 -15   14.17    0.88 
  -2   2  15   16.34    0.81 
   0  -2 -15   14.25    0.75 
   0  -2 -15   13.67    0.71 
   0  -2 -15   13.95    0.64 
   0  -2 -15   14.93    0.71 
   0  -2  15   14.20    0.73 
   0  -2 -15   15.27    0.77 
   0  -2 -15   14.45    0.73 
   0   2 -15   11.11    0.61 
   0   2  15   12.55    0.68 
   0   2 -15   11.12    0.60 
   0   2  15   12.16    0.72 
   0   2 -15   10.53    0.66 
   2  -2  15   25.78    1.39 
  -2  -2 -15   27.77    1.26 
  -2  -2 -15   26.54    1.17 
  -2  -2 -15   27.86    1.38 
  -2  -2 -15   27.24    1.34 
  -2  -2 -15   26.05    1.29 
  -2   2 -15   22.93    1.20 
  -2   2 -15   22.48    1.22 
   2   2  15   26.00    1.36 
   2   2  15   23.73    1.44 
  -4  -2 -15   10.62    0.58 
  -4  -2 -15   10.96    0.51 
  -4  -2 -15   11.13    0.63 
  -4  -2 -15   10.91    0.57 
  -4  -2 -15   11.18    0.57 
  -4   2 -15    9.47    0.52 
   4   2  15    9.93    0.63 
   4   2  15    9.88    0.59 
  -4   2 -15    9.44    0.46 
  -6  -2 -15   14.77    0.73 
  -6  -2 -15   14.55    0.66 
  -6  -2 -15   14.01    0.79 
   6   2  15   12.32    0.73 
   6   2  15   11.84    0.77 
  -6   2 -15   12.36    0.64 
  -6   2 -15   12.63    0.56 
  -8  -2 -15    9.48    0.44 
  -8  -2 -15   10.03    0.50 
  -8   2 -15    8.17    0.38 
   7  -3 -15    6.12    0.32 
  -7   3  15    4.88    0.28 
  -7   3  15    4.74    0.29 
   7   3 -15    4.02    0.24 
  -7   3  15    5.04    0.28 
   7   3 -15    4.58    0.29 
   5  -3 -15    6.03    0.34 
   5  -3 -15    6.21    0.36 
   5  -3 -15    6.54    0.34 
   5   3 -15    5.84    0.31 
  -5   3  15    5.50    0.42 
   5   3 -15    6.14    0.35 
  -5   3  15    6.21    0.33 
  -5   3  15    5.55    0.35 
   5   3 -15    5.87    0.38 
  -3  -3  15   20.98    1.05 
  -3  -3  15   20.69    1.17 
   3  -3 -15   20.73    1.01 
   3  -3 -15   21.25    1.00 
   3  -3 -15   20.67    1.08 
   3  -3 -15   21.79    1.02 
   3  -3 -15   21.71    1.06 
   3  -3 -15   19.75    0.92 
   3   3 -15   15.60    0.82 
   3   3 -15   14.83    0.95 
  -3   3  15   16.44    0.93 
   3   3 -15   15.46    0.89 
  -3   3  15   16.97    0.82 
  -3   3  15   15.05    1.00 
  -1  -3  15    5.27    0.39 
  -1  -3  15    4.26    0.33 
   1  -3 -15    4.74    0.29 
   1  -3 -15    4.64    0.33 
   1  -3 -15    4.72    0.31 
   1  -3 -15    4.68    0.25 
   1  -3 -15    4.65    0.29 
   1  -3 -15    4.37    0.27 
  -1  -3  15    4.88    0.35 
   1   3 -15    3.20    0.24 
  -1   3  15    3.56    0.29 
  -1   3  15    3.78    0.27 
   1   3 -15    3.73    0.24 
  -1   3  15    3.81    0.25 
   1   3 -15    3.46    0.24 
  -1  -3 -15    6.73    0.39 
   1  -3  15    6.88    0.43 
  -1  -3 -15    6.68    0.34 
   1  -3  15    6.87    0.42 
  -1  -3 -15    6.74    0.43 
  -1  -3 -15    6.91    0.38 
  -1  -3 -15    7.27    0.42 
   1   3  15    6.32    0.42 
  -1   3 -15    5.95    0.36 
  -1   3 -15    6.40    0.39 
  -1   3 -15    6.11    0.37 
  -3  -3 -15   10.38    0.54 
  -3  -3 -15   10.47    0.54 
  -3  -3 -15   10.11    0.47 
  -3  -3 -15   10.14    0.55 
  -3  -3 -15   10.42    0.59 
   3  -3  15    8.90    0.57 
  -3   3 -15    7.47    0.45 
   3   3  15    8.54    0.52 
  -3   3 -15    7.39    0.45 
   3   3  15    8.37    0.50 
  -5  -3 -15    0.96    0.17 
  -5  -3 -15    0.87    0.18 
  -5  -3 -15    0.91    0.17 
  -5  -3 -15    1.03    0.13 
  -5   3 -15    0.68    0.12 
   5   3  15    0.71    0.13 
  -5   3 -15    0.62    0.11 
   5   3  15    0.95    0.16 
  -7  -3 -15    0.58    0.10 
  -7  -3 -15    0.36    0.12 
  -7  -3 -15    0.68    0.11 
  -7   3 -15    0.61    0.08 
   7   3  15    0.66    0.14 
  -7   3 -15    0.46    0.08 
   6  -4 -15    5.17    0.29 
   6  -4 -15    5.02    0.27 
  -6   4  15    3.81    0.23 
  -6   4  15    3.87    0.24 
   6   4 -15    3.53    0.20 
   6   4 -15    3.19    0.22 
   4  -4 -15    2.23    0.16 
   4  -4 -15    2.21    0.17 
   4  -4 -15    2.11    0.14 
   4  -4 -15    2.22    0.17 
  -4  -4  15    2.21    0.27 
   4  -4 -15    2.06    0.15 
   4   4 -15    1.55    0.12 
  -4   4  15    1.62    0.17 
   4   4 -15    1.54    0.12 
  -4   4  15    1.39    0.21 
  -4   4  15    1.60    0.17 
  -4   4  15    1.20    0.23 
   2  -4 -15    7.50    0.37 
   2  -4 -15    7.48    0.42 
   2  -4 -15    8.03    0.42 
  -2  -4  15    8.12    0.48 
   2  -4 -15    7.51    0.43 
  -2  -4  15    7.55    0.52 
   2  -4 -15    7.52    0.43 
  -2   4  15    6.46    0.39 
  -2   4  15    6.58    0.43 
   2   4 -15    7.01    0.39 
   2   4 -15    6.52    0.37 
  -2   4  15    6.26    0.48 
   0  -4 -15    6.91    0.41 
   0  -4 -15    6.51    0.39 
   0  -4 -15    6.92    0.43 
   0  -4  15    6.46    0.47 
   0  -4 -15    6.67    0.38 
   0  -4 -15    6.87    0.34 
   0  -4  15    6.72    0.43 
   0  -4  15    7.02    0.43 
   0  -4 -15    7.13    0.39 
   0   4  15    5.27    0.33 
   0   4 -15    5.00    0.32 
   0   4 -15    5.03    0.32 
   0   4  15    5.35    0.37 
   0   4 -15    4.72    0.33 
  -2  -4 -15    5.14    0.32 
   2  -4  15    5.93    0.35 
   2  -4  15    5.31    0.35 
  -2  -4 -15    5.22    0.28 
  -2  -4 -15    5.40    0.36 
  -2  -4 -15    5.15    0.37 
  -2  -4 -15    5.20    0.31 
  -2   4 -15    3.81    0.24 
  -2   4 -15    3.65    0.25 
   2   4  15    3.15    0.26 
  -2   4 -15    3.85    0.25 
  -4  -4 -15    3.48    0.28 
   4  -4  15    2.93    0.26 
  -4  -4 -15    3.61    0.24 
  -4  -4 -15    3.42    0.28 
  -4  -4 -15    3.62    0.20 
  -4   4 -15    2.62    0.19 
  -4   4 -15    2.81    0.19 
   4   4  15    2.47    0.22 
   4   4  15    2.70    0.22 
  -6  -4 -15    6.54    0.31 
  -6  -4 -15    6.06    0.36 
  -6  -4 -15    6.79    0.35 
   6   4  15    4.58    0.29 
  -6   4 -15    4.49    0.26 
   5  -5 -15    0.51    0.08 
   5  -5 -15    0.52    0.06 
   5  -5 -15    0.45    0.06 
   5  -5 -15    0.62    0.08 
   5  -5 -15    0.57    0.09 
   5   5 -15    0.44    0.07 
  -5   5  15    0.41    0.09 
   3  -5 -15    3.76    0.23 
   3  -5 -15    3.68    0.22 
   3  -5 -15    3.69    0.19 
  -3  -5  15    3.33    0.30 
   3  -5 -15    3.92    0.22 
  -3  -5  15    3.58    0.37 
  -3   5  15    2.65    0.24 
   3   5 -15    2.89    0.17 
  -3   5  15    2.68    0.20 
   1  -5 -15    2.36    0.21 
  -1  -5  15    2.14    0.31 
   1  -5 -15    2.32    0.15 
   1  -5 -15    2.23    0.16 
  -1  -5  15    2.54    0.26 
   1  -5 -15    2.50    0.19 
   1  -5 -15    2.24    0.18 
  -1   5  15    1.91    0.20 
   1   5 -15    1.90    0.14 
  -1   5  15    1.57    0.22 
  -1   5  15    1.87    0.19 
   1   5 -15    1.76    0.15 
  -1  -5 -15    4.44    0.33 
   1  -5  15    5.75    0.34 
   1  -5  15    5.56    0.38 
  -1  -5 -15    5.30    0.29 
   1  -5  15    5.64    0.34 
  -1  -5 -15    5.16    0.30 
  -1  -5 -15    4.98    0.32 
  -1  -5 -15    4.91    0.26 
   1   5  15    3.90    0.28 
  -1   5 -15    4.47    0.27 
  -1   5 -15    4.42    0.27 
  -3  -5 -15    3.22    0.28 
  -3  -5 -15    3.32    0.25 
  -3  -5 -15    3.55    0.19 
  -3  -5 -15    3.45    0.22 
  -3   5 -15    2.60    0.18 
  -3   5 -15    2.69    0.19 
  -5   5 -15    1.33    0.11 
  -8   0  16    1.83    0.18 
   8   0 -16    1.61    0.16 
   8   0 -16    1.68    0.13 
  -8   0  16    1.61    0.18 
  -6   0  16   10.67    0.55 
  -6   0  16   10.89    0.59 
   6   0 -16   10.23    0.58 
   6   0 -16   10.80    0.53 
  -4   0  16    7.98    0.44 
   4   0 -16    8.27    0.42 
   4   0 -16    8.52    0.45 
  -4   0  16    8.65    0.47 
   2   0 -16   12.97    0.68 
  -2   0  16   14.85    0.74 
   2   0 -16   15.08    0.74 
   0   0 -16   22.32    1.08 
   0   0 -16   20.94    1.10 
  -2   0 -16   34.49    1.83 
  -2   0 -16   37.69    1.57 
  -2   0 -16   36.80    1.79 
  -4   0 -16    0.85    0.11 
  -4   0 -16    0.99    0.12 
  -6   0 -16    1.39    0.13 
  -6   0 -16    1.75    0.13 
  -8   0 -16    5.90    0.29 
   9  -1 -16    2.48    0.15 
   9  -1 -16    2.42    0.17 
  -9  -1  16    2.25    0.17 
  -9   1  16    2.29    0.17 
   9   1 -16    2.14    0.17 
  -7  -1  16    2.06    0.21 
   7  -1 -16    2.14    0.16 
  -7  -1  16    1.87    0.21 
   7  -1 -16    2.12    0.19 
   7   1 -16    1.70    0.14 
  -7   1  16    1.60    0.19 
   7   1 -16    1.58    0.17 
  -7   1  16    1.68    0.18 
   5  -1 -16    1.50    0.15 
   5  -1 -16    1.58    0.14 
  -5  -1  16    1.63    0.20 
   5   1 -16    1.50    0.17 
  -5   1  16    1.78    0.20 
  -5   1  16    1.79    0.19 
   5   1 -16    1.65    0.14 
   3  -1 -16   28.57    1.40 
   3  -1 -16   27.58    1.27 
   3  -1 -16   26.30    1.29 
  -3   1  16   26.60    1.26 
   3   1 -16   25.73    1.27 
   3   1 -16   23.65    1.18 
  -3   1  16   24.10    1.15 
  -1  -1  16   33.59    1.67 
   1  -1 -16   35.02    1.72 
   1  -1 -16   33.35    1.76 
   1  -1 -16   37.17    1.75 
   1  -1 -16   35.51    1.60 
   1   1 -16   26.19    1.38 
  -1   1  16   30.96    1.47 
  -1   1  16   31.94    1.80 
  -1   1  16   31.04    1.67 
   1   1 -16   29.50    1.50 
   1   1 -16   27.61    1.46 
  -1  -1 -16   10.08    0.48 
  -1  -1 -16   10.12    0.55 
  -1  -1 -16   10.54    0.54 
  -1  -1 -16   11.19    0.58 
  -1  -1 -16    9.94    0.54 
   1   1  16   11.40    0.66 
  -1   1 -16   10.87    0.58 
  -1   1 -16   10.67    0.59 
   1   1  16   11.98    0.72 
  -3  -1 -16   20.88    0.90 
  -3  -1 -16   20.34    1.06 
  -3  -1 -16   19.47    0.99 
  -3  -1 -16   20.66    1.02 
  -3   1 -16   18.12    0.85 
  -3   1 -16   19.69    0.98 
   3   1  16   19.71    1.19 
   3   1  16   19.91    1.11 
  -5  -1 -16   25.65    1.22 
  -5  -1 -16   24.76    1.26 
  -5  -1 -16   25.40    1.11 
  -5   1 -16   20.17    1.01 
  -5   1 -16   20.03    0.89 
   5   1  16   19.56    1.14 
  -7  -1 -16    6.09    0.34 
  -7  -1 -16    6.12    0.30 
  -7   1 -16    5.22    0.29 
  -7   1 -16    5.31    0.27 
   8  -2 -16    1.19    0.14 
   8  -2 -16    1.45    0.12 
   8   2 -16    1.17    0.14 
  -8   2  16    0.85    0.13 
  -8   2  16    1.09    0.14 
   8   2 -16    0.97    0.10 
   6  -2 -16    7.88    0.45 
   6  -2 -16    8.50    0.42 
  -6   2  16    7.22    0.37 
   6   2 -16    6.65    0.34 
  -6   2  16    6.65    0.39 
  -6   2  16    5.95    0.38 
   6   2 -16    6.81    0.39 
  -4  -2  16   23.35    1.26 
   4  -2 -16   21.93    1.13 
   4  -2 -16   22.44    1.04 
   4  -2 -16   21.31    1.05 
   4  -2 -16   21.39    1.06 
  -4   2  16   17.39    1.04 
  -4   2  16   19.07    0.92 
   4   2 -16   17.63    0.85 
  -4   2  16   18.00    0.84 
   4   2 -16   17.34    1.00 
   4   2 -16   17.56    0.92 
   2  -2 -16    2.76    0.23 
   2  -2 -16    2.35    0.17 
   2  -2 -16    2.48    0.21 
   2  -2 -16    2.42    0.18 
   2  -2 -16    2.72    0.19 
  -2  -2  16    2.78    0.29 
   2  -2 -16    2.53    0.18 
  -2   2  16    1.92    0.21 
   2   2 -16    1.66    0.13 
  -2   2  16    2.09    0.23 
  -2   2  16    2.09    0.18 
   2   2 -16    1.83    0.15 
   0  -2 -16    5.35    0.28 
   0  -2  16    5.40    0.37 
   0  -2 -16    5.53    0.31 
   0  -2 -16    5.45    0.32 
   0  -2 -16    5.60    0.33 
   0  -2 -16    5.92    0.36 
   0  -2 -16    5.31    0.34 
   0   2  16    4.70    0.33 
   0   2  16    4.74    0.35 
   0   2 -16    4.88    0.28 
   0   2 -16    4.91    0.29 
  -2  -2 -16   28.73    1.34 
  -2  -2 -16   29.17    1.46 
  -2  -2 -16   27.68    1.37 
  -2  -2 -16   28.01    1.24 
  -2  -2 -16   28.95    1.42 
   2   2  16   27.72    1.50 
  -2   2 -16   25.62    1.35 
   2   2  16   25.99    1.61 
  -2   2 -16   26.54    1.33 
  -4  -2 -16   14.55    0.76 
  -4  -2 -16   15.37    0.77 
  -4  -2 -16   15.24    0.69 
  -4  -2 -16   15.68    0.78 
  -4  -2 -16   15.47    0.83 
  -4   2 -16   13.20    0.63 
   4   2  16   14.14    0.82 
  -4   2 -16   14.93    0.73 
   4   2  16   13.61    0.87 
  -6  -2 -16    3.13    0.23 
  -6  -2 -16    3.19    0.18 
  -6  -2 -16    2.51    0.26 
  -6  -2 -16    2.70    0.26 
  -6   2 -16    2.90    0.18 
  -6   2 -16    2.59    0.18 
   6   2  16    2.84    0.23 
   6   2  16    2.85    0.24 
  -8  -2 -16    6.94    0.36 
  -8  -2 -16    6.61    0.31 
  -8   2 -16    6.00    0.28 
   7  -3 -16    6.69    0.35 
  -7   3  16    5.21    0.32 
   7   3 -16    6.08    0.33 
  -7   3  16    5.50    0.31 
   7   3 -16    5.65    0.29 
   5  -3 -16   17.36    0.89 
   5  -3 -16   17.02    0.84 
   5  -3 -16   17.19    0.83 
   5   3 -16   13.00    0.73 
  -5   3  16   13.35    0.63 
   5   3 -16   13.07    0.62 
  -5   3  16   11.70    0.77 
  -5   3  16   13.01    0.68 
   3  -3 -16   22.48    1.05 
   3  -3 -16   21.62    1.06 
   3  -3 -16   20.76    0.97 
   3  -3 -16   22.35    1.15 
  -3  -3  16   23.73    1.11 
   3  -3 -16   21.49    1.12 
  -3  -3  16   23.50    1.24 
   3  -3 -16   22.10    1.08 
  -3   3  16   16.58    0.85 
   3   3 -16   16.64    0.85 
  -3   3  16   16.74    0.96 
   3   3 -16   16.19    0.99 
  -3   3  16   14.60    1.04 
   3   3 -16   17.11    0.93 
   3   3 -16   16.83    0.79 
  -1  -3  16    5.71    0.37 
   1  -3 -16    4.65    0.28 
   1  -3 -16    4.78    0.32 
   1  -3 -16    4.51    0.30 
   1  -3 -16    4.83    0.30 
   1  -3 -16    4.70    0.26 
   1  -3 -16    4.87    0.34 
  -1   3  16    3.94    0.30 
  -1   3  16    4.11    0.29 
   1   3 -16    4.36    0.27 
   1   3 -16    4.31    0.28 
  -1   3  16    3.60    0.33 
   1   3 -16    4.50    0.26 
   1  -3  16   13.82    0.75 
  -1  -3 -16   14.83    0.73 
  -1  -3 -16   14.74    0.75 
  -1  -3 -16   14.73    0.79 
  -1  -3 -16   14.59    0.66 
  -1  -3 -16   15.03    0.73 
   1  -3  16   13.97    0.79 
   1   3  16   12.51    0.75 
  -1   3 -16   11.17    0.62 
   1   3  16   12.15    0.70 
  -1   3 -16   12.02    0.64 
  -1   3 -16   11.31    0.68 
  -3  -3 -16    1.64    0.16 
  -3  -3 -16    1.48    0.22 
  -3  -3 -16    1.69    0.19 
  -3  -3 -16    1.74    0.14 
  -3  -3 -16    1.72    0.24 
  -3   3 -16    0.88    0.14 
   3   3  16    1.27    0.18 
  -3   3 -16    1.02    0.14 
   3   3  16    1.30    0.16 
  -5  -3 -16    0.23    0.11 
  -5  -3 -16    0.06    0.14 
  -5  -3 -16    0.07    0.14 
  -5  -3 -16    0.18    0.08 
   5   3  16    0.11    0.10 
  -5   3 -16    0.15    0.07 
   5   3  16    0.22    0.09 
  -7  -3 -16    1.18    0.13 
  -7  -3 -16    1.12    0.10 
  -7  -3 -16    1.19    0.17 
  -7   3 -16    0.94    0.09 
  -7   3 -16    1.07    0.09 
   6  -4 -16    3.84    0.22 
   6  -4 -16    3.99    0.23 
  -6   4  16    3.00    0.20 
  -6   4  16    3.03    0.20 
   6   4 -16    3.28    0.20 
   6   4 -16    3.02    0.17 
   6   4 -16    2.60    0.19 
   4  -4 -16    8.25    0.45 
  -4  -4  16    8.77    0.49 
  -4  -4  16    8.67    0.59 
   4  -4 -16    8.21    0.43 
   4  -4 -16    7.96    0.43 
   4  -4 -16    8.12    0.42 
   4  -4 -16    7.70    0.38 
  -4   4  16    6.48    0.36 
  -4   4  16    6.66    0.39 
   4   4 -16    6.77    0.42 
  -4   4  16    5.93    0.44 
   4   4 -16    7.16    0.34 
   4   4 -16    7.39    0.39 
   2  -4 -16   13.92    0.64 
  -2  -4  16   14.36    0.74 
   2  -4 -16   14.15    0.73 
   2  -4 -16   14.15    0.75 
   2  -4 -16   14.20    0.70 
  -2  -4  16   13.76    0.83 
   2  -4 -16   14.61    0.71 
   2   4 -16   10.20    0.59 
  -2   4  16   10.61    0.63 
   2   4 -16   10.70    0.55 
  -2   4  16   10.19    0.56 
  -2   4  16    9.62    0.68 
   0  -4 -16    4.14    0.27 
   0  -4 -16    3.91    0.24 
   0  -4 -16    4.21    0.29 
   0  -4 -16    3.95    0.22 
   0  -4  16    4.01    0.37 
   0  -4  16    3.71    0.30 
   0  -4  16    4.14    0.32 
   0  -4 -16    3.99    0.30 
   0  -4 -16    3.85    0.26 
   0   4 -16    3.05    0.22 
   0   4  16    3.23    0.25 
   0   4  16    2.70    0.26 
   0   4  16    3.10    0.25 
   0   4 -16    2.82    0.20 
  -2  -4 -16    7.64    0.43 
   2  -4  16    7.85    0.47 
  -2  -4 -16    7.86    0.38 
  -2  -4 -16    7.95    0.43 
  -2  -4 -16    7.77    0.48 
   2  -4  16    7.83    0.46 
  -2  -4 -16    8.45    0.45 
  -2   4 -16    5.76    0.33 
  -2   4 -16    5.35    0.35 
   2   4  16    4.97    0.38 
   2   4  16    5.93    0.37 
  -2   4 -16    6.03    0.34 
  -4  -4 -16    5.23    0.31 
  -4  -4 -16    5.25    0.27 
  -4  -4 -16    4.88    0.35 
  -4  -4 -16    5.32    0.33 
   4   4  16    3.59    0.26 
  -4   4 -16    4.05    0.23 
   4   4  16    3.28    0.27 
  -4   4 -16    3.90    0.23 
  -6  -4 -16    2.28    0.16 
  -6  -4 -16    2.34    0.15 
  -6  -4 -16    2.04    0.19 
  -6   4 -16    1.07    0.09 
   5  -5 -16    1.58    0.11 
  -5   5  16    1.29    0.13 
  -3  -5  16    0.59    0.20 
   3  -5 -16    0.71    0.08 
   3  -5 -16    0.71    0.08 
  -3  -5  16    0.47    0.14 
   3  -5 -16    0.78    0.10 
   3  -5 -16    0.69    0.10 
  -3   5  16    0.53    0.10 
   3   5 -16    0.44    0.07 
  -3   5  16    0.42    0.12 
   3   5 -16    0.42    0.06 
   1  -5 -16    9.71    0.52 
  -1  -5  16   10.69    0.60 
   1  -5 -16    9.39    0.45 
   1  -5 -16    9.77    0.53 
   1  -5 -16    9.33    0.50 
  -1  -5  16   10.88    0.54 
   1  -5 -16   10.00    0.50 
   1   5 -16    8.71    0.45 
  -1   5  16    7.57    0.48 
  -1   5  16    6.58    0.42 
   1   5 -16    7.88    0.42 
   1  -5  16    8.94    0.48 
  -1  -5 -16    8.92    0.42 
  -1  -5 -16    8.22    0.50 
  -1  -5 -16    9.62    0.47 
  -1  -5 -16    9.20    0.47 
   1  -5  16    8.85    0.54 
  -1  -5 -16    9.46    0.47 
  -1   5 -16    7.69    0.40 
   1   5  16    6.49    0.40 
  -3  -5 -16    2.59    0.21 
  -3  -5 -16    2.75    0.16 
  -3  -5 -16    2.76    0.18 
  -3   5 -16    1.77    0.14 
  -3   5 -16    2.30    0.15 
   8   0 -17    6.97    0.35 
  -8   0  17    7.00    0.37 
   8   0 -17    6.80    0.40 
  -8   0  17    7.00    0.40 
  -6   0  17    5.97    0.37 
  -6   0  17    6.12    0.35 
   6   0 -17    5.50    0.35 
   6   0 -17    6.29    0.32 
   4   0 -17    2.67    0.18 
  -4   0  17    2.50    0.22 
  -4   0  17    2.11    0.22 
   4   0 -17    2.67    0.17 
   2   0 -17    0.12    0.06 
   2   0 -17    0.08    0.06 
  -2   0  17    0.28    0.11 
   0   0 -17   12.04    0.61 
   0   0 -17   11.64    0.62 
  -2   0 -17    0.27    0.08 
  -2   0 -17    0.34    0.07 
  -2   0 -17    0.21    0.06 
  -4   0 -17    0.30    0.08 
  -4   0 -17    0.11    0.07 
  -6   0 -17    8.78    0.40 
  -6   0 -17    7.76    0.43 
  -8   0 -17    0.25    0.06 
   9  -1 -17    1.82    0.14 
  -9  -1  17    1.71    0.15 
   9  -1 -17    1.91    0.12 
  -9   1  17    1.80    0.15 
   9   1 -17    1.73    0.14 
  -7  -1  17    4.65    0.29 
   7  -1 -17    4.37    0.29 
  -7  -1  17    4.82    0.31 
   7  -1 -17    4.88    0.26 
  -7   1  17    4.33    0.28 
  -7   1  17    4.31    0.29 
   7   1 -17    4.61    0.25 
   7   1 -17    4.57    0.29 
  -5  -1  17    9.18    0.52 
   5  -1 -17    9.19    0.46 
   5  -1 -17    9.35    0.50 
  -5   1  17    8.71    0.48 
   5   1 -17    8.17    0.47 
  -5   1  17    8.45    0.45 
   5   1 -17    8.62    0.43 
   3  -1 -17   19.08    0.96 
   3  -1 -17   21.07    1.04 
   3  -1 -17   20.31    0.95 
   3   1 -17   16.80    0.84 
  -3   1  17   18.67    0.91 
  -3   1  17   17.18    0.83 
   3   1 -17   17.67    0.90 
   1  -1 -17   16.80    0.91 
   1  -1 -17   17.57    0.85 
   1  -1 -17   17.69    0.89 
   1  -1 -17   18.51    0.92 
   1   1 -17   13.85    0.73 
   1   1 -17   15.06    0.77 
  -1   1  17   15.83    0.89 
  -1   1  17   16.16    0.79 
   1   1 -17   15.73    0.79 
  -1  -1 -17   16.57    0.75 
  -1  -1 -17   16.39    0.87 
  -1  -1 -17   17.78    0.89 
  -1  -1 -17   16.49    0.82 
  -1  -1 -17   17.25    0.85 
  -1   1 -17   15.65    0.80 
  -1   1 -17   15.20    0.82 
   1   1  17   15.93    0.91 
   1   1  17   16.27    0.98 
  -3  -1 -17   15.31    0.68 
  -3  -1 -17   14.33    0.82 
  -3  -1 -17   15.53    0.77 
  -3   1 -17   10.12    0.59 
   3   1  17   11.45    0.66 
  -3   1 -17   10.86    0.51 
  -3   1 -17   11.92    0.59 
   3   1  17   11.49    0.71 
  -5  -1 -17   22.95    1.11 
  -5  -1 -17   23.54    1.01 
  -5  -1 -17   21.62    1.13 
   5   1  17   17.52    1.06 
  -5   1 -17   19.96    0.83 
  -5   1 -17   18.29    0.94 
  -7  -1 -17    5.19    0.26 
  -7  -1 -17    5.33    0.31 
  -7   1 -17    5.49    0.27 
  -7   1 -17    5.40    0.29 
   8  -2 -17    6.52    0.33 
   8   2 -17    5.10    0.26 
   8   2 -17    5.14    0.30 
  -8   2  17    4.87    0.28 
   6  -2 -17   14.39    0.68 
   6  -2 -17   13.41    0.72 
  -6   2  17   11.02    0.55 
   6   2 -17   11.01    0.60 
   6   2 -17   10.88    0.54 
  -6   2  17   10.93    0.59 
  -4  -2  17   10.68    0.72 
   4  -2 -17   10.02    0.51 
   4  -2 -17   10.33    0.55 
   4  -2 -17    9.77    0.52 
  -4   2  17    9.17    0.46 
   4   2 -17    8.38    0.47 
  -4   2  17    9.01    0.49 
   4   2 -17    8.53    0.44 
   2  -2 -17    5.13    0.30 
   2  -2 -17    4.88    0.32 
  -2  -2  17    5.28    0.37 
   2  -2 -17    4.84    0.30 
   2  -2 -17    5.07    0.29 
   2   2 -17    5.19    0.30 
   2   2 -17    5.09    0.27 
  -2   2  17    4.81    0.39 
  -2   2  17    5.24    0.32 
  -2   2  17    4.84    0.36 
   0  -2 -17   14.71    0.66 
   0  -2 -17   14.85    0.73 
   0  -2 -17   14.93    0.75 
   0  -2 -17   14.41    0.73 
   0  -2  17   14.31    0.76 
   0  -2 -17   14.99    0.79 
   0  -2 -17   15.07    0.77 
   0   2 -17   13.26    0.67 
   0   2  17   12.68    0.81 
   0   2  17   12.47    0.75 
   0   2 -17   12.41    0.65 
  -2  -2 -17   15.71    0.81 
  -2  -2 -17   16.25    0.79 
  -2  -2 -17   16.42    0.86 
  -2  -2 -17   15.21    0.79 
  -2  -2 -17   16.27    0.72 
   2   2  17   14.12    0.88 
  -2   2 -17   13.24    0.74 
  -2   2 -17   13.95    0.73 
   2   2  17   14.78    0.82 
  -4  -2 -17    8.15    0.44 
  -4  -2 -17    8.00    0.45 
  -4  -2 -17    8.56    0.40 
  -4  -2 -17    8.00    0.50 
  -4  -2 -17    8.03    0.47 
   4   2  17    8.23    0.49 
  -4   2 -17    7.25    0.43 
   4   2  17    7.64    0.51 
  -6  -2 -17    1.32    0.12 
  -6  -2 -17    1.45    0.17 
  -6  -2 -17    1.09    0.22 
   6   2  17    1.06    0.15 
  -6   2 -17    1.14    0.11 
  -6   2 -17    1.11    0.11 
   7  -3 -17   19.73    0.94 
   7   3 -17   15.20    0.73 
  -7   3  17   15.23    0.72 
   7   3 -17   15.69    0.81 
  -7   3  17   14.90    0.74 
   5  -3 -17   22.52    1.13 
   5  -3 -17   24.09    1.13 
   5  -3 -17   24.44    1.21 
  -5   3  17   16.82    0.92 
   5   3 -17   18.57    0.86 
  -5   3  17   18.62    0.85 
  -3  -3  17   18.39    0.93 
   3  -3 -17   19.01    0.88 
   3  -3 -17   17.73    0.92 
   3  -3 -17   18.28    0.95 
   3  -3 -17   17.53    0.88 
  -3  -3  17   18.55    1.05 
   3  -3 -17   17.89    0.80 
   3  -3 -17   18.10    0.87 
  -3   3  17   12.28    0.68 
   3   3 -17   13.34    0.74 
   3   3 -17   13.32    0.63 
   3   3 -17   13.43    0.68 
  -3   3  17   11.90    0.85 
  -3   3  17   12.94    0.63 
  -3   3  17   13.50    0.78 
   1  -3 -17   15.21    0.70 
   1  -3 -17   16.03    0.83 
  -1  -3  17   14.86    0.80 
   1  -3 -17   15.43    0.77 
   1  -3 -17   15.82    0.79 
   1  -3 -17   15.67    0.82 
   1  -3 -17   15.87    0.77 
   1   3 -17   12.98    0.65 
  -1   3  17   11.98    0.79 
   1   3 -17   11.34    0.69 
  -1   3  17   12.08    0.72 
  -1   3  17   12.51    0.65 
  -1  -3 -17    9.73    0.52 
  -1  -3 -17    9.85    0.46 
  -1  -3 -17   10.29    0.53 
   1  -3  17    9.04    0.56 
  -1  -3 -17   10.01    0.52 
  -1  -3 -17    9.93    0.57 
   1   3  17    7.11    0.49 
   1   3  17    7.53    0.46 
  -1   3 -17    7.35    0.42 
  -1   3 -17    7.02    0.40 
  -3  -3 -17    0.37    0.16 
  -3  -3 -17    0.41    0.12 
  -3  -3 -17    0.34    0.15 
  -3  -3 -17    0.37    0.09 
  -3  -3 -17    0.41    0.08 
   3   3  17    0.10    0.09 
   3   3  17    0.12    0.09 
  -3   3 -17    0.25    0.09 
  -3   3 -17    0.23    0.08 
  -5  -3 -17    1.24    0.22 
  -5  -3 -17    1.41    0.17 
  -5  -3 -17    1.13    0.20 
  -5  -3 -17    1.41    0.12 
  -5   3 -17    0.91    0.11 
   5   3  17    0.82    0.14 
   5   3  17    0.60    0.11 
  -7  -3 -17    5.12    0.25 
  -7  -3 -17    5.38    0.28 
  -7   3 -17    4.03    0.22 
   6  -4 -17    5.37    0.29 
   6  -4 -17    4.95    0.26 
  -6   4  17    3.99    0.25 
  -6   4  17    4.16    0.24 
   6   4 -17    4.47    0.25 
   6   4 -17    4.33    0.22 
   4  -4 -17   22.33    1.08 
   4  -4 -17   23.72    1.09 
   4  -4 -17   23.67    1.17 
  -4  -4  17   21.99    1.26 
   4  -4 -17   22.00    0.99 
   4  -4 -17   22.91    1.13 
   4   4 -17   16.47    0.91 
  -4   4  17   15.99    0.76 
  -4   4  17   16.22    0.83 
   4   4 -17   17.48    0.77 
  -4   4  17   14.89    0.95 
   2  -4 -17   13.74    0.62 
  -2  -4  17   13.57    0.73 
   2  -4 -17   13.83    0.68 
  -2  -4  17   13.46    0.81 
   2  -4 -17   14.14    0.71 
   2  -4 -17   13.80    0.73 
   2  -4 -17   14.53    0.69 
   2   4 -17    9.86    0.52 
  -2   4  17    9.95    0.53 
  -2   4  17   10.50    0.60 
  -2   4  17    8.49    0.65 
   0  -4  17    2.78    0.28 
   0  -4 -17    2.66    0.21 
   0  -4 -17    2.72    0.17 
   0  -4 -17    2.76    0.20 
   0  -4 -17    2.46    0.24 
   0  -4 -17    2.75    0.18 
   0  -4 -17    3.00    0.24 
   0   4 -17    2.03    0.17 
   0   4  17    2.09    0.21 
   0   4  17    2.00    0.20 
   0   4 -17    1.97    0.15 
   0   4  17    1.80    0.22 
  -2  -4 -17    8.48    0.46 
  -2  -4 -17    8.54    0.45 
  -2  -4 -17    8.18    0.50 
  -2  -4 -17    8.57    0.40 
  -2  -4 -17    8.28    0.45 
   2   4  17    6.01    0.37 
   2   4  17    5.31    0.40 
  -2   4 -17    5.92    0.33 
  -2   4 -17    6.08    0.34 
  -4  -4 -17    5.73    0.28 
  -4  -4 -17    5.77    0.34 
  -4  -4 -17    5.31    0.36 
  -4  -4 -17    5.69    0.32 
  -4   4 -17    3.96    0.23 
  -4   4 -17    3.77    0.23 
   4   4  17    3.74    0.26 
   3  -5 -17    0.45    0.09 
   3  -5 -17    0.48    0.08 
   3  -5 -17    0.41    0.06 
  -3  -5  17    0.76    0.18 
   3  -5 -17    0.51    0.07 
  -3   5  17    0.43    0.09 
  -3   5  17    0.30    0.11 
  -1  -5  17   19.97    0.96 
   1  -5 -17   18.76    1.00 
   1  -5 -17   19.74    0.91 
  -1  -5  17   18.66    1.06 
   1  -5 -17   19.45    0.85 
   1  -5 -17   20.44    0.94 
   1  -5 -17   19.48    0.97 
  -1   5  17   14.93    0.69 
   1   5 -17   14.17    0.75 
  -1   5  17   14.62    0.85 
  -1  -5 -17   10.08    0.50 
   1  -5  17    9.18    0.51 
  -1  -5 -17    9.98    0.45 
  -1  -5 -17    9.75    0.50 
  -1  -5 -17   10.50    0.51 
   1   5  17    7.79    0.48 
  -1   5 -17    7.89    0.42 
  -3  -5 -17    3.50    0.20 
  -3  -5 -17    3.24    0.22 
  -3  -5 -17    3.39    0.17 
  -3   5 -17    2.43    0.14 
  -3   5 -17    1.78    0.14 
  -8   0  18    9.80    0.49 
   8   0 -18    9.75    0.54 
   8   0 -18    9.97    0.48 
   6   0 -18    1.03    0.12 
  -6   0  18    0.82    0.14 
  -6   0  18    0.93    0.17 
   4   0 -18   11.83    0.59 
   4   0 -18   12.79    0.64 
  -4   0  18   11.41    0.60 
  -4   0  18   12.31    0.65 
   2   0 -18    0.79    0.11 
  -2   0  18    1.09    0.16 
   2   0 -18    0.90    0.12 
   0   0 -18    2.00    0.15 
   0   0 -18    1.99    0.16 
  -2   0 -18    7.42    0.39 
  -2   0 -18    6.84    0.39 
  -2   0 -18    7.00    0.34 
  -4   0 -18   16.38    0.83 
  -4   0 -18   16.46    0.74 
  -6   0 -18    6.39    0.35 
  -6   0 -18    6.75    0.32 
  -8   0 -18    5.95    0.28 
  -9   1  18    2.43    0.16 
  -7  -1  18    4.97    0.33 
   7  -1 -18    5.80    0.29 
   7   1 -18    4.95    0.26 
  -7   1  18    5.31    0.30 
  -7   1  18    4.93    0.31 
   7   1 -18    4.68    0.30 
   5  -1 -18    9.24    0.47 
   5  -1 -18    9.33    0.50 
  -5   1  18    8.06    0.46 
   5   1 -18    8.11    0.41 
  -5   1  18    8.00    0.43 
   3  -1 -18    9.67    0.51 
   3  -1 -18    9.37    0.48 
   3  -1 -18   10.21    0.53 
  -3   1  18    8.65    0.45 
   3   1 -18    8.21    0.44 
  -3   1  18    9.31    0.50 
   3   1 -18    9.10    0.48 
   1  -1 -18   17.69    0.90 
   1  -1 -18   17.43    0.92 
   1  -1 -18   18.36    0.86 
   1   1 -18   13.26    0.71 
  -1   1  18   16.30    0.88 
  -1   1  18   16.04    0.78 
   1   1 -18   14.35    0.76 
   1   1 -18   14.82    0.78 
  -1  -1 -18   10.03    0.55 
  -1  -1 -18    9.70    0.46 
  -1  -1 -18   10.02    0.51 
  -1  -1 -18    9.35    0.52 
  -1   1 -18    7.54    0.42 
   1   1  18    7.78    0.48 
  -1   1 -18    7.75    0.41 
  -3  -1 -18   16.23    0.74 
  -3  -1 -18   16.85    0.84 
  -3   1 -18   16.55    0.76 
  -3   1 -18   13.94    0.77 
   3   1  18   13.82    0.86 
  -5  -1 -18   10.77    0.56 
  -5  -1 -18   11.10    0.50 
  -5  -1 -18   10.19    0.55 
  -5   1 -18   10.16    0.54 
  -5   1 -18   10.63    0.48 
  -7  -1 -18    5.61    0.27 
  -7  -1 -18    5.38    0.32 
  -7   1 -18    5.11    0.28 
  -7   1 -18    5.25    0.26 
   8  -2 -18    8.30    0.41 
   8   2 -18    5.89    0.29 
   8   2 -18    5.38    0.33 
  -8   2  18    6.30    0.31 
   6  -2 -18    2.80    0.18 
   6  -2 -18    2.66    0.19 
  -6   2  18    2.14    0.19 
  -6   2  18    2.25    0.19 
   6   2 -18    1.88    0.17 
   6   2 -18    1.93    0.14 
   4  -2 -18   11.18    0.57 
   4  -2 -18   12.00    0.62 
  -4   2  18   11.56    0.61 
   4   2 -18   11.33    0.59 
   4   2 -18   11.26    0.55 
  -4   2  18   10.92    0.56 
  -2  -2  18   18.29    0.93 
   2  -2 -18   18.54    0.95 
   2  -2 -18   17.43    0.89 
   2  -2 -18   19.00    0.88 
   2  -2 -18   18.55    0.93 
   2   2 -18   15.72    0.82 
  -2   2  18   15.86    1.02 
   2   2 -18   15.11    0.75 
  -2   2  18   16.37    0.83 
  -2   2  18   15.85    0.93 
   0  -2 -18    3.38    0.26 
   0  -2  18    2.99    0.32 
   0  -2 -18    3.33    0.26 
   0  -2 -18    3.20    0.24 
   0  -2 -18    3.36    0.20 
   0  -2 -18    3.20    0.22 
   0  -2 -18    3.18    0.21 
   0   2  18    2.42    0.22 
   0   2  18    2.49    0.24 
   0   2 -18    1.78    0.15 
   0   2 -18    1.84    0.16 
   0   2 -18    1.93    0.14 
  -2  -2 -18   13.37    0.68 
  -2  -2 -18   12.76    0.67 
  -2  -2 -18   13.22    0.73 
  -2  -2 -18   13.66    0.61 
  -2  -2 -18   13.16    0.67 
   2   2  18   13.03    0.75 
  -2   2 -18   12.82    0.66 
  -2   2 -18   11.92    0.67 
   2   2  18   12.86    0.81 
  -4  -2 -18    6.75    0.39 
  -4  -2 -18    6.54    0.41 
  -4  -2 -18    6.59    0.43 
  -4  -2 -18    7.03    0.34 
  -4  -2 -18    6.84    0.37 
   4   2  18    5.75    0.38 
  -4   2 -18    5.99    0.33 
   4   2  18    5.63    0.40 
  -6  -2 -18    2.25    0.15 
  -6  -2 -18    2.26    0.19 
  -6   2 -18    2.40    0.16 
  -6   2 -18    2.33    0.15 
   7  -3 -18   14.08    0.67 
   7   3 -18   10.05    0.56 
  -7   3  18   10.82    0.50 
  -5  -3  18   19.46    1.15 
   5  -3 -18   20.23    0.97 
   5  -3 -18   21.08    1.04 
   5   3 -18   15.09    0.72 
  -5   3  18   14.41    0.78 
  -5   3  18   15.68    0.72 
  -5   3  18   14.93    0.75 
  -3  -3  18    4.37    0.35 
   3  -3 -18    4.30    0.25 
   3  -3 -18    4.08    0.22 
   3  -3 -18    4.04    0.24 
   3  -3 -18    4.23    0.26 
  -3  -3  18    3.87    0.45 
   3  -3 -18    4.15    0.26 
   3  -3 -18    4.38    0.28 
   3   3 -18    2.58    0.17 
  -3   3  18    3.06    0.26 
  -3   3  18    2.81    0.22 
   3   3 -18    2.61    0.18 
  -3   3  18    2.62    0.30 
  -3   3  18    2.66    0.21 
   3   3 -18    2.46    0.17 
   1  -3 -18    3.95    0.29 
  -1  -3  18    3.92    0.34 
   1  -3 -18    4.13    0.29 
   1  -3 -18    3.93    0.26 
   1  -3 -18    3.72    0.25 
   1  -3 -18    3.88    0.24 
   1  -3 -18    4.01    0.22 
   1   3 -18    2.97    0.22 
  -1   3  18    3.47    0.27 
  -1   3  18    3.55    0.25 
  -1   3  18    3.28    0.30 
  -1  -3 -18    5.37    0.32 
  -1  -3 -18    5.50    0.31 
  -1  -3 -18    5.21    0.36 
  -1  -3 -18    5.37    0.35 
  -1  -3 -18    5.30    0.28 
   1   3  18    4.67    0.32 
  -1   3 -18    4.52    0.28 
  -1   3 -18    4.81    0.29 
   1   3  18    4.32    0.35 
  -3  -3 -18    3.34    0.24 
  -3  -3 -18    3.49    0.29 
  -3  -3 -18    3.32    0.20 
  -3  -3 -18    3.28    0.29 
  -3  -3 -18    3.44    0.22 
   3   3  18    2.46    0.24 
  -3   3 -18    2.69    0.19 
   3   3  18    2.33    0.22 
  -3   3 -18    2.90    0.19 
  -5  -3 -18    2.88    0.24 
  -5  -3 -18    3.10    0.21 
  -5  -3 -18    2.92    0.17 
  -5  -3 -18    2.76    0.26 
  -5   3 -18    3.13    0.18 
   5   3  18    2.30    0.21 
   6  -4 -18    4.76    0.26 
   6  -4 -18    4.56    0.24 
   6   4 -18    3.46    0.19 
   6   4 -18    3.65    0.21 
  -6   4  18    3.53    0.20 
   4  -4 -18   11.58    0.61 
   4  -4 -18   11.86    0.56 
   4  -4 -18   13.73    0.67 
   4  -4 -18   13.12    0.65 
  -4  -4  18   12.74    0.77 
   4  -4 -18   13.91    0.63 
  -4   4  18    9.86    0.45 
   4   4 -18    9.08    0.43 
  -4   4  18    8.76    0.48 
   4   4 -18    8.03    0.51 
  -4   4  18    8.78    0.55 
   2  -4 -18    6.54    0.36 
   2  -4 -18    6.43    0.35 
   2  -4 -18    6.21    0.35 
   2  -4 -18    6.37    0.31 
  -2  -4  18    6.11    0.46 
   2  -4 -18    6.40    0.36 
  -2  -4  18    6.58    0.41 
   2   4 -18    4.44    0.26 
  -2   4  18    4.46    0.29 
  -2   4  18    3.92    0.36 
  -2   4  18    4.73    0.33 
   2   4 -18    4.57    0.24 
   2   4 -18    4.25    0.26 
  -2   4  18    4.64    0.27 
   0  -4 -18    2.44    0.17 
   0  -4 -18    2.60    0.16 
   0  -4  18    2.55    0.27 
   0  -4 -18    2.60    0.24 
   0  -4 -18    2.42    0.18 
   0  -4 -18    2.54    0.20 
   0  -4 -18    2.59    0.23 
   0   4  18    1.99    0.21 
   0   4 -18    2.05    0.16 
   0   4  18    1.96    0.24 
   0   4  18    1.92    0.19 
  -2  -4 -18    3.91    0.27 
  -2  -4 -18    3.49    0.28 
  -2  -4 -18    3.78    0.24 
  -2  -4 -18    3.56    0.22 
  -2  -4 -18    4.03    0.21 
  -2   4 -18    2.48    0.18 
   2   4  18    2.83    0.22 
   2   4  18    2.68    0.24 
  -2   4 -18    2.18    0.17 
  -4  -4 -18    7.27    0.34 
  -4  -4 -18    6.91    0.39 
  -4  -4 -18    7.23    0.38 
   4   4  18    5.18    0.33 
  -4   4 -18    5.33    0.29 
  -3  -5  18    2.59    0.30 
   3  -5 -18    2.93    0.17 
   3  -5 -18    2.80    0.16 
   3  -5 -18    2.80    0.16 
   3  -5 -18    2.79    0.14 
  -3   5  18    2.14    0.16 
   1  -5 -18   13.63    0.63 
   1  -5 -18   13.99    0.64 
  -1  -5  18   12.64    0.66 
   1  -5 -18   13.60    0.58 
   1  -5 -18   13.33    0.66 
   1  -5 -18   11.77    0.68 
  -1   5  18   10.52    0.49 
   1   5 -18    8.97    0.53 
   1   5 -18   10.62    0.49 
  -1   5  18   10.82    0.62 
  -1  -5 -18    8.32    0.41 
   1  -5  18    7.14    0.43 
  -1  -5 -18    8.37    0.41 
  -1  -5 -18    8.47    0.37 
  -1  -5 -18    8.49    0.42 
  -1   5 -18    5.99    0.33 
   8   0 -19    5.88    0.30 
  -8   0  19    5.83    0.31 
   6   0 -19    1.69    0.14 
  -6   0  19    1.50    0.19 
  -6   0  19    1.75    0.18 
   4   0 -19    3.40    0.20 
  -4   0  19    3.00    0.24 
   4   0 -19    3.26    0.21 
   2   0 -19   21.45    0.98 
   2   0 -19   18.85    0.90 
  -2   0  19   16.77    0.98 
   0   0 -19    0.41    0.07 
   0   0 -19    0.44    0.08 
  -2   0 -19   11.17    0.54 
  -2   0 -19   10.14    0.55 
  -2   0 -19    9.80    0.48 
  -4   0 -19   28.52    1.22 
  -4   0 -19   27.25    1.39 
  -6   0 -19   16.98    0.87 
  -6   0 -19   17.88    0.77 
   7  -1 -19    3.25    0.18 
  -7  -1  19    2.40    0.22 
  -7   1  19    2.74    0.22 
   7   1 -19    2.69    0.20 
  -7   1  19    2.79    0.21 
   7   1 -19    3.03    0.17 
   5  -1 -19   13.51    0.72 
   5  -1 -19   13.87    0.67 
  -5   1  19   12.17    0.60 
   5   1 -19   12.93    0.60 
  -5   1  19   11.74    0.66 
   5   1 -19   12.03    0.64 
   3  -1 -19   18.51    0.92 
   3  -1 -19   20.05    0.99 
  -3   1  19   16.74    0.83 
  -3   1  19   18.04    0.91 
   3   1 -19   18.38    0.90 
   3   1 -19   16.74    0.83 
   1  -1 -19    5.38    0.31 
   1  -1 -19    5.49    0.30 
   1  -1 -19    5.08    0.33 
   1   1 -19    4.09    0.24 
   1   1 -19    3.68    0.23 
   1   1 -19    4.27    0.25 
  -1   1  19    4.43    0.28 
  -1  -1 -19   19.12    0.85 
  -1  -1 -19   19.93    0.97 
  -1  -1 -19   19.30    1.00 
  -1  -1 -19   18.85    0.99 
  -1   1 -19   19.56    0.99 
   1   1  19   18.52    0.99 
  -1   1 -19   21.01    0.98 
   1   1  19   18.20    1.11 
  -3  -1 -19   25.25    1.24 
  -3  -1 -19   24.52    1.09 
   3   1  19   20.25    1.20 
  -3   1 -19   21.80    1.06 
  -5  -1 -19    6.31    0.30 
  -5  -1 -19    5.74    0.33 
  -5   1 -19    5.00    0.26 
  -5   1 -19    4.97    0.28 
  -7  -1 -19    8.11    0.37 
  -7   1 -19    7.47    0.39 
  -7   1 -19    7.69    0.35 
   8  -2 -19    3.87    0.20 
   8   2 -19    1.95    0.14 
   6  -2 -19    2.73    0.17 
   6  -2 -19    2.60    0.18 
  -6   2  19    2.91    0.23 
  -6   2  19    3.01    0.21 
   6   2 -19    2.94    0.21 
   6   2 -19    3.12    0.18 
   4  -2 -19   21.44    1.07 
   4  -2 -19   20.04    0.99 
   4   2 -19   19.25    0.92 
  -4   2  19   19.11    0.91 
   4   2 -19   19.25    0.99 
  -4   2  19   19.53    0.99 
   2  -2 -19   10.92    0.57 
   2  -2 -19   11.09    0.56 
   2  -2 -19   11.22    0.59 
  -2   2  19    9.40    0.60 
   2   2 -19    9.45    0.47 
   2   2 -19    9.59    0.51 
  -2   2  19    9.83    0.53 
   0  -2 -19   12.02    0.65 
   0  -2 -19   11.65    0.54 
   0  -2 -19   12.28    0.61 
   0  -2 -19   11.42    0.60 
   0  -2 -19   11.47    0.60 
   0  -2 -19   12.32    0.63 
   0   2  19   10.66    0.74 
   0   2 -19   12.42    0.61 
   0   2 -19   11.64    0.59 
   0   2  19   11.54    0.61 
   0   2  19   10.53    0.68 
  -2  -2 -19   16.72    0.89 
  -2  -2 -19   16.93    0.85 
  -2  -2 -19   16.66    0.82 
  -2  -2 -19   16.40    0.82 
  -2  -2 -19   16.78    0.75 
  -2   2 -19   14.12    0.76 
   2   2  19   14.79    0.85 
   2   2  19   14.45    0.91 
  -2   2 -19   14.52    0.74 
  -4  -2 -19    5.98    0.29 
  -4  -2 -19    5.98    0.34 
  -4  -2 -19    5.52    0.38 
  -4  -2 -19    5.70    0.32 
  -4  -2 -19    5.20    0.36 
   4   2  19    4.51    0.35 
  -4   2 -19    5.11    0.28 
   4   2  19    4.67    0.32 
  -6  -2 -19    3.85    0.20 
  -6  -2 -19    3.90    0.24 
  -6   2 -19    3.06    0.18 
  -6   2 -19    2.77    0.16 
   7  -3 -19    1.60    0.10 
   7   3 -19    1.06    0.09 
   7   3 -19    1.08    0.11 
  -7   3  19    1.08    0.12 
  -5  -3  19    4.75    0.44 
   5  -3 -19    4.59    0.25 
   5  -3 -19    4.79    0.27 
   5  -3 -19    4.20    0.25 
  -5   3  19    3.28    0.24 
  -5   3  19    3.22    0.24 
   5   3 -19    3.71    0.23 
  -5   3  19    3.94    0.24 
   5   3 -19    3.89    0.20 
   3  -3 -19    3.05    0.19 
   3  -3 -19    3.09    0.21 
   3  -3 -19    3.10    0.24 
   3  -3 -19    3.31    0.21 
  -3   3  19    2.75    0.22 
  -3   3  19    2.70    0.25 
   3   3 -19    3.00    0.17 
   3   3 -19    2.78    0.18 
  -3   3  19    2.80    0.22 
   1  -3 -19    4.91    0.27 
  -1  -3  19    4.97    0.35 
   1  -3 -19    4.56    0.28 
   1  -3 -19    4.81    0.31 
   1  -3 -19    4.70    0.29 
   1  -3 -19    4.36    0.24 
  -1   3  19    4.42    0.33 
   1   3 -19    4.72    0.25 
  -1   3  19    4.44    0.30 
   1   3 -19    4.86    0.28 
  -1   3  19    4.29    0.37 
  -1  -3 -19   13.55    0.62 
  -1  -3 -19   13.98    0.70 
  -1  -3 -19   13.70    0.68 
  -1  -3 -19   13.33    0.74 
  -1  -3 -19   13.49    0.68 
   1   3  19   11.38    0.63 
   1   3  19   11.54    0.69 
  -1   3 -19   12.93    0.63 
   1   3  19   11.39    0.75 
  -1   3 -19   11.14    0.60 
  -3  -3 -19   14.98    0.73 
  -3  -3 -19   14.72    0.67 
  -3  -3 -19   14.75    0.80 
  -3  -3 -19   14.71    0.74 
  -3  -3 -19   15.25    0.76 
   3   3  19   11.70    0.71 
   3   3  19   10.84    0.76 
  -3   3 -19   12.74    0.64 
  -3   3 -19   13.18    0.63 
  -5  -3 -19    3.14    0.17 
  -5  -3 -19    3.14    0.20 
  -5  -3 -19    2.56    0.23 
  -5   3 -19    2.11    0.14 
   5   3  19    2.30    0.18 
   4  -4 -19    3.53    0.20 
   4  -4 -19    3.46    0.20 
  -4  -4  19    3.03    0.37 
   4  -4 -19    3.88    0.22 
  -4   4  19    2.43    0.25 
   4   4 -19    2.76    0.16 
  -4   4  19    2.93    0.19 
   2  -4 -19    6.21    0.34 
   2  -4 -19    6.25    0.35 
   2  -4 -19    6.38    0.34 
   2  -4 -19    6.34    0.35 
   2  -4 -19    6.07    0.30 
  -2  -4  19    6.26    0.39 
  -2   4  19    4.64    0.34 
   2   4 -19    5.02    0.28 
  -2   4  19    4.45    0.30 
   2   4 -19    5.33    0.25 
  -2   4  19    4.62    0.28 
   0  -4 -19    3.94    0.26 
   0  -4 -19    4.35    0.23 
   0  -4 -19    4.36    0.25 
   0  -4  19    4.46    0.31 
   0  -4 -19    4.59    0.28 
   0  -4 -19    4.42    0.26 
   0  -4 -19    4.28    0.30 
   0   4  19    3.58    0.26 
   0   4  19    3.20    0.33 
   0   4 -19    4.00    0.23 
   0   4  19    3.67    0.29 
   0   4 -19    4.29    0.21 
  -2  -4 -19    4.29    0.25 
  -2  -4 -19    4.36    0.28 
  -2  -4 -19    4.09    0.22 
  -2  -4 -19    3.94    0.29 
  -2  -4 -19    4.18    0.24 
  -2   4 -19    3.02    0.20 
   2   4  19    3.45    0.25 
  -2   4 -19    3.73    0.21 
   2   4  19    3.48    0.24 
  -4  -4 -19    6.83    0.35 
  -4  -4 -19    6.95    0.32 
  -4  -4 -19    6.47    0.36 
   1  -5 -19    6.68    0.35 
   1  -5 -19    7.06    0.31 
  -1  -5  19    6.21    0.37 
   1  -5 -19    7.31    0.35 
  -1   5  19    5.88    0.28 
   1   5 -19    4.74    0.28 
  -1  -5 -19    3.49    0.20 
  -1  -5 -19    3.66    0.18 
  -1  -5 -19    3.62    0.22 
  -1   5 -19    1.95    0.13 
  -8   0  20    6.23    0.34 
   8   0 -20    7.30    0.34 
  -6   0  20    1.35    0.17 
   6   0 -20    1.54    0.13 
  -6   0  20    1.30    0.18 
   4   0 -20    4.69    0.27 
   4   0 -20    4.43    0.25 
  -4   0  20    4.15    0.29 
   2   0 -20    5.84    0.32 
   2   0 -20    6.61    0.35 
   0   0 -20   32.38    1.64 
   0   0 -20   32.37    1.60 
  -2   0 -20   12.45    0.68 
  -2   0 -20   13.83    0.68 
  -4   0 -20    3.39    0.19 
  -4   0 -20    3.04    0.20 
  -6   0 -20   17.33    0.73 
  -6   0 -20   15.80    0.82 
   7  -1 -20    6.96    0.35 
  -7   1  20    5.76    0.35 
  -7   1  20    5.95    0.32 
   7   1 -20    6.32    0.31 
   5  -1 -20   20.33    1.07 
   5  -1 -20   21.32    0.99 
  -5   1  20   18.74    0.96 
   5   1 -20   18.89    0.88 
   5   1 -20   18.19    0.95 
  -5   1  20   18.36    0.88 
   3  -1 -20    7.39    0.40 
   3  -1 -20    7.01    0.37 
  -3   1  20    6.10    0.36 
  -3   1  20    6.79    0.39 
   3   1 -20    6.37    0.34 
   3   1 -20    6.70    0.36 
   1  -1 -20    5.12    0.29 
   1  -1 -20    5.27    0.30 
   1  -1 -20    5.03    0.32 
   1   1 -20    5.12    0.28 
   1   1 -20    4.72    0.28 
  -1   1  20    4.43    0.31 
  -1  -1 -20   11.65    0.51 
  -1  -1 -20   10.55    0.59 
  -1  -1 -20   11.44    0.58 
   1   1  20    8.95    0.49 
  -1   1 -20    8.40    0.46 
  -1   1 -20    8.50    0.47 
  -3  -1 -20    3.37    0.21 
  -3  -1 -20    3.41    0.20 
  -3   1 -20    3.00    0.20 
  -5  -1 -20    2.82    0.18 
  -5  -1 -20    3.16    0.18 
  -5   1 -20    2.78    0.18 
  -5   1 -20    2.78    0.17 
  -7  -1 -20    3.68    0.18 
  -7   1 -20    4.29    0.21 
   6  -2 -20   16.65    0.87 
   6  -2 -20   17.15    0.81 
  -6   2  20   14.49    0.75 
  -6   2  20   14.80    0.69 
   6   2 -20   13.93    0.76 
   4  -2 -20   14.84    0.73 
   4  -2 -20   15.31    0.79 
   4   2 -20   12.84    0.67 
  -4   2  20   12.74    0.68 
  -4   2  20   13.10    0.63 
   4   2 -20   12.83    0.62 
   2  -2 -20   14.53    0.73 
   2  -2 -20   15.30    0.78 
   2  -2 -20   14.98    0.76 
  -2   2  20   12.41    0.66 
  -2   2  20   10.85    0.74 
   2   2 -20   12.71    0.59 
  -2   2  20   12.06    0.60 
   2   2 -20   13.19    0.65 
   0  -2 -20   28.26    1.42 
   0  -2 -20   28.33    1.39 
   0  -2 -20   27.19    1.30 
   0  -2 -20   28.09    1.42 
   0  -2 -20   27.85    1.22 
   0   2  20   22.29    1.12 
   0   2 -20   23.13    1.14 
   0   2  20   22.04    1.27 
   0   2 -20   20.89    1.10 
  -2  -2 -20    4.63    0.32 
  -2  -2 -20    4.62    0.32 
  -2  -2 -20    4.82    0.27 
  -2  -2 -20    4.97    0.25 
  -2  -2 -20    4.48    0.29 
   2   2  20    3.58    0.26 
   2   2  20    3.65    0.31 
  -2   2 -20    3.57    0.23 
  -2   2 -20    3.69    0.23 
   2   2  20    3.87    0.28 
  -4  -2 -20    3.47    0.21 
  -4  -2 -20    3.57    0.24 
  -4  -2 -20    3.75    0.21 
   4   2  20    2.47    0.21 
  -4   2 -20    2.62    0.17 
  -6  -2 -20    2.30    0.14 
  -6  -2 -20    2.23    0.17 
  -6   2 -20    2.13    0.13 
   5  -3 -20    7.82    0.39 
   5  -3 -20    7.78    0.42 
   5   3 -20    6.09    0.29 
  -5   3  20    6.02    0.31 
  -5   3  20    5.58    0.33 
   5   3 -20    5.42    0.33 
   3  -3 -20    8.53    0.43 
   3  -3 -20    8.31    0.44 
   3  -3 -20    7.75    0.42 
   3  -3 -20    8.03    0.43 
  -3   3  20    5.50    0.43 
   3   3 -20    7.28    0.34 
   3   3 -20    6.58    0.36 
  -3   3  20    6.70    0.36 
  -3   3  20    6.98    0.39 
   1  -3 -20    7.46    0.42 
   1  -3 -20    7.66    0.36 
   1  -3 -20    7.59    0.41 
   1  -3 -20    7.42    0.40 
   1  -3 -20    7.62    0.41 
  -1   3  20    6.56    0.39 
  -1   3  20    6.05    0.49 
   1   3 -20    6.63    0.33 
   1   3 -20    6.68    0.36 
  -1   3  20    6.54    0.43 
  -1  -3 -20   21.27    1.05 
  -1  -3 -20   21.00    1.01 
  -1  -3 -20   20.42    1.08 
  -1  -3 -20   20.99    0.92 
  -1  -3 -20   20.60    0.99 
  -1   3 -20   14.07    0.79 
  -1   3 -20   17.01    0.82 
   1   3  20   14.80    0.99 
   1   3  20   16.77    0.82 
   1   3  20   16.33    0.92 
  -3  -3 -20    9.97    0.50 
  -3  -3 -20    9.37    0.55 
  -3  -3 -20    9.81    0.51 
  -3  -3 -20    9.71    0.51 
  -3  -3 -20    9.96    0.45 
   3   3  20    7.57    0.42 
  -3   3 -20    6.58    0.37 
  -3   3 -20    6.22    0.36 
  -5  -3 -20    0.48    0.08 
  -5  -3 -20    0.36    0.11 
  -5  -3 -20    0.58    0.11 
  -5   3 -20    0.53    0.07 
   4  -4 -20    3.76    0.21 
   4  -4 -20    4.22    0.23 
  -4   4  20    3.12    0.20 
  -4   4  20    2.88    0.21 
   4   4 -20    2.94    0.20 
   4   4 -20    3.35    0.17 
   2  -4 -20    9.28    0.50 
   2  -4 -20    9.63    0.49 
   2  -4 -20    9.60    0.47 
   2  -4 -20    9.20    0.42 
  -2   4  20    7.32    0.37 
   2   4 -20    6.73    0.37 
  -2   4  20    6.61    0.39 
  -2   4  20    6.60    0.45 
   2   4 -20    7.61    0.35 
   0  -4 -20    7.69    0.40 
   0  -4 -20    7.42    0.40 
   0  -4 -20    7.64    0.35 
   0  -4 -20    7.60    0.40 
   0   4 -20    5.76    0.33 
   0   4 -20    6.08    0.29 
   0   4  20    6.15    0.39 
   0   4  20    5.57    0.35 
  -2  -4 -20    4.94    0.27 
  -2  -4 -20    4.88    0.29 
  -2  -4 -20    4.66    0.26 
  -2  -4 -20    4.66    0.24 
  -2   4 -20    3.62    0.22 
   2   4  20    3.82    0.26 
  -4  -4 -20    2.19    0.12 
   8   0 -21    5.42    0.27 
   6   0 -21    6.41    0.33 
  -4   0  21    0.11    0.11 
   4   0 -21    0.03    0.06 
   4   0 -21    0.04    0.06 
   2   0 -21   16.73    0.87 
   0   0 -21   28.38    1.39 
   0   0 -21   27.60    1.42 
  -2   0 -21    1.55    0.13 
  -2   0 -21    1.29    0.13 
  -4   0 -21    2.26    0.15 
  -4   0 -21    2.18    0.16 
  -6   0 -21    9.12    0.40 
  -6   0 -21    8.17    0.44 
   7  -1 -21    4.57    0.24 
   7   1 -21    3.97    0.20 
  -7   1  21    3.57    0.23 
   5  -1 -21    2.68    0.18 
   5  -1 -21    2.77    0.17 
  -5   1  21    2.72    0.21 
  -5   1  21    2.86    0.22 
   5   1 -21    2.36    0.17 
   5   1 -21    2.71    0.17 
   3  -1 -21    4.52    0.27 
   3  -1 -21    4.15    0.24 
  -3   1  21    3.74    0.27 
   3   1 -21    3.93    0.22 
  -3   1  21    3.37    0.25 
   3   1 -21    4.03    0.23 
   1  -1 -21    1.92    0.16 
   1  -1 -21    1.83    0.14 
   1   1 -21    1.25    0.13 
  -1   1  21    1.17    0.17 
  -1  -1 -21    3.27    0.22 
  -1  -1 -21    3.66    0.22 
  -1   1 -21    3.75    0.24 
  -1   1 -21    3.85    0.23 
  -3  -1 -21    3.61    0.21 
  -3  -1 -21    3.94    0.23 
  -3   1 -21    3.62    0.22 
  -5  -1 -21    0.69    0.09 
  -5  -1 -21    0.59    0.08 
  -5   1 -21    0.74    0.09 
  -5   1 -21    0.64    0.10 
   6  -2 -21   12.73    0.67 
   6  -2 -21   13.10    0.62 
  -6   2  21   10.85    0.51 
  -6   2  21   10.27    0.56 
   4  -2 -21    5.14    0.28 
   4  -2 -21    5.57    0.31 
   4   2 -21    4.26    0.25 
  -4   2  21    4.15    0.28 
   4   2 -21    4.52    0.24 
  -4   2  21    4.46    0.27 
   2  -2 -21   14.52    0.73 
   2  -2 -21   14.65    0.75 
   2  -2 -21   13.83    0.69 
   2   2 -21   10.66    0.52 
  -2   2  21   10.42    0.53 
   2   2 -21   10.92    0.56 
  -2   2  21   10.46    0.57 
   0  -2 -21   10.53    0.49 
   0  -2 -21   10.97    0.56 
   0  -2 -21   10.63    0.55 
   0  -2 -21   10.70    0.57 
   0   2  21    8.58    0.52 
   0   2 -21    8.73    0.45 
   0   2  21    8.26    0.47 
   0   2 -21    7.61    0.43 
  -2  -2 -21    5.18    0.28 
  -2  -2 -21    4.71    0.32 
  -2  -2 -21    4.81    0.33 
  -2  -2 -21    4.98    0.26 
   2   2  21    4.18    0.30 
  -2   2 -21    5.20    0.27 
   2   2  21    4.04    0.32 
  -2   2 -21    4.87    0.27 
  -4  -2 -21    1.77    0.13 
  -4  -2 -21    1.81    0.13 
  -4   2 -21    1.64    0.13 
  -6  -2 -21    4.69    0.22 
  -6   2 -21    3.64    0.20 
   5  -3 -21    6.49    0.34 
   5  -3 -21    6.18    0.32 
  -5   3  21    4.76    0.27 
   5   3 -21    5.06    0.25 
   3  -3 -21    7.05    0.36 
   3  -3 -21    6.74    0.34 
   3  -3 -21    5.35    0.33 
   3   3 -21    5.86    0.28 
  -3   3  21    5.48    0.30 
   3   3 -21    4.99    0.30 
  -3   3  21    5.29    0.33 
   1  -3 -21    8.41    0.45 
   1  -3 -21    8.61    0.47 
   1  -3 -21    8.75    0.45 
   1  -3 -21    8.64    0.40 
   1  -3 -21    9.15    0.46 
   1   3 -21    7.69    0.37 
   1   3 -21    7.79    0.41 
  -1   3  21    7.05    0.48 
  -1   3  21    7.26    0.42 
  -1  -3 -21    8.03    0.43 
  -1  -3 -21    8.23    0.44 
  -1  -3 -21    8.31    0.39 
  -1  -3 -21    8.33    0.43 
  -1  -3 -21    7.96    0.47 
  -1   3 -21    6.45    0.36 
   1   3  21    6.34    0.38 
   1   3  21    6.60    0.42 
  -3  -3 -21    3.95    0.29 
  -3  -3 -21    4.26    0.25 
  -3  -3 -21    4.07    0.23 
  -3  -3 -21    4.09    0.27 
  -3  -3 -21    4.16    0.21 
   3   3  21    3.20    0.24 
  -3   3 -21    3.30    0.19 
   3   3  21    2.84    0.23 
  -3   3 -21    3.26    0.19 
  -5  -3 -21    4.49    0.22 
   4  -4 -21    6.48    0.34 
  -4   4  21    5.16    0.27 
   2  -4 -21    4.55    0.25 
   2  -4 -21    4.27    0.23 
   2  -4 -21    4.21    0.21 
   2  -4 -21    3.96    0.24 
  -2   4  21    3.38    0.20 
   2   4 -21    3.11    0.17 
   0  -4 -21    6.11    0.32 
   0  -4 -21    6.18    0.33 
   0  -4 -21    5.92    0.32 
   0  -4 -21    6.07    0.29 
   0   4  21    4.31    0.31 
   0   4 -21    4.88    0.26 
  -2  -4 -21    3.97    0.22 
  -2  -4 -21    3.70    0.19 
  -2  -4 -21    3.67    0.23 
  -2  -4 -21    3.89    0.21 
  -2   4 -21    2.76    0.16 
   6   0 -22    5.01    0.26 
   4   0 -22    3.37    0.20 
   4   0 -22    3.54    0.22 
   2   0 -22   16.05    0.83 
   0   0 -22    1.02    0.11 
   0   0 -22    1.09    0.13 
  -2   0 -22    0.24    0.06 
  -2   0 -22    0.31    0.07 
  -4   0 -22    5.39    0.29 
  -4   0 -22    5.17    0.26 
  -6   0 -22    3.05    0.16 
   7  -1 -22    2.48    0.14 
  -7   1  22    1.99    0.16 
   7   1 -22    2.27    0.13 
   5  -1 -22    1.20    0.11 
   5  -1 -22    1.39    0.12 
  -5   1  22    1.49    0.17 
  -5   1  22    1.32    0.16 
   5   1 -22    1.18    0.12 
   5   1 -22    1.47    0.12 
   3  -1 -22    4.37    0.26 
   3  -1 -22    5.19    0.28 
  -3   1  22    3.92    0.27 
   3   1 -22    4.39    0.23 
   3   1 -22    4.70    0.26 
  -3   1  22    3.92    0.28 
   1  -1 -22    1.81    0.14 
   1  -1 -22    2.02    0.16 
  -1   1  22    1.75    0.20 
   1   1 -22    2.36    0.16 
  -1  -1 -22    1.94    0.14 
  -1  -1 -22    1.74    0.15 
  -1   1 -22    1.51    0.14 
  -1   1 -22    1.73    0.13 
  -3  -1 -22    6.63    0.36 
  -3  -1 -22    6.66    0.32 
  -3   1 -22    5.30    0.30 
  -5  -1 -22    1.30    0.10 
  -5  -1 -22    1.34    0.11 
  -5   1 -22    1.18    0.09 
   6  -2 -22    3.18    0.17 
   6  -2 -22    2.83    0.18 
  -6   2  22    2.45    0.18 
   6   2 -22    2.50    0.14 
   4  -2 -22    5.07    0.28 
   4  -2 -22    5.54    0.30 
   4   2 -22    4.41    0.26 
  -4   2  22    4.73    0.28 
   4   2 -22    4.99    0.25 
  -4   2  22    4.39    0.29 
   2  -2 -22    5.82    0.33 
   2  -2 -22    6.09    0.32 
   2  -2 -22    5.92    0.34 
  -2   2  22    4.31    0.28 
  -2   2  22    4.54    0.30 
   2   2 -22    4.70    0.27 
   2   2 -22    4.59    0.25 
   0  -2 -22    7.45    0.41 
   0  -2 -22    7.32    0.42 
   0  -2 -22    8.15    0.41 
   0   2 -22    6.62    0.35 
   0   2  22    5.78    0.37 
  -2  -2 -22   12.79    0.61 
  -2  -2 -22    9.95    0.59 
  -2  -2 -22   11.62    0.64 
  -2  -2 -22   12.75    0.54 
  -2   2 -22    9.69    0.50 
   2   2  22    9.10    0.51 
  -4  -2 -22    4.56    0.23 
  -4  -2 -22    4.44    0.25 
  -4   2 -22    3.75    0.21 
   5  -3 -22    2.74    0.17 
  -5   3  22    2.06    0.15 
   3  -3 -22    8.07    0.42 
   3  -3 -22    8.12    0.43 
  -3   3  22    6.35    0.36 
   3   3 -22    5.69    0.34 
   3   3 -22    6.72    0.31 
  -3   3  22    6.35    0.33 
   1  -3 -22    9.82    0.48 
   1  -3 -22    9.42    0.47 
   1  -3 -22    8.87    0.42 
   1  -3 -22    9.02    0.49 
  -1   3  22    6.44    0.46 
   1   3 -22    7.67    0.35 
   1   3 -22    7.36    0.39 
  -1   3  22    6.78    0.40 
  -1   3  22    7.31    0.37 
  -1  -3 -22    5.21    0.26 
  -1  -3 -22    5.33    0.30 
  -1  -3 -22    5.42    0.31 
  -1  -3 -22    5.59    0.30 
   1   3  22    4.09    0.26 
   1   3  22    3.94    0.30 
  -1   3 -22    4.37    0.24 
  -3  -3 -22    8.71    0.44 
  -3  -3 -22    8.84    0.40 
  -3  -3 -22    8.85    0.45 
  -3  -3 -22    8.68    0.44 
  -3   3 -22    5.54    0.30 
   2  -4 -22    1.66    0.11 
   2  -4 -22    1.53    0.11 
   2   4 -22    1.29    0.10 
  -2   4  22    1.45    0.13 
   0  -4 -22    6.44    0.33 
   0  -4 -22    6.44    0.34 
   0  -4 -22    6.52    0.30 
   0   4 -22    3.78    0.23 
   0   4  22    4.67    0.24 
   6   0 -23    0.99    0.09 
   4   0 -23    4.13    0.24 
   4   0 -23    4.06    0.22 
   2   0 -23    5.66    0.32 
   0   0 -23    1.95    0.15 
   0   0 -23    1.78    0.14 
  -2   0 -23    4.09    0.22 
  -2   0 -23    3.24    0.22 
  -4   0 -23    3.76    0.21 
   5  -1 -23    3.35    0.20 
   5  -1 -23    3.28    0.19 
   5   1 -23    3.01    0.19 
  -5   1  23    2.97    0.22 
   5   1 -23    3.72    0.18 
   3  -1 -23    2.52    0.18 
   3   1 -23    2.92    0.18 
  -3   1  23    2.48    0.22 
   1  -1 -23    5.21    0.29 
   1  -1 -23    5.49    0.31 
   1   1 -23    4.90    0.28 
  -1  -1 -23   11.21    0.61 
  -1  -1 -23   12.12    0.60 
  -1   1 -23   11.09    0.57 
  -1   1 -23   10.93    0.58 
  -3  -1 -23    2.00    0.14 
  -3  -1 -23    1.96    0.14 
  -3   1 -23    2.23    0.15 
  -5  -1 -23    3.09    0.16 
  -5  -1 -23    2.81    0.17 
  -5   1 -23    2.55    0.15 
   6   2 -23    3.13    0.16 
   4  -2 -23    7.34    0.39 
  -4   2  23    5.96    0.31 
   4   2 -23    5.51    0.31 
  -4   2  23    5.56    0.33 
   2  -2 -23    4.15    0.24 
   2  -2 -23    4.18    0.25 
  -2   2  23    2.73    0.20 
   2   2 -23    2.66    0.17 
   2   2 -23    2.57    0.16 
  -2   2  23    2.75    0.22 
   0  -2 -23    6.68    0.37 
   0  -2 -23    7.18    0.36 
   0  -2 -23    6.48    0.36 
   0   2  23    4.89    0.31 
   0   2 -23    5.32    0.30 
  -2  -2 -23    7.41    0.39 
  -2  -2 -23    7.31    0.34 
  -2   2 -23    6.01    0.33 
  -2   2 -23    5.88    0.32 
  -4  -2 -23    6.50    0.30 
  -4  -2 -23    6.21    0.33 
   3  -3 -23    4.36    0.24 
   3  -3 -23    4.17    0.23 
  -3   3  23    3.48    0.21 
   3   3 -23    3.49    0.19 
   1  -3 -23    5.65    0.29 
   1  -3 -23    5.43    0.30 
   1  -3 -23    5.15    0.30 
  -1   3  23    4.05    0.24 
   1   3 -23    4.16    0.24 
  -1  -3 -23    7.13    0.36 
  -1  -3 -23    6.57    0.35 
  -1  -3 -23    6.56    0.31 
  -1   3 -23    4.96    0.27 
  -3  -3 -23    4.52    0.25 
  -3  -3 -23    5.00    0.23 
   4   0 -24   12.82    0.65 
   4   0 -24   12.34    0.60 
   2   0 -24   17.48    0.90 
   0   0 -24    4.00    0.23 
   0   0 -24    4.13    0.24 
  -2   0 -24    3.82    0.22 
  -4   0 -24    6.22    0.32 
   5  -1 -24    8.54    0.45 
   5   1 -24    8.55    0.41 
   3  -1 -24    4.47    0.26 
   3   1 -24    3.81    0.22 
   1  -1 -24   25.85    1.31 
   1   1 -24   25.30    1.29 
  -1  -1 -24   12.85    0.63 
  -1  -1 -24   11.84    0.64 
  -1   1 -24   12.34    0.64 
  -3  -1 -24    2.28    0.14 
  -3   1 -24    2.02    0.13 
   4  -2 -24    3.14    0.19 
   4   2 -24    2.37    0.15 
  -4   2  24    2.78    0.18 
   2  -2 -24    4.47    0.26 
   2  -2 -24    4.40    0.25 
  -2   2  24    3.30    0.24 
   2   2 -24    4.13    0.22 
  -2   2  24    3.43    0.23 
   0  -2 -24    5.41    0.28 
   0  -2 -24    4.90    0.29 
   0   2 -24    4.80    0.27 
  -2  -2 -24    3.87    0.21 
  -2  -2 -24    3.60    0.19 
  -2   2 -24    3.11    0.19 
  -2   2 -24    3.31    0.18 
   3  -3 -24    2.63    0.16 
  -3   3  24    2.00    0.16 
   1  -3 -24    4.16    0.24 
   1  -3 -24    4.41    0.23 
   1   3 -24    3.24    0.19 
  -1   3  24    3.32    0.20 
  -1  -3 -24    8.51    0.39 
  -1  -3 -24    6.87    0.34 
  -1  -3 -24    7.28    0.38 
  -1   3 -24    6.42    0.34 
   4   0 -25   10.03    0.52 
   2   0 -25   13.43    0.69 
   0   0 -25    2.54    0.16 
   0   0 -25    2.73    0.17 
  -2   0 -25    1.05    0.09 
  -4   0 -25    4.15    0.22 
   3  -1 -25    9.10    0.48 
   3   1 -25    9.12    0.48 
   1  -1 -25   10.11    0.52 
   1  -1 -25    9.63    0.50 
   1   1 -25    9.23    0.49 
  -1  -1 -25    3.85    0.24 
  -1  -1 -25    4.54    0.24 
  -1   1 -25    3.68    0.21 
  -3  -1 -25    2.86    0.16 
   4  -2 -25    3.85    0.22 
   2  -2 -25    4.19    0.24 
   2   2 -25    3.10    0.17 
  -2   2  25    2.47    0.21 
   0  -2 -25    0.58    0.08 
   0  -2 -25    0.45    0.08 
   0   2 -25    0.67    0.09 
  -2  -2 -25    1.49    0.11 
   4   0 -26    2.96    0.17 
   2   0 -26   12.61    0.65 
   0   0 -26    2.12    0.14 
   0   0 -26    2.33    0.15 
  -2   0 -26    0.14    0.04 
   3  -1 -26    2.94    0.18 
   3   1 -26    2.79    0.17 
   1  -1 -26    0.91    0.09 
   1  -1 -26    0.78    0.08 
   1   1 -26    0.94    0.09 
  -1  -1 -26    5.97    0.31 
  -1   1 -26    5.11    0.28 
   2  -2 -26    0.11    0.04 
   2   2 -26    0.06    0.04 
   0  -2 -26    0.45    0.07 
   0   2 -26    0.49    0.07 
   2   0 -27    9.90    0.51 
   0   0 -27    1.95    0.13 
   1  -1 -27    2.20    0.14 
   1   1 -27    2.68    0.16 
   0   0   0    0.00    0.00 
;
_shelx_hkl_checksum              65079
loop_
_space_group_symop_operation_xyz
'x, y, z'
'-x, y, -z'
'x+1/2, y+1/2, z'
'-x+1/2, y+1/2, -z'
loop_
_atom_site_label
_atom_site_type_symbol
_atom_site_fract_x
_atom_site_fract_y
_atom_site_fract_z
_atom_site_U_iso_or_equiv
_atom_site_adp_type
_atom_site_occupancy
_atom_site_site_symmetry_order
_atom_site_calc_flag
_atom_site_refinement_flags_posn
_atom_site_refinement_flags_adp
_atom_site_refinement_flags_occupancy
Zn1 Zn 0.0000 0.59480(2) 0.5000 0.0187(5) Uani 1 2 d S T P
C2 C 0.0070(9) 0.6837(18) 0.7052(4) 0.0295(19) Uani 1 1 d . . .
H2 H -0.0631 0.6227 0.6791 0.035 Uiso 1 1 calc R U .
C1 C 0.0586(9) 0.8988(15) 0.6948(4) 0.0273(18) Uani 1 1 d . . .
C3 C 0.0580(9) 0.5582(17) 0.7537(4) 0.032(2) Uani 1 1 d . . .
H3 H 0.0224 0.4125 0.7596 0.038 Uiso 1 1 calc R U .
C6 C 0.1608(10) 0.9844(18) 0.7347(4) 0.0319(19) Uani 1 1 d . . .
H6 H 0.1976 1.1292 0.7287 0.038 Uiso 1 1 calc R U .
C5 C 0.2089(10) 0.8592(19) 0.7832(4) 0.036(2) Uani 1 1 d . . .
H5 H 0.2769 0.9215 0.8102 0.043 Uiso 1 1 calc R U .
C4 C 0.1587(10) 0.6415(17) 0.7932(4) 0.035(3) Uani 1 1 d . . .
C7 C 0.2136(12) 0.506(2) 0.8454(4) 0.045(3) Uani 1 1 d . . .
H7A H 0.2884 0.5920 0.8665 0.054 Uiso 1 1 calc R U .
H7B H 0.2542 0.3661 0.8311 0.054 Uiso 1 1 calc R U .
C9 C 0.037(3) 0.628(7) 0.9120(8) 0.178(19) Uani 1 1 d . . .
H9A H -0.0290 0.6905 0.8823 0.267 Uiso 1 1 calc R U .
H9B H 0.1040 0.7434 0.9249 0.267 Uiso 1 1 calc R U .
H9C H -0.0115 0.5756 0.9455 0.267 Uiso 1 1 calc R U .
C8 C 0.1068(19) 0.447(5) 0.8878(7) 0.100(8) Uani 1 1 d . . .
H8 H 0.0350 0.3569 0.8652 0.120 Uiso 1 1 calc R U .
C10 C 0.167(2) 0.295(6) 0.9373(8) 0.121(10) Uani 1 1 d . . .
H10A H 0.0983 0.2718 0.9661 0.182 Uiso 1 1 calc R U .
H10B H 0.2492 0.3653 0.9564 0.182 Uiso 1 1 calc R U .
H10C H 0.1922 0.1502 0.9209 0.182 Uiso 1 1 calc R U .
O1 O 0.1591(6) 0.3912(11) 0.5111(3) 0.0289(13) Uani 1 1 d . . .
O3 O -0.0363(6) 0.7441(10) 0.5729(2) 0.0259(13) Uani 1 1 d . . .
O4 O 0.1304(5) 0.9855(10) 0.5559(2) 0.0252(12) Uani 1 1 d . . .
C13 C -0.1513(8) 1.083(3) 0.6435(3) 0.0340(18) Uani 1 1 d . . .
H13A H -0.1719 1.1414 0.6819 0.051 Uiso 1 1 calc R U .
H13B H -0.2021 0.9429 0.6359 0.051 Uiso 1 1 calc R U .
H13C H -0.1788 1.1924 0.6131 0.051 Uiso 1 1 calc R U .
C12 C 0.0362(8) 0.9155(14) 0.5854(3) 0.0224(16) Uani 1 1 d . . .
C11 C 0.0048(9) 1.0372(14) 0.6427(4) 0.027(2) Uani 1 1 d . . .
H11 H 0.0541 1.1841 0.6440 0.032 Uiso 1 1 calc R U .
loop_
_atom_site_aniso_label
_atom_site_aniso_U_11
_atom_site_aniso_U_22
_atom_site_aniso_U_33
_atom_site_aniso_U_23
_atom_site_aniso_U_13
_atom_site_aniso_U_12
Zn1 0.0136(6) 0.0140(7) 0.0287(7) 0.000 0.0021(4) 0.000
C2 0.028(4) 0.035(5) 0.026(4) -0.002(3) 0.003(3) 0.003(3)
C1 0.028(4) 0.025(5) 0.029(4) -0.003(3) 0.003(3) 0.007(3)
C3 0.041(4) 0.024(6) 0.031(4) 0.001(3) 0.006(3) -0.002(4)
C6 0.038(5) 0.032(5) 0.026(4) -0.004(3) 0.004(3) -0.002(4)
C5 0.035(5) 0.039(6) 0.032(4) -0.009(4) -0.003(4) 0.002(4)
C4 0.038(4) 0.038(8) 0.030(4) -0.001(3) 0.005(3) 0.004(4)
C7 0.052(6) 0.053(6) 0.030(5) 0.000(4) -0.004(4) 0.007(5)
C9 0.17(2) 0.30(4) 0.066(10) 0.081(19) 0.063(12) 0.18(3)
C8 0.074(11) 0.18(2) 0.051(8) 0.041(11) 0.001(7) 0.014(13)
C10 0.111(16) 0.19(3) 0.066(10) 0.065(16) 0.007(10) 0.004(18)
O1 0.016(3) 0.026(4) 0.045(3) 0.009(2) 0.006(2) 0.007(2)
O3 0.029(3) 0.026(4) 0.023(3) -0.003(2) 0.006(2) -0.005(2)
O4 0.018(3) 0.024(3) 0.034(3) 0.003(2) 0.004(2) 0.001(2)
C13 0.033(4) 0.036(5) 0.033(4) -0.002(5) 0.006(3) 0.015(6)
C12 0.021(4) 0.018(4) 0.029(4) 0.000(3) 0.005(3) 0.003(3)
C11 0.030(4) 0.021(6) 0.030(4) -0.003(3) 0.002(3) 0.002(3)
loop_
_atom_type_symbol
_atom_type_description
_atom_type_scat_dispersion_real
_atom_type_scat_dispersion_imag
_atom_type_scat_source
C C 0.0181 0.0091 'International Tables Vol C Tables 4.2.6.8 and 6.1.1.4'
H H 0.0000 0.0000 'International Tables Vol C Tables 4.2.6.8 and 6.1.1.4'
O O 0.0492 0.0322 'International Tables Vol C Tables 4.2.6.8 and 6.1.1.4'
Zn Zn -1.5491 0.6778 'International Tables Vol C Tables 4.2.6.8 and 6.1.1.4'
loop_
_geom_angle_atom_site_label_1
_geom_angle_atom_site_label_2
_geom_angle_atom_site_label_3
_geom_angle
_geom_angle_site_symmetry_1
_geom_angle_site_symmetry_3
O3 Zn1 O3 125.3(4) . 2_556
O3 Zn1 O1 111.0(3) . .
O3 Zn1 O1 102.0(2) 2_556 .
O3 Zn1 O1 102.0(2) . 2_556
O3 Zn1 O1 111.0(3) 2_556 2_556
O1 Zn1 O1 103.9(4) . 2_556
C3 C2 C1 120.7(8) . .
C6 C1 C2 117.9(8) . .
C6 C1 C11 120.5(8) . .
C2 C1 C11 121.6(8) . .
C4 C3 C2 121.6(9) . .
C5 C6 C1 120.7(10) . .
C6 C5 C4 121.4(9) . .
C3 C4 C5 117.7(9) . .
C3 C4 C7 121.6(10) . .
C5 C4 C7 120.8(9) . .
C4 C7 C8 114.2(11) . .
C9 C8 C7 116(2) . .
C9 C8 C10 109.7(17) . .
C7 C8 C10 111.4(15) . .
C12 O3 Zn1 115.9(5) . .
O4 C12 O3 124.5(8) . .
O4 C12 C11 119.7(7) . .
O3 C12 C11 115.8(7) . .
C1 C11 C13 112.1(8) . .
C1 C11 C12 109.4(6) . .
C13 C11 C12 110.0(7) . .
loop_
_geom_bond_atom_site_label_1
_geom_bond_atom_site_label_2
_geom_bond_distance
_geom_bond_site_symmetry_2
Zn1 O3 1.943(5) .
Zn1 O3 1.943(5) 2_556
Zn1 O1 1.973(6) .
Zn1 O1 1.973(6) 2_556
C2 C3 1.403(13) .
C2 C1 1.406(15) .
C1 C6 1.403(13) .
C1 C11 1.514(12) .
C3 C4 1.381(13) .
C6 C5 1.393(14) .
C5 C4 1.413(15) .
C4 C7 1.510(14) .
C7 C8 1.51(2) .
C9 C8 1.40(4) .
C8 C10 1.54(3) .
O3 C12 1.266(11) .
O4 C12 1.246(10) .
C13 C11 1.544(11) .
C12 C11 1.546(11) .
