#------------------------------------------------------------------------------
#$Date: 2016-02-05 00:51:38 +0200 (Fri, 05 Feb 2016) $
#$Revision: 175998 $
#$URL: svn://www.crystallography.net/cod/cif/7/03/73/7037364.cif $
#------------------------------------------------------------------------------
#
# This file is available in the Crystallography Open Database (COD),
# http://www.crystallography.net/
#
# All data on this site have been placed in the public domain by the
# contributors.
#
data_7037364
loop_
_publ_author_name
'D'Vries, Richard F'
'Gomez, German E.'
'Hodak, Jos\'e H'
'Soler-Illia, Galo J A A'
'Ellena, Javier'
_publ_section_title
;
 Tuning the structure, dimensionality and luminescent properties of
 lanthanide metal-organic frameworks under ancillary ligand influence.
;
_journal_issue                   2
_journal_name_full
'Dalton transactions (Cambridge, England : 2003)'
_journal_page_first              646
_journal_page_last               656
_journal_paper_doi               10.1039/c5dt04033g
_journal_volume                  45
_journal_year                    2015
_chemical_formula_sum            'C10 H9 Nd O9 S2'
_chemical_formula_weight         481.53
_space_group_crystal_system      monoclinic
_space_group_IT_number           15
_space_group_name_Hall           '-C 2yc'
_space_group_name_H-M_alt        'C 1 2/c 1'
_symmetry_space_group_name_Hall  '-C 2yc'
_symmetry_space_group_name_H-M   'C 1 2/c 1'
_atom_sites_solution_hydrogens   mixed
_audit_creation_method           SHELXL-2014/7
_audit_update_record
;
2015-11-12 deposited with the CCDC.
2015-11-20 downloaded from the CCDC.
;
_cell_angle_alpha                90
_cell_angle_beta                 118.427(2)
_cell_angle_gamma                90
_cell_formula_units_Z            8
_cell_length_a                   17.5398(6)
_cell_length_b                   22.5802(7)
_cell_length_c                   8.5187(3)
_cell_measurement_temperature    293(2)
_cell_volume                     2967.05(18)
_computing_cell_refinement       'HKL Scalepack (Otwinowski & Minor 1997)'
_computing_data_collection       'Collect (Bruker AXS BV, 1997-2004)'
_computing_data_reduction
'HKL Denzo and Scalepack (Otwinowski & Minor 1997)'
_computing_molecular_graphics    'Olex2 (Dolomanov et al., 2009)'
_computing_publication_material  'Olex2 (Dolomanov et al., 2009)'
_computing_structure_refinement  'ShelXL (Sheldrick, 2015)'
_computing_structure_solution    'SHELXS-2013 (Sheldrick, 2013)'
_diffrn_ambient_temperature      293(2)
_diffrn_detector_area_resol_mean 9
_diffrn_measured_fraction_theta_full 0.999
_diffrn_measured_fraction_theta_max 0.996
_diffrn_measurement_device_type  KappaCCD
_diffrn_measurement_method       'CCD rotation images, thick slices'
_diffrn_radiation_type           MoK\a
_diffrn_radiation_wavelength     0.71073
_diffrn_reflns_av_R_equivalents  0.0990
_diffrn_reflns_av_unetI/netI     0.0689
_diffrn_reflns_laue_measured_fraction_full 0.999
_diffrn_reflns_laue_measured_fraction_max 0.996
_diffrn_reflns_limit_h_max       21
_diffrn_reflns_limit_h_min       -21
_diffrn_reflns_limit_k_max       28
_diffrn_reflns_limit_k_min       -28
_diffrn_reflns_limit_l_max       10
_diffrn_reflns_limit_l_min       -10
_diffrn_reflns_number            21329
_diffrn_reflns_point_group_measured_fraction_full 0.999
_diffrn_reflns_point_group_measured_fraction_max 0.996
_diffrn_reflns_theta_full        25.242
_diffrn_reflns_theta_max         26.302
_diffrn_reflns_theta_min         3.011
_diffrn_source                   'Enraf Nonius FR590'
_exptl_absorpt_coefficient_mu    3.822
_exptl_crystal_colour            violet
_exptl_crystal_density_diffrn    2.138
_exptl_crystal_description       Block
_exptl_crystal_F_000             1832
_exptl_crystal_preparation       Luminescent
_exptl_crystal_recrystallization_method Hydrothermal
_exptl_crystal_size_max          0.050
_exptl_crystal_size_mid          0.030
_exptl_crystal_size_min          0.018
_refine_diff_density_max         1.893
_refine_diff_density_min         -1.164
_refine_diff_density_rms         0.167
_refine_ls_extinction_method     none
_refine_ls_goodness_of_fit_ref   0.931
_refine_ls_hydrogen_treatment    constr
_refine_ls_matrix_type           full
_refine_ls_number_parameters     205
_refine_ls_number_reflns         3010
_refine_ls_number_restraints     0
_refine_ls_restrained_S_all      0.931
_refine_ls_R_factor_all          0.0695
_refine_ls_R_factor_gt           0.0461
_refine_ls_shift/su_max          0.001
_refine_ls_shift/su_mean         0.000
_refine_ls_structure_factor_coef Fsqd
_refine_ls_weighting_details
'w=1/[\s^2^(Fo^2^)+(0.0701P)^2^] where P=(Fo^2^+2Fc^2^)/3'
_refine_ls_weighting_scheme      calc
_refine_ls_wR_factor_gt          0.1097
_refine_ls_wR_factor_ref         0.1152
_reflns_Friedel_coverage         0.000
_reflns_number_gt                2001
_reflns_number_total             3010
_reflns_threshold_expression     'I > 2\s(I)'
_cod_data_source_file            c5dt04033g2.cif
_cod_data_source_block           Compound3
_cod_depositor_comments
'Adding full bibliography for 7037363--7037371.cif.'
_cod_original_cell_volume        2967.04(18)
_cod_database_code               7037364
_shelx_shelxl_version_number     2014/7
_shelx_space_group_comment
;
The symmetry employed for this shelxl refinement is uniquely defined
by the following loop, which should always be used as a source of
symmetry information in preference to the above space-group names.
They are only intended as comments.
;
_shelx_estimated_absorpt_t_min   0.832
_shelx_estimated_absorpt_t_max   0.934
_shelx_res_file
;

    shelx.res created by SHELXL-2014/7

TITL shelx in C2/c
CELL  0.71073  17.5398  22.5802   8.5187   90.000  118.427   90.000
ZERR     8.00   0.0006   0.0007   0.0003    0.000    0.002    0.000
LATT   7
SYMM  - X,   Y, 1/2 - Z
SFAC  C    H    ND   O    S
UNIT  80   40   8    72   16
MERG   2
ABIN
SUMP 1 0.001 1 2 1 3 1 4
MORE -1
EADP O8A O8B O8C
FMAP   2
PLAN   50
SIZE     0.018   0.030   0.050
ACTA
BOND   $H
CONF
L.S.  20
WGHT    0.070100
FVAR       0.04636
ND1   3    0.815755   -0.263291    0.367326    11.00000    0.03615    0.03499 =
         0.03859   -0.00050    0.01650   -0.00466
S1    5    0.847413    0.161413    0.554116    11.00000    0.03810    0.02856 =
         0.04073   -0.00135    0.01680    0.00069
S2    5    0.640242   -0.157939    0.219124    11.00000    0.03626    0.03824 =
         0.07544   -0.00632    0.00726   -0.00287
O1    4    0.853399    0.190696    0.713339    11.00000    0.05301    0.05172 =
         0.04397   -0.01064    0.01350    0.00861
O2    4    0.924768    0.169703    0.537581    11.00000    0.04834    0.03986 =
         0.06296   -0.00191    0.03047   -0.00700
O3    4    0.767806    0.178765    0.395140    11.00000    0.04436    0.03386 =
         0.04536    0.00223    0.00870   -0.00117
O4    4    0.683836   -0.203021    0.169432    11.00000    0.04289    0.04522 =
         0.04998   -0.00609    0.00731    0.00678
O5    4    0.577257   -0.125011    0.072560    11.00000    0.06520    0.05100 =
         0.08429   -0.00031   -0.01208   -0.00260
O6    4    0.602799   -0.185510    0.329595    11.00000    0.04895    0.05525 =
         0.10153    0.01199    0.04036   -0.00841
O7    4    0.786068   -0.195221    0.544235    11.00000    0.05074    0.02641 =
         0.04788   -0.00162    0.02858   -0.00773
O9    4    0.968220   -0.229821    0.556428    11.00000    0.05587    0.10223 =
         0.05132    0.00535    0.02588   -0.03009
AFIX   3
H91   2    0.957434   -0.197910    0.587995    11.00000   -1.50000
H92   2    0.996464   -0.221420    0.498939    11.00000   -1.50000
AFIX   0
C1    1    0.838495    0.085067    0.583057    11.00000    0.04899    0.02753 =
         0.03576    0.00307    0.02451   -0.00044
C2    1    0.903248    0.059166    0.739830    11.00000    0.04548    0.03726 =
         0.04137   -0.00321    0.00993   -0.00412
AFIX  43
H2    2    0.944629    0.082933    0.828715    11.00000   -1.20000
AFIX   0
C3    1    0.905645   -0.000661    0.762133    11.00000    0.05197    0.03941 =
         0.04024    0.00738    0.01070   -0.00464
AFIX  43
H3    2    0.948059   -0.017336    0.867476    11.00000   -1.20000
AFIX   0
C4    1    0.844646   -0.037644    0.627560    11.00000    0.03964    0.03150 =
         0.03969    0.00106    0.01799   -0.00129
C5    1    0.848477   -0.099945    0.650351    11.00000    0.05131    0.03580 =
         0.03432    0.00414    0.01700   -0.00322
AFIX  43
H5    2    0.893166   -0.116806    0.752234    11.00000   -1.20000
AFIX   0
C6    1    0.786587   -0.135430    0.522841    11.00000    0.04334    0.02692 =
         0.05344   -0.00257    0.03052   -0.00491
C7    1    0.719618   -0.109187    0.367755    11.00000    0.03127    0.03305 =
         0.05005   -0.00724    0.01439   -0.00248
C8    1    0.716153   -0.048268    0.339131    11.00000    0.03568    0.03620 =
         0.04625    0.00062    0.00930    0.00273
AFIX  43
H8    2    0.673195   -0.032108    0.233517    11.00000   -1.20000
AFIX   0
C9    1    0.778267   -0.011384    0.471526    11.00000    0.03757    0.02824 =
         0.04572    0.00079    0.01853    0.00073
C10   1    0.777322    0.050674    0.450711    11.00000    0.03577    0.03284 =
         0.04501    0.00355    0.01827    0.00327
AFIX  43
H10   2    0.735053    0.068229    0.346869    11.00000   -1.20000
AFIX   0
PART    1
O8A   4    0.915220   -0.299196    0.220416    10.25000    0.03287    0.05564 =
         0.05949   -0.00327    0.01522    0.01363
AFIX   3
H8A1  2    0.945217   -0.268211    0.233858    10.25000   -1.50000
H8A2  2    0.877627   -0.301451    0.110858    10.25000   -1.50000
AFIX   0
PART    2
O8B   4    0.906883   -0.335727    0.315694    10.50000    0.03287    0.05564 =
         0.05949   -0.00327    0.01522    0.01363
AFIX   3
H8B1  2    0.922624   -0.366709    0.282143    10.50000   -1.50000
H8B2  2    0.951444   -0.321249    0.403783    10.50000   -1.50000
AFIX   0
PART    3
O8C   4    0.883551   -0.368369    0.425881    10.25000    0.03287    0.05564 =
         0.05949   -0.00327    0.01522    0.01363
AFIX   3
H8C1  2    0.846969   -0.388952    0.440950    10.25000   -1.50000
H8C2  2    0.927449   -0.363172    0.527620    10.25000   -1.50000
PART    0

AFIX   0
HKLF    4

REM  shelx in C2/c
REM R1 =  0.0461 for    2001 Fo > 4sig(Fo)  and  0.0695 for all    3010 data
REM    205 parameters refined using      0 restraints

END

WGHT      0.0699      0.0000

REM Highest difference peak  1.893,  deepest hole -1.164,  1-sigma level  0.167
Q1    1   0.9440 -0.2352  0.0971  11.00000  0.05    1.87
Q2    1   0.6372 -0.1412  0.1290  11.00000  0.05    1.30
Q3    1   0.7658 -0.2650  0.2837  11.00000  0.05    1.26
Q4    1   0.5682 -0.1580  0.1935  11.00000  0.05    1.07
Q5    1   0.8196 -0.2066  0.3731  11.00000  0.05    1.06
Q6    1   0.5287 -0.1609  0.2207  11.00000  0.05    1.00
Q7    1   0.6205 -0.1085 -0.0073  11.00000  0.05    0.89
Q8    1   0.8729 -0.2649  0.4719  11.00000  0.05    0.85
Q9    1   0.7071 -0.2614  0.1680  11.00000  0.05    0.78
Q10   1   0.8452 -0.3102  0.0499  11.00000  0.05    0.72
Q11   1   0.7317  0.1575  0.5355  11.00000  0.05    0.71
Q12   1   0.7848 -0.1611  0.6800  11.00000  0.05    0.67
Q13   1   0.9881 -0.1597  0.5075  11.00000  0.05    0.66
Q14   1   0.8730 -0.3392  0.2100  11.00000  0.05    0.66
Q15   1   0.8547 -0.1290  0.7564  11.00000  0.05    0.66
Q16   1   0.8536 -0.3671  0.0616  11.00000  0.05    0.62
Q17   1   0.6564 -0.2629  0.0616  11.00000  0.05    0.60
Q18   1   0.9333 -0.3525  0.3943  11.00000  0.05    0.57
Q19   1   0.8624 -0.1849  0.7724  11.00000  0.05    0.57
Q20   1   1.0022 -0.3153  0.5178  11.00000  0.05    0.51
Q21   1   0.8956 -0.2669  0.2486  11.00000  0.05    0.50
Q22   1   1.0294 -0.1916  0.7345  11.00000  0.05    0.49
Q23   1   0.6712 -0.2250  0.4333  11.00000  0.05    0.47
Q24   1   0.7012 -0.1233  0.2966  11.00000  0.05    0.46
Q25   1   0.9387 -0.2924  0.0815  11.00000  0.05    0.45
Q26   1   0.7466 -0.2588  0.3551  11.00000  0.05    0.45
Q27   1   1.0000 -0.2654  0.7500  10.50000  0.05    0.44
Q28   1   0.9674 -0.2932  0.2255  11.00000  0.05    0.44
Q29   1   0.7314 -0.2129  0.4538  11.00000  0.05    0.44
Q30   1   0.7144 -0.1912  0.3131  11.00000  0.05    0.43
Q31   1   0.8769 -0.3902  0.3874  11.00000  0.05    0.43
Q32   1   0.7889 -0.0815  0.6510  11.00000  0.05    0.43
Q33   1   0.6358 -0.0699  0.3492  11.00000  0.05    0.41
Q34   1   0.9079 -0.2077  0.5262  11.00000  0.05    0.41
Q35   1   0.8382  0.1677  0.3476  11.00000  0.05    0.40
Q36   1   0.8488 -0.3881  0.2443  11.00000  0.05    0.40
Q37   1   0.8136 -0.0588  0.3551  11.00000  0.05    0.39
Q38   1   0.7409 -0.1838  0.4812  11.00000  0.05    0.39
Q39   1   0.8183 -0.0303  0.5367  11.00000  0.05    0.39
Q40   1   0.9282  0.1603  0.4800  11.00000  0.05    0.38
Q41   1   0.9302 -0.2623  0.5988  11.00000  0.05    0.38
Q42   1   0.9878  0.1740  0.6083  11.00000  0.05    0.36
Q43   1   0.9089  0.1057  0.8639  11.00000  0.05    0.35
Q44   1   0.9830  0.0551  0.8121  11.00000  0.05    0.35
Q45   1   0.7506 -0.1293  0.4019  11.00000  0.05    0.34
Q46   1   0.8511  0.0215  0.3966  11.00000  0.05    0.34
Q47   1   0.7648  0.0411  0.5773  11.00000  0.05    0.34
Q48   1   0.7017  0.1802  0.4022  11.00000  0.05    0.32
Q49   1   0.9058  0.1576  0.6215  11.00000  0.05    0.32
Q50   1   0.7301 -0.1451  0.1400  11.00000  0.05    0.31
;
_shelx_res_checksum              83694
_shelx_fab_file
;
    4    0    0     15.39      0.00
    6    0    0      2.03      0.00
    8    0    0     -1.01      0.00
   10    0    0     -1.34      0.00
   12    0    0     -1.26      0.00
   14    0    0     -1.06      0.00
   16    0    0     -1.13      0.00
   18    0    0     -0.35      0.00
    3    1    0    -25.37      0.00
    5    1    0     -6.83      0.00
    7    1    0      0.10      0.00
    9    1    0      1.06      0.00
   11    1    0      1.22      0.00
   13    1    0      1.01      0.00
   15    1    0      1.04      0.00
   17    1    0      0.85      0.00
   19    1    0     -0.35      0.00
    2    2    0     31.83      0.00
    4    2    0     13.15      0.00
    6    2    0      2.18      0.00
    8    2    0     -0.35      0.00
   10    2    0     -0.74      0.00
   12    2    0     -0.79      0.00
   14    2    0     -0.74      0.00
   16    2    0     -0.90      0.00
   18    2    0     -0.24      0.00
    1    3    0    -30.84      0.00
    3    3    0    -17.77      0.00
    5    3    0     -5.44      0.00
    7    3    0     -0.89      0.00
    9    3    0     -0.09      0.00
   11    3    0      0.27      0.00
   13    3    0      0.34      0.00
   15    3    0      0.56      0.00
   17    3    0      0.50      0.00
   19    3    0     -0.40      0.00
    0    4    0     22.76      0.00
    2    4    0     17.52      0.00
    4    4    0      7.92      0.00
    6    4    0      2.45      0.00
    8    4    0      1.10      0.00
   10    4    0      0.56      0.00
   12    4    0      0.16      0.00
   14    4    0     -0.10      0.00
   16    4    0     -0.33      0.00
   18    4    0      0.07      0.00
    1    5    0    -12.09      0.00
    3    5    0     -7.54      0.00
    5    5    0     -3.45      0.00
    7    5    0     -2.03      0.00
    9    5    0     -1.49      0.00
   11    5    0     -0.82      0.00
   13    5    0     -0.31      0.00
   15    5    0      0.00      0.00
   17    5    0     -0.07      0.00
    0    6    0      4.53      0.00
    2    6    0      3.86      0.00
    4    6    0      2.79      0.00
    6    6    0      2.39      0.00
    8    6    0      2.22      0.00
   10    6    0      1.57      0.00
   12    6    0      0.73      0.00
   14    6    0      0.22      0.00
   16    6    0      0.21      0.00
   18    6    0      0.50      0.00
    1    7    0      1.16      0.00
    3    7    0     -0.19      0.00
    5    7    0     -1.66      0.00
    7    7    0     -2.37      0.00
    9    7    0     -2.15      0.00
   11    7    0     -1.23      0.00
   13    7    0     -0.34      0.00
   15    7    0     -0.20      0.00
   17    7    0     -0.55      0.00
    0    8    0     -4.65      0.00
    2    8    0     -3.10      0.00
    4    8    0     -0.18      0.00
    6    8    0      1.70      0.00
    8    8    0      2.22      0.00
   10    8    0      1.69      0.00
   12    8    0      0.55      0.00
   14    8    0     -0.02      0.00
   16    8    0      0.40      0.00
   18    8    0      0.75      0.00
    1    9    0      5.17      0.00
    3    9    0      2.32      0.00
    5    9    0     -0.39      0.00
    7    9    0     -1.61      0.00
    9    9    0     -1.76      0.00
   11    9    0     -0.89      0.00
   13    9    0      0.16      0.00
   15    9    0      0.06      0.00
   17    9    0     -0.62      0.00
    0   10    0     -5.00      0.00
    2   10    0     -3.54      0.00
    4   10    0     -0.97      0.00
    6   10    0      0.59      0.00
    8   10    0      1.25      0.00
   10   10    0      1.06      0.00
   12   10    0     -0.03      0.00
   14   10    0     -0.55      0.00
   16   10    0      0.10      0.00
    1   11    0      3.22      0.00
    3   11    0      1.62      0.00
    5   11    0      0.30      0.00
    7   11    0     -0.40      0.00
    9   11    0     -0.77      0.00
   11   11    0     -0.22      0.00
   13   11    0      0.71      0.00
   15   11    0      0.59      0.00
   17   11    0     -0.12      0.00
    0   12    0     -1.80      0.00
    2   12    0     -1.27      0.00
    4   12    0     -0.54      0.00
    6   12    0     -0.24      0.00
    8   12    0      0.14      0.00
   10   12    0      0.19      0.00
   12   12    0     -0.54      0.00
   14   12    0     -1.01      0.00
   16   12    0     -0.57      0.00
    1   13    0      0.28      0.00
    3   13    0      0.09      0.00
    5   13    0      0.22      0.00
    7   13    0      0.32      0.00
    9   13    0      0.15      0.00
   11   13    0      0.41      0.00
   13   13    0      1.02      0.00
   15   13    0      1.11      0.00
   17   13    0      0.69      0.00
    0   14    0      0.71      0.00
    2   14    0      0.70      0.00
    4   14    0      0.40      0.00
    6   14    0     -0.13      0.00
    8   14    0     -0.41      0.00
   10   14    0     -0.53      0.00
   12   14    0     -0.90      0.00
   14   14    0     -1.28      0.00
   16   14    0     -1.23      0.00
    1   15    0     -1.34      0.00
    3   15    0     -1.18      0.00
    5   15    0     -0.64      0.00
    7   15    0      0.10      0.00
    9   15    0      0.62      0.00
   11   15    0      0.90      0.00
   13   15    0      1.21      0.00
   15   15    0      1.46      0.00
    0   16    0      1.65      0.00
    2   16    0      1.68      0.00
    4   16    0      1.52      0.00
    6   16    0      0.79      0.00
    8   16    0     -0.24      0.00
   10   16    0     -0.92      0.00
   12   16    0     -1.18      0.00
   14   16    0     -1.43      0.00
    1   17    0     -1.77      0.00
    3   17    0     -1.98      0.00
    5   17    0     -1.77      0.00
    7   17    0     -0.70      0.00
    9   17    0      0.55      0.00
   11   17    0      1.16      0.00
   13   17    0      1.35      0.00
   15   17    0      1.55      0.00
    0   18    0      1.61      0.00
    2   18    0      1.89      0.00
    4   18    0      2.24      0.00
    6   18    0      1.74      0.00
    8   18    0      0.34      0.00
   10   18    0     -0.86      0.00
   12   18    0     -1.28      0.00
   14   18    0     -1.44      0.00
    1   19    0     -1.42      0.00
    3   19    0     -2.01      0.00
    5   19    0     -2.26      0.00
    7   19    0     -1.37      0.00
    9   19    0      0.08      0.00
   11   19    0      0.99      0.00
   13   19    0      1.30      0.00
    0   20    0      0.85      0.00
    2   20    0      1.26      0.00
    4   20    0      1.97      0.00
    6   20    0      1.94      0.00
    8   20    0      0.88      0.00
   10   20    0     -0.31      0.00
   12   20    0     -0.97      0.00
    1   21    0     -0.33      0.00
    3   21    0     -1.05      0.00
    5   21    0     -1.70      0.00
    7   21    0     -1.47      0.00
    9   21    0     -0.55      0.00
   11   21    0      0.36      0.00
    0   22    0     -0.49      0.00
    2   22    0     -0.08      0.00
    4   22    0      0.78      0.00
    6   22    0      1.32      0.00
    8   22    0      1.13      0.00
   10   22    0      0.41      0.00
    1   23    0      1.03      0.00
    3   23    0      0.37      0.00
    5   23    0     -0.52      0.00
    7   23    0     -1.08      0.00
    9   23    0     -0.96      0.00
   11   23    0     -0.31      0.00
    0   24    0     -1.56      0.00
    2   24    0     -1.27      0.00
    4   24    0     -0.51      0.00
    6   24    0      0.43      0.00
    8   24    0      0.99      0.00
   10   24    0      0.78      0.00
    1   25    0      1.63      0.00
    3   25    0      1.26      0.00
    5   25    0      0.45      0.00
    7   25    0     -0.50      0.00
    0   26    0     -1.45      0.00
    2   26    0     -1.43      0.00
    4   26    0     -1.09      0.00
    6   26    0     -0.23      0.00
    1   27    0      1.01      0.00
    3   27    0      1.16      0.00
    5   27    0      0.82      0.00
    0   28    0     -0.37      0.00
    2   28    0     -0.67      0.00
  -19    1    1      0.32      0.00
  -17    1    1      0.10      0.00
  -15    1    1     -0.36      0.00
  -13    1    1     -0.90      0.00
  -11    1    1     -1.15      0.00
   -9    1    1     -1.43      0.00
   -7    1    1     -2.34      0.00
   -5    1    1     -2.67      0.00
   -3    1    1     -0.78      0.00
    1    1    1      2.75      0.00
    3    1    1      1.68      0.00
    5    1    1      0.57      0.00
    7    1    1      0.02      0.00
    9    1    1     -0.23      0.00
   11    1    1     -0.21      0.00
   13    1    1     -0.06      0.00
   15    1    1      0.00      0.00
   17    1    1     -0.01      0.00
  -20    2    1     -0.59      0.00
  -18    2    1     -0.50      0.00
  -16    2    1      0.13      0.00
  -14    2    1      1.16      0.00
  -12    2    1      1.98      0.00
  -10    2    1      2.28      0.00
   -8    2    1      3.37      0.00
   -6    2    1      5.04      0.00
   -4    2    1      3.78      0.00
   -2    2    1     -1.12      0.00
    0    2    1     -4.83      0.00
    2    2    1     -4.30      0.00
    4    2    1     -2.01      0.00
    6    2    1     -0.50      0.00
    8    2    1      0.24      0.00
   10    2    1      0.46      0.00
   12    2    1      0.23      0.00
   14    2    1      0.03      0.00
   16    2    1     -0.01      0.00
   18    2    1      0.08      0.00
  -19    3    1      0.91      0.00
  -17    3    1      0.46      0.00
  -15    3    1     -0.67      0.00
  -13    3    1     -2.12      0.00
  -11    3    1     -2.85      0.00
   -9    3    1     -3.48      0.00
   -7    3    1     -5.63      0.00
   -5    3    1     -6.62      0.00
   -3    3    1     -2.33      0.00
   -1    3    1      4.21      0.00
    1    3    1      6.46      0.00
    3    3    1      4.24      0.00
    5    3    1      1.65      0.00
    7    3    1      0.16      0.00
    9    3    1     -0.55      0.00
   11    3    1     -0.46      0.00
   13    3    1     -0.10      0.00
   15    3    1      0.00      0.00
   17    3    1     -0.04      0.00
  -18    4    1     -1.04      0.00
  -16    4    1     -0.23      0.00
  -14    4    1      1.38      0.00
  -12    4    1      2.87      0.00
  -10    4    1      3.40      0.00
   -8    4    1      4.78      0.00
   -6    4    1      7.28      0.00
   -4    4    1      6.03      0.00
   -2    4    1     -0.62      0.00
    0    4    1     -6.22      0.00
    2    4    1     -6.19      0.00
    4    4    1     -3.39      0.00
    6    4    1     -1.11      0.00
    8    4    1      0.27      0.00
   10    4    1      0.60      0.00
   12    4    1      0.18      0.00
   14    4    1     -0.03      0.00
   16    4    1      0.02      0.00
  -19    5    1      1.32      0.00
  -17    5    1      1.05      0.00
  -15    5    1     -0.13      0.00
  -13    5    1     -2.02      0.00
  -11    5    1     -3.15      0.00
   -9    5    1     -3.68      0.00
   -7    5    1     -5.81      0.00
   -5    5    1     -7.45      0.00
   -3    5    1     -3.79      0.00
   -1    5    1      2.98      0.00
    1    5    1      6.23      0.00
    3    5    1      4.94      0.00
    5    5    1      2.50      0.00
    7    5    1      0.54      0.00
    9    5    1     -0.44      0.00
   11    5    1     -0.22      0.00
   13    5    1      0.14      0.00
   15    5    1      0.06      0.00
   17    5    1     -0.07      0.00
  -18    6    1     -1.49      0.00
  -16    6    1     -0.99      0.00
  -14    6    1      0.56      0.00
  -12    6    1      2.31      0.00
  -10    6    1      2.86      0.00
   -8    6    1      3.71      0.00
   -6    6    1      6.11      0.00
   -4    6    1      6.25      0.00
   -2    6    1      1.59      0.00
    0    6    1     -3.58      0.00
    2    6    1     -5.04      0.00
    4    6    1     -3.74      0.00
    6    6    1     -1.74      0.00
    8    6    1     -0.17      0.00
   10    6    1      0.10      0.00
   12    6    1     -0.33      0.00
   14    6    1     -0.29      0.00
   16    6    1     -0.04      0.00
  -19    7    1      1.44      0.00
  -17    7    1      1.58      0.00
  -15    7    1      0.79      0.00
  -13    7    1     -0.90      0.00
  -11    7    1     -2.02      0.00
   -9    7    1     -2.14      0.00
   -7    7    1     -3.50      0.00
   -5    7    1     -5.67      0.00
   -3    7    1     -4.79      0.00
   -1    7    1     -0.60      0.00
    1    7    1      2.95      0.00
    3    7    1      3.85      0.00
    5    7    1      2.85      0.00
    7    7    1      1.17      0.00
    9    7    1      0.32      0.00
   11    7    1      0.58      0.00
   13    7    1      0.66      0.00
   15    7    1      0.28      0.00
   17    7    1      0.05      0.00
  -18    8    1     -1.61      0.00
  -16    8    1     -1.53      0.00
  -14    8    1     -0.48      0.00
  -12    8    1      0.86      0.00
  -10    8    1      1.12      0.00
   -8    8    1      1.30      0.00
   -6    8    1      3.22      0.00
   -4    8    1      5.09      0.00
   -2    8    1      3.94      0.00
    0    8    1      0.56      0.00
    2    8    1     -2.25      0.00
    4    8    1     -3.08      0.00
    6    8    1     -2.17      0.00
    8    8    1     -1.04      0.00
   10    8    1     -0.94      0.00
   12    8    1     -1.08      0.00
   14    8    1     -0.67      0.00
   16    8    1     -0.29      0.00
  -19    9    1      1.19      0.00
  -17    9    1      1.62      0.00
  -15    9    1      1.24      0.00
  -13    9    1      0.28      0.00
  -11    9    1     -0.23      0.00
   -9    9    1      0.00      0.00
   -7    9    1     -0.77      0.00
   -5    9    1     -3.19      0.00
   -3    9    1     -4.79      0.00
   -1    9    1     -3.58      0.00
    1    9    1     -0.52      0.00
    3    9    1      2.00      0.00
    5    9    1      2.53      0.00
    7    9    1      1.78      0.00
    9    9    1      1.41      0.00
   11    9    1      1.47      0.00
   13    9    1      1.08      0.00
   15    9    1      0.56      0.00
   17    9    1      0.30      0.00
  -18   10    1     -1.28      0.00
  -16   10    1     -1.35      0.00
  -14   10    1     -0.89      0.00
  -12   10    1     -0.53      0.00
  -10   10    1     -0.75      0.00
   -8   10    1     -0.73      0.00
   -6   10    1      0.88      0.00
   -4   10    1      3.44      0.00
   -2   10    1      4.56      0.00
    0   10    1      2.96      0.00
    2   10    1      0.00      0.00
    4   10    1     -1.91      0.00
    6   10    1     -2.08      0.00
    8   10    1     -1.81      0.00
   10   10    1     -1.79      0.00
   12   10    1     -1.40      0.00
   14   10    1     -0.78      0.00
   16   10    1     -0.52      0.00
  -17   11    1      1.10      0.00
  -15   11    1      0.91      0.00
  -13   11    1      0.82      0.00
  -11   11    1      1.18      0.00
   -9   11    1      1.45      0.00
   -7   11    1      0.65      0.00
   -5   11    1     -1.45      0.00
   -3   11    1     -3.56      0.00
   -1   11    1     -3.80      0.00
    1   11    1     -1.80      0.00
    3   11    1      0.61      0.00
    5   11    1      1.70      0.00
    7   11    1      1.86      0.00
    9   11    1      1.95      0.00
   11   11    1      1.60      0.00
   13   11    1      0.86      0.00
   15   11    1      0.55      0.00
  -18   12    1     -0.70      0.00
  -16   12    1     -0.69      0.00
  -14   12    1     -0.63      0.00
  -12   12    1     -1.16      0.00
  -10   12    1     -1.72      0.00
   -8   12    1     -1.34      0.00
   -6   12    1      0.07      0.00
   -4   12    1      1.86      0.00
   -2   12    1      2.96      0.00
    0   12    1      2.36      0.00
    2   12    1      0.54      0.00
    4   12    1     -0.88      0.00
    6   12    1     -1.44      0.00
    8   12    1     -1.76      0.00
   10   12    1     -1.61      0.00
   12   12    1     -0.81      0.00
   14   12    1     -0.33      0.00
   16   12    1     -0.45      0.00
  -17   13    1      0.49      0.00
  -15   13    1      0.35      0.00
  -13   13    1      0.74      0.00
  -11   13    1      1.57      0.00
   -9   13    1      1.57      0.00
   -7   13    1      0.52      0.00
   -5   13    1     -0.69      0.00
   -3   13    1     -1.51      0.00
   -1   13    1     -1.60      0.00
    1   13    1     -0.79      0.00
    3   13    1      0.23      0.00
    5   13    1      0.81      0.00
    7   13    1      1.21      0.00
    9   13    1      1.32      0.00
   11   13    1      0.66      0.00
   13   13    1     -0.03      0.00
   15   13    1      0.10      0.00
  -16   14    1     -0.30      0.00
  -14   14    1     -0.36      0.00
  -12   14    1     -1.05      0.00
  -10   14    1     -1.46      0.00
   -8   14    1     -0.69      0.00
   -6   14    1      0.31      0.00
   -4   14    1      0.55      0.00
   -2   14    1      0.36      0.00
    0   14    1      0.09      0.00
    2   14    1     -0.24      0.00
    4   14    1     -0.43      0.00
    6   14    1     -0.61      0.00
    8   14    1     -0.76      0.00
   10   14    1     -0.35      0.00
   12   14    1      0.39      0.00
   14   14    1      0.43      0.00
  -17   15    1      0.38      0.00
  -15   15    1      0.38      0.00
  -13   15    1      0.59      0.00
  -11   15    1      1.03      0.00
   -9   15    1      0.66      0.00
   -7   15    1     -0.31      0.00
   -5   15    1     -0.42      0.00
   -3   15    1      0.39      0.00
   -1   15    1      0.94      0.00
    1   15    1      0.87      0.00
    3   15    1      0.58      0.00
    5   15    1      0.35      0.00
    7   15    1      0.23      0.00
    9   15    1     -0.10      0.00
   11   15    1     -0.71      0.00
   13   15    1     -0.89      0.00
   15   15    1     -0.40      0.00
  -16   16    1     -0.68      0.00
  -14   16    1     -0.64      0.00
  -12   16    1     -0.61      0.00
  -10   16    1     -0.42      0.00
   -8   16    1      0.35      0.00
   -6   16    1      0.68      0.00
   -4   16    1     -0.32      0.00
   -2   16    1     -1.51      0.00
    0   16    1     -1.67      0.00
    2   16    1     -1.13      0.00
    4   16    1     -0.60      0.00
    6   16    1     -0.13      0.00
    8   16    1      0.46      0.00
   10   16    1      1.04      0.00
   12   16    1      1.19      0.00
   14   16    1      0.77      0.00
  -15   17    1      1.11      0.00
  -13   17    1      0.68      0.00
  -11   17    1      0.13      0.00
   -9   17    1     -0.46      0.00
   -7   17    1     -0.89      0.00
   -5   17    1     -0.21      0.00
   -3   17    1      1.32      0.00
   -1   17    1      2.08      0.00
    1   17    1      1.68      0.00
    3   17    1      1.08      0.00
    5   17    1      0.52      0.00
    7   17    1     -0.36      0.00
    9   17    1     -1.24      0.00
   11   17    1     -1.41      0.00
   13   17    1     -0.92      0.00
  -14   18    1     -1.25      0.00
  -12   18    1     -0.21      0.00
  -10   18    1      0.61      0.00
   -8   18    1      0.99      0.00
   -6   18    1      0.67      0.00
   -4   18    1     -0.65      0.00
   -2   18    1     -1.87      0.00
    0   18    1     -1.91      0.00
    2   18    1     -1.44      0.00
    4   18    1     -1.10      0.00
    6   18    1     -0.27      0.00
    8   18    1      1.02      0.00
   10   18    1      1.53      0.00
   12   18    1      0.95      0.00
  -15   19    1      1.80      0.00
  -13   19    1      0.78      0.00
  -11   19    1     -0.55      0.00
   -9   19    1     -1.07      0.00
   -7   19    1     -0.88      0.00
   -5   19    1      0.01      0.00
   -3   19    1      1.24      0.00
   -1   19    1      1.71      0.00
    1   19    1      1.46      0.00
    3   19    1      1.41      0.00
    5   19    1      1.09      0.00
    7   19    1     -0.25      0.00
    9   19    1     -1.36      0.00
   11   19    1     -0.99      0.00
   13   19    1     -0.13      0.00
  -14   20    1     -1.47      0.00
  -12   20    1      0.08      0.00
  -10   20    1      1.06      0.00
   -8   20    1      0.94      0.00
   -6   20    1      0.31      0.00
   -4   20    1     -0.59      0.00
   -2   20    1     -1.23      0.00
    0   20    1     -1.21      0.00
    2   20    1     -1.31      0.00
    4   20    1     -1.60      0.00
    6   20    1     -0.79      0.00
    8   20    1      0.74      0.00
   10   20    1      0.97      0.00
   12   20    1      0.00      0.00
  -13   21    1      0.59      0.00
  -11   21    1     -0.78      0.00
   -9   21    1     -0.95      0.00
   -7   21    1     -0.37      0.00
   -5   21    1      0.23      0.00
   -3   21    1      0.72      0.00
   -1   21    1      0.84      0.00
    1   21    1      0.96      0.00
    3   21    1      1.58      0.00
    5   21    1      1.60      0.00
    7   21    1      0.24      0.00
    9   21    1     -0.71      0.00
   11   21    1     -0.03      0.00
  -12   22    1      0.27      0.00
  -10   22    1      0.85      0.00
   -8   22    1      0.36      0.00
   -6   22    1     -0.20      0.00
   -4   22    1     -0.43      0.00
   -2   22    1     -0.49      0.00
    0   22    1     -0.56      0.00
    2   22    1     -1.19      0.00
    4   22    1     -1.85      0.00
    6   22    1     -1.16      0.00
    8   22    1      0.15      0.00
   10   22    1      0.11      0.00
  -11   23    1     -0.58      0.00
   -9   23    1     -0.35      0.00
   -7   23    1      0.29      0.00
   -5   23    1      0.46      0.00
   -3   23    1      0.30      0.00
   -1   23    1      0.24      0.00
    1   23    1      0.71      0.00
    3   23    1      1.61      0.00
    5   23    1      1.67      0.00
    7   23    1      0.53      0.00
    9   23    1     -0.05      0.00
  -10   24    1      0.29      0.00
   -8   24    1     -0.32      0.00
   -6   24    1     -0.66      0.00
   -4   24    1     -0.36      0.00
   -2   24    1     -0.04      0.00
    0   24    1     -0.27      0.00
    2   24    1     -1.13      0.00
    4   24    1     -1.70      0.00
    6   24    1     -1.04      0.00
    8   24    1     -0.14      0.00
   -9   25    1      0.27      0.00
   -7   25    1      0.79      0.00
   -5   25    1      0.63      0.00
   -3   25    1      0.05      0.00
   -1   25    1     -0.07      0.00
    1   25    1      0.59      0.00
    3   25    1      1.39      0.00
    5   25    1      1.25      0.00
    7   25    1      0.38      0.00
   -8   26    1     -0.73      0.00
   -6   26    1     -0.87      0.00
   -4   26    1     -0.29      0.00
   -2   26    1      0.24      0.00
    0   26    1     -0.07      0.00
    2   26    1     -0.90      0.00
    4   26    1     -1.16      0.00
    6   26    1     -0.53      0.00
   -5   27    1      0.59      0.00
   -3   27    1     -0.16      0.00
   -1   27    1     -0.34      0.00
    1   27    1      0.32      0.00
    3   27    1      0.86      0.00
  -20    0    2     -0.93      0.00
  -18    0    2     -0.51      0.00
  -16    0    2     -0.26      0.00
  -14    0    2     -0.48      0.00
  -12    0    2     -1.42      0.00
  -10    0    2     -1.59      0.00
   -8    0    2     -0.43      0.00
   -6    0    2     -1.71      0.00
   -4    0    2     -6.53      0.00
   -2    0    2     -8.37      0.00
    0    0    2     -3.77      0.00
    2    0    2      1.53      0.00
    4    0    2      2.82      0.00
    6    0    2      1.60      0.00
    8    0    2     -0.15      0.00
   10    0    2     -1.38      0.00
   12    0    2     -1.18      0.00
   14    0    2     -1.00      0.00
   16    0    2     -2.01      0.00
  -19    1    2      0.61      0.00
  -17    1    2      0.30      0.00
  -15    1    2      0.30      0.00
  -13    1    2      0.99      0.00
  -11    1    2      1.83      0.00
   -9    1    2      1.14      0.00
   -7    1    2      0.58      0.00
   -5    1    2      3.72      0.00
   -3    1    2      7.55      0.00
   -1    1    2      5.81      0.00
    1    1    2      0.24      0.00
    3    1    2     -2.77      0.00
    5    1    2     -2.29      0.00
    7    1    2     -0.70      0.00
    9    1    2      0.92      0.00
   11    1    2      1.40      0.00
   13    1    2      0.86      0.00
   15    1    2      1.32      0.00
  -20    2    2     -0.52      0.00
  -18    2    2     -0.18      0.00
  -16    2    2     -0.20      0.00
  -14    2    2     -0.72      0.00
  -12    2    2     -1.77      0.00
  -10    2    2     -1.99      0.00
   -8    2    2     -0.92      0.00
   -6    2    2     -1.57      0.00
   -4    2    2     -4.65      0.00
   -2    2    2     -5.14      0.00
    0    2    2     -1.09      0.00
    2    2    2      2.56      0.00
    4    2    2      2.78      0.00
    6    2    2      1.40      0.00
    8    2    2     -0.20      0.00
   10    2    2     -1.28      0.00
   12    2    2     -0.97      0.00
   14    2    2     -0.64      0.00
   16    2    2     -1.47      0.00
  -19    3    2     -0.11      0.00
  -17    3    2     -0.13      0.00
  -15    3    2      0.43      0.00
  -13    3    2      1.53      0.00
  -11    3    2      2.45      0.00
   -9    3    2      1.96      0.00
   -7    3    2      1.16      0.00
   -5    3    2      2.08      0.00
   -3    3    2      2.70      0.00
   -1    3    2      0.16      0.00
    1    3    2     -3.04      0.00
    3    3    2     -3.43      0.00
    5    3    2     -1.99      0.00
    7    3    2     -0.52      0.00
    9    3    2      0.79      0.00
   11    3    2      1.08      0.00
   13    3    2      0.39      0.00
   15    3    2      0.53      0.00
  -20    4    2      0.40      0.00
  -18    4    2      0.68      0.00
  -16    4    2      0.17      0.00
  -14    4    2     -1.04      0.00
  -12    4    2     -2.43      0.00
  -10    4    2     -2.82      0.00
   -8    4    2     -1.97      0.00
   -6    4    2     -1.25      0.00
   -4    4    2     -0.58      0.00
   -2    4    2      1.76      0.00
    0    4    2      4.53      0.00
    2    4    2      4.71      0.00
    4    4    2      2.82      0.00
    6    4    2      1.17      0.00
    8    4    2     -0.07      0.00
   10    4    2     -0.86      0.00
   12    4    2     -0.47      0.00
   14    4    2      0.03      0.00
   16    4    2     -0.39      0.00
  -19    5    2     -1.13      0.00
  -17    5    2     -1.02      0.00
  -15    5    2      0.13      0.00
  -13    5    2      1.90      0.00
  -11    5    2      3.09      0.00
   -9    5    2      2.89      0.00
   -7    5    2      1.79      0.00
   -5    5    2      0.08      0.00
   -3    5    2     -3.01      0.00
   -1    5    2     -6.24      0.00
    1    5    2     -6.61      0.00
    3    5    2     -4.22      0.00
    5    5    2     -1.96      0.00
    7    5    2     -0.71      0.00
    9    5    2      0.24      0.00
   11    5    2      0.45      0.00
   13    5    2     -0.09      0.00
   15    5    2     -0.18      0.00
  -20    6    2      1.21      0.00
  -18    6    2      1.71      0.00
  -16    6    2      1.08      0.00
  -14    6    2     -0.78      0.00
  -12    6    2     -2.69      0.00
  -10    6    2     -3.30      0.00
   -8    6    2     -2.58      0.00
   -6    6    2     -0.82      0.00
   -4    6    2      2.63      0.00
   -2    6    2      6.79      0.00
    0    6    2      8.26      0.00
    2    6    2      6.04      0.00
    4    6    2      3.12      0.00
    6    6    2      1.53      0.00
    8    6    2      0.60      0.00
   10    6    2     -0.01      0.00
   12    6    2      0.04      0.00
   14    6    2      0.24      0.00
   16    6    2      0.20      0.00
  -19    7    2     -1.87      0.00
  -17    7    2     -2.09      0.00
  -15    7    2     -0.74      0.00
  -13    7    2      1.60      0.00
  -11    7    2      3.08      0.00
   -9    7    2      2.91      0.00
   -7    7    2      1.65      0.00
   -5    7    2     -1.18      0.00
   -3    7    2     -5.58      0.00
   -1    7    2     -8.50      0.00
    1    7    2     -7.47      0.00
    3    7    2     -4.50      0.00
    5    7    2     -2.48      0.00
    7    7    2     -1.48      0.00
    9    7    2     -0.75      0.00
   11    7    2     -0.34      0.00
   13    7    2     -0.14      0.00
   15    7    2     -0.06      0.00
  -18    8    2      2.42      0.00
  -16    8    2      2.07      0.00
  -14    8    2     -0.03      0.00
  -12    8    2     -2.24      0.00
  -10    8    2     -2.73      0.00
   -8    8    2     -1.84      0.00
   -6    8    2     -0.03      0.00
   -4    8    2      3.39      0.00
   -2    8    2      6.93      0.00
    0    8    2      7.55      0.00
    2    8    2      5.49      0.00
    4    8    2      3.44      0.00
    6    8    2      2.31      0.00
    8    8    2      1.55      0.00
   10    8    2      1.00      0.00
   12    8    2      0.37      0.00
   14    8    2     -0.23      0.00
   16    8    2     -0.07      0.00
  -19    9    2     -2.02      0.00
  -17    9    2     -2.66      0.00
  -15    9    2     -1.46      0.00
  -13    9    2      0.95      0.00
  -11    9    2      2.16      0.00
   -9    9    2      1.52      0.00
   -7    9    2      0.26      0.00
   -5    9    2     -1.67      0.00
   -3    9    2     -4.43      0.00
   -1    9    2     -6.02      0.00
    1    9    2     -5.34      0.00
    3    9    2     -3.97      0.00
    5    9    2     -2.99      0.00
    7    9    2     -2.19      0.00
    9    9    2     -1.65      0.00
   11    9    2     -1.01      0.00
   13    9    2      0.15      0.00
   15    9    2      0.64      0.00
  -18   10    2      2.40      0.00
  -16   10    2      2.26      0.00
  -14   10    2      0.35      0.00
  -12   10    2     -1.36      0.00
  -10   10    2     -1.06      0.00
   -8   10    2      0.23      0.00
   -6   10    2      1.24      0.00
   -4   10    2      2.46      0.00
   -2   10    2      3.70      0.00
    0   10    2      3.94      0.00
    2   10    2      3.59      0.00
    4   10    2      3.23      0.00
    6   10    2      2.56      0.00
    8   10    2      1.98      0.00
   10   10    2      1.63      0.00
   12   10    2      0.49      0.00
   14   10    2     -0.84      0.00
  -19   11    2     -1.60      0.00
  -17   11    2     -2.21      0.00
  -15   11    2     -1.12      0.00
  -13   11    2      0.60      0.00
  -11   11    2      0.70      0.00
   -9   11    2     -0.77      0.00
   -7   11    2     -1.78      0.00
   -5   11    2     -1.86      0.00
   -3   11    2     -1.87      0.00
   -1   11    2     -1.99      0.00
    1   11    2     -2.30      0.00
    3   11    2     -2.76      0.00
    5   11    2     -2.57      0.00
    7   11    2     -1.93      0.00
    9   11    2     -1.79      0.00
   11   11    2     -1.26      0.00
   13   11    2      0.35      0.00
   15   11    2      1.11      0.00
  -18   12    2      1.61      0.00
  -16   12    2      1.20      0.00
  -14   12    2     -0.20      0.00
  -12   12    2     -0.56      0.00
  -10   12    2      0.94      0.00
   -8   12    2      2.44      0.00
   -6   12    2      2.34      0.00
   -4   12    2      1.27      0.00
   -2   12    2      0.51      0.00
    0   12    2      0.71      0.00
    2   12    2      1.68      0.00
    4   12    2      2.14      0.00
    6   12    2      1.59      0.00
    8   12    2      1.36      0.00
   10   12    2      1.53      0.00
   12   12    2      0.50      0.00
   14   12    2     -0.96      0.00
  -17   13    2     -0.87      0.00
  -15   13    2      0.25      0.00
  -13   13    2      0.75      0.00
  -11   13    2     -0.65      0.00
   -9   13    2     -2.62      0.00
   -7   13    2     -3.02      0.00
   -5   13    2     -1.64      0.00
   -3   13    2     -0.01      0.00
   -1   13    2      0.46      0.00
    1   13    2     -0.46      0.00
    3   13    2     -1.38      0.00
    5   13    2     -1.08      0.00
    7   13    2     -0.58      0.00
    9   13    2     -1.04      0.00
   11   13    2     -1.04      0.00
   13   13    2      0.26      0.00
  -18   14    2      0.48      0.00
  -16   14    2     -0.47      0.00
  -14   14    2     -1.21      0.00
  -12   14    2     -0.05      0.00
  -10   14    2      2.20      0.00
   -8   14    2      3.24      0.00
   -6   14    2      2.20      0.00
   -4   14    2      0.25      0.00
   -2   14    2     -0.88      0.00
    0   14    2     -0.41      0.00
    2   14    2      0.64      0.00
    4   14    2      0.59      0.00
    6   14    2     -0.19      0.00
    8   14    2      0.02      0.00
   10   14    2      0.81      0.00
   12   14    2      0.39      0.00
   14   14    2     -0.56      0.00
  -17   15    2      0.54      0.00
  -15   15    2      1.61      0.00
  -13   15    2      0.96      0.00
  -11   15    2     -1.32      0.00
   -9   15    2     -2.88      0.00
   -7   15    2     -2.36      0.00
   -5   15    2     -0.57      0.00
   -3   15    2      0.85      0.00
   -1   15    2      0.80      0.00
    1   15    2     -0.18      0.00
    3   15    2     -0.35      0.00
    5   15    2      0.64      0.00
    7   15    2      1.03      0.00
    9   15    2      0.09      0.00
   11   15    2     -0.47      0.00
   13   15    2      0.08      0.00
  -16   16    2     -1.61      0.00
  -14   16    2     -1.72      0.00
  -12   16    2      0.21      0.00
  -10   16    2      2.11      0.00
   -8   16    2      2.05      0.00
   -6   16    2      0.53      0.00
   -4   16    2     -0.86      0.00
   -2   16    2     -1.00      0.00
    0   16    2     -0.04      0.00
    2   16    2      0.42      0.00
    4   16    2     -0.59      0.00
    6   16    2     -1.64      0.00
    8   16    2     -1.19      0.00
   10   16    2     -0.12      0.00
   12   16    2      0.08      0.00
  -15   17    2      1.95      0.00
  -13   17    2      0.80      0.00
  -11   17    2     -1.15      0.00
   -9   17    2     -1.51      0.00
   -7   17    2     -0.17      0.00
   -5   17    2      1.17      0.00
   -3   17    2      1.33      0.00
   -1   17    2      0.32      0.00
    1   17    2     -0.56      0.00
    3   17    2      0.11      0.00
    5   17    2      1.60      0.00
    7   17    2      1.94      0.00
    9   17    2      1.02      0.00
   11   17    2      0.28      0.00
  -16   18    2     -1.62      0.00
  -14   18    2     -1.33      0.00
  -12   18    2      0.23      0.00
  -10   18    2      0.93      0.00
   -8   18    2     -0.21      0.00
   -6   18    2     -1.65      0.00
   -4   18    2     -1.88      0.00
   -2   18    2     -0.84      0.00
    0   18    2      0.45      0.00
    2   18    2      0.43      0.00
    4   18    2     -1.01      0.00
    6   18    2     -2.06      0.00
    8   18    2     -1.73      0.00
   10   18    2     -0.94      0.00
   12   18    2     -0.45      0.00
  -15   19    2      1.27      0.00
  -13   19    2      0.39      0.00
  -11   19    2     -0.41      0.00
   -9   19    2      0.42      0.00
   -7   19    2      1.99      0.00
   -5   19    2      2.48      0.00
   -3   19    2      1.52      0.00
   -1   19    2      0.01      0.00
    1   19    2     -0.65      0.00
    3   19    2      0.27      0.00
    5   19    2      1.63      0.00
    7   19    2      1.97      0.00
    9   19    2      1.52      0.00
   11   19    2      0.98      0.00
  -14   20    2     -0.56      0.00
  -12   20    2      0.01      0.00
  -10   20    2     -0.46      0.00
   -8   20    2     -1.98      0.00
   -6   20    2     -2.85      0.00
   -4   20    2     -2.15      0.00
   -2   20    2     -0.63      0.00
    0   20    2      0.44      0.00
    2   20    2      0.17      0.00
    4   20    2     -1.00      0.00
    6   20    2     -1.75      0.00
    8   20    2     -1.74      0.00
   10   20    2     -1.46      0.00
  -13   21    2      0.16      0.00
  -11   21    2      0.43      0.00
   -9   21    2      1.67      0.00
   -7   21    2      2.81      0.00
   -5   21    2      2.53      0.00
   -3   21    2      1.15      0.00
   -1   21    2     -0.05      0.00
    1   21    2     -0.21      0.00
    3   21    2      0.58      0.00
    5   21    2      1.38      0.00
    7   21    2      1.64      0.00
    9   21    2      1.65      0.00
  -12   22    2     -0.37      0.00
  -10   22    2     -1.25      0.00
   -8   22    2     -2.40      0.00
   -6   22    2     -2.59      0.00
   -4   22    2     -1.48      0.00
   -2   22    2     -0.25      0.00
    0   22    2      0.08      0.00
    2   22    2     -0.47      0.00
    4   22    2     -1.15      0.00
    6   22    2     -1.43      0.00
    8   22    2     -1.54      0.00
  -11   23    2      0.90      0.00
   -9   23    2      1.81      0.00
   -7   23    2      2.32      0.00
   -5   23    2      1.65      0.00
   -3   23    2      0.44      0.00
   -1   23    2     -0.03      0.00
    1   23    2      0.47      0.00
    3   23    2      1.14      0.00
    5   23    2      1.36      0.00
    7   23    2      1.36      0.00
  -10   24    2     -1.26      0.00
   -8   24    2     -1.81      0.00
   -6   24    2     -1.65      0.00
   -4   24    2     -0.65      0.00
   -2   24    2      0.05      0.00
    0   24    2     -0.34      0.00
    2   24    2     -1.15      0.00
    4   24    2     -1.46      0.00
    6   24    2     -1.31      0.00
   -9   25    2      1.25      0.00
   -7   25    2      1.42      0.00
   -5   25    2      0.89      0.00
   -3   25    2      0.08      0.00
   -1   25    2      0.12      0.00
    1   25    2      0.96      0.00
    3   25    2      1.53      0.00
    5   25    2      1.40      0.00
   -8   26    2     -1.03      0.00
   -6   26    2     -1.00      0.00
   -4   26    2     -0.43      0.00
   -2   26    2     -0.07      0.00
    0   26    2     -0.60      0.00
    2   26    2     -1.34      0.00
    4   26    2     -1.45      0.00
   -5   27    2      0.77      0.00
   -3   27    2      0.35      0.00
   -1   27    2      0.36      0.00
    1   27    2      0.93      0.00
  -21    1    3     -0.25      0.00
  -19    1    3     -0.34      0.00
  -17    1    3     -0.26      0.00
  -15    1    3      0.18      0.00
  -13    1    3      0.74      0.00
  -11    1    3      1.23      0.00
   -9    1    3      1.89      0.00
   -7    1    3      2.18      0.00
   -5    1    3      1.04      0.00
   -3    1    3     -0.93      0.00
   -1    1    3     -1.80      0.00
    1    1    3     -1.06      0.00
    3    1    3      0.13      0.00
    5    1    3      0.79      0.00
    7    1    3      0.85      0.00
    9    1    3      0.63      0.00
   11    1    3      0.39      0.00
   13    1    3      0.12      0.00
   15    1    3     -0.12      0.00
  -20    2    3      0.59      0.00
  -18    2    3      0.70      0.00
  -16    2    3      0.26      0.00
  -14    2    3     -0.82      0.00
  -12    2    3     -1.83      0.00
  -10    2    3     -2.86      0.00
   -8    2    3     -3.95      0.00
   -6    2    3     -3.28      0.00
   -4    2    3     -0.02      0.00
   -2    2    3      2.95      0.00
    0    2    3      2.90      0.00
    2    2    3      0.79      0.00
    4    2    3     -1.05      0.00
    6    2    3     -1.68      0.00
    8    2    3     -1.42      0.00
   10    2    3     -0.95      0.00
   12    2    3     -0.52      0.00
   14    2    3     -0.04      0.00
  -21    3    3     -0.61      0.00
  -19    3    3     -1.00      0.00
  -17    3    3     -0.99      0.00
  -15    3    3      0.13      0.00
  -13    3    3      1.76      0.00
  -11    3    3      3.08      0.00
   -9    3    3      4.52      0.00
   -7    3    3      5.07      0.00
   -5    3    3      2.31      0.00
   -3    3    3     -2.33      0.00
   -1    3    3     -4.33      0.00
    1    3    3     -2.50      0.00
    3    3    3      0.42      0.00
    5    3    3      2.10      0.00
    7    3    3      2.21      0.00
    9    3    3      1.57      0.00
   11    3    3      1.01      0.00
   13    3    3      0.50      0.00
   15    3    3     -0.10      0.00
  -20    4    3      0.96      0.00
  -18    4    3      1.51      0.00
  -16    4    3      1.03      0.00
  -14    4    3     -0.88      0.00
  -12    4    3     -2.75      0.00
  -10    4    3     -4.18      0.00
   -8    4    3     -5.42      0.00
   -6    4    3     -4.31      0.00
   -4    4    3      0.20      0.00
   -2    4    3      4.22      0.00
    0    4    3      4.05      0.00
    2    4    3      0.98      0.00
    4    4    3     -1.78      0.00
    6    4    3     -2.72      0.00
    8    4    3     -2.17      0.00
   10    4    3     -1.40      0.00
   12    4    3     -0.98      0.00
   14    4    3     -0.42      0.00
  -21    5    3     -0.64      0.00
  -19    5    3     -1.46      0.00
  -17    5    3     -1.93      0.00
  -15    5    3     -0.59      0.00
  -13    5    3      1.80      0.00
  -11    5    3      3.47      0.00
   -9    5    3      4.64      0.00
   -7    5    3      4.83      0.00
   -5    5    3      1.97      0.00
   -3    5    3     -2.55      0.00
   -1    5    3     -4.40      0.00
    1    5    3     -2.44      0.00
    3    5    3      0.74      0.00
    5    5    3      2.66      0.00
    7    5    3      2.63      0.00
    9    5    3      1.70      0.00
   11    5    3      1.22      0.00
   13    5    3      0.99      0.00
   15    5    3      0.34      0.00
  -20    6    3      0.96      0.00
  -18    6    3      2.06      0.00
  -16    6    3      1.91      0.00
  -14    6    3     -0.28      0.00
  -12    6    3     -2.48      0.00
  -10    6    3     -3.52      0.00
   -8    6    3     -3.99      0.00
   -6    6    3     -2.88      0.00
   -4    6    3      0.46      0.00
   -2    6    3      3.31      0.00
    0    6    3      3.04      0.00
    2    6    3      0.49      0.00
    4    6    3     -1.96      0.00
    6    6    3     -2.72      0.00
    8    6    3     -1.92      0.00
   10    6    3     -1.19      0.00
   12    6    3     -1.24      0.00
   14    6    3     -0.98      0.00
  -19    7    3     -1.44      0.00
  -17    7    3     -2.35      0.00
  -15    7    3     -1.21      0.00
  -13    7    3      1.15      0.00
  -11    7    3      2.47      0.00
   -9    7    3      2.72      0.00
   -7    7    3      2.40      0.00
   -5    7    3      0.75      0.00
   -3    7    3     -1.58      0.00
   -1    7    3     -2.45      0.00
    1    7    3     -1.19      0.00
    3    7    3      0.95      0.00
    5    7    3      2.31      0.00
    7    7    3      1.99      0.00
    9    7    3      1.07      0.00
   11    7    3      1.06      0.00
   13    7    3      1.36      0.00
  -20    8    3      0.58      0.00
  -18    8    3      1.81      0.00
  -16    8    3      1.91      0.00
  -14    8    3      0.19      0.00
  -12    8    3     -1.42      0.00
  -10    8    3     -1.66      0.00
   -8    8    3     -1.32      0.00
   -6    8    3     -0.73      0.00
   -4    8    3      0.34      0.00
   -2    8    3      1.18      0.00
    0    8    3      0.98      0.00
    2    8    3     -0.23      0.00
    4    8    3     -1.57      0.00
    6    8    3     -1.79      0.00
    8    8    3     -0.96      0.00
   10    8    3     -0.69      0.00
   12    8    3     -1.29      0.00
   14    8    3     -1.31      0.00
  -19    9    3     -0.83      0.00
  -17    9    3     -1.58      0.00
  -15    9    3     -0.90      0.00
  -13    9    3      0.44      0.00
  -11    9    3      0.86      0.00
   -9    9    3      0.42      0.00
   -7    9    3      0.04      0.00
   -5    9    3     -0.08      0.00
   -3    9    3     -0.13      0.00
   -1    9    3     -0.15      0.00
    1    9    3      0.14      0.00
    3    9    3      0.91      0.00
    5    9    3      1.37      0.00
    7    9    3      0.84      0.00
    9    9    3      0.38      0.00
   11    9    3      0.96      0.00
   13    9    3      1.48      0.00
  -20   10    3      0.04      0.00
  -18   10    3      0.69      0.00
  -16   10    3      0.70      0.00
  -14   10    3      0.05      0.00
  -12   10    3     -0.24      0.00
  -10   10    3      0.14      0.00
   -8   10    3      0.57      0.00
   -6   10    3      0.46      0.00
   -4   10    3     -0.17      0.00
   -2   10    3     -0.62      0.00
    0   10    3     -0.55      0.00
    2   10    3     -0.62      0.00
    4   10    3     -0.93      0.00
    6   10    3     -0.68      0.00
    8   10    3     -0.21      0.00
   10   10    3     -0.65      0.00
   12   10    3     -1.45      0.00
   14   10    3     -1.26      0.00
  -19   11    3      0.05      0.00
  -17   11    3      0.01      0.00
  -15   11    3      0.18      0.00
  -13   11    3     -0.02      0.00
  -11   11    3     -0.52      0.00
   -9   11    3     -0.88      0.00
   -7   11    3     -0.84      0.00
   -5   11    3     -0.12      0.00
   -3   11    3      0.81      0.00
   -1   11    3      0.99      0.00
    1   11    3      0.66      0.00
    3   11    3      0.64      0.00
    5   11    3      0.53      0.00
    7   11    3      0.13      0.00
    9   11    3      0.47      0.00
   11   11    3      1.44      0.00
   13   11    3      1.57      0.00
  -18   12    3     -0.55      0.00
  -16   12    3     -0.82      0.00
  -14   12    3     -0.30      0.00
  -12   12    3      0.68      0.00
  -10   12    3      1.09      0.00
   -8   12    3      0.97      0.00
   -6   12    3      0.49      0.00
   -4   12    3     -0.47      0.00
   -2   12    3     -1.06      0.00
    0   12    3     -0.77      0.00
    2   12    3     -0.49      0.00
    4   12    3     -0.45      0.00
    6   12    3     -0.15      0.00
    8   12    3     -0.36      0.00
   10   12    3     -1.48      0.00
   12   12    3     -1.99      0.00
  -19   13    3      0.59      0.00
  -17   13    3      1.22      0.00
  -15   13    3      0.95      0.00
  -13   13    3     -0.43      0.00
  -11   13    3     -1.26      0.00
   -9   13    3     -1.02      0.00
   -7   13    3     -0.61      0.00
   -5   13    3     -0.04      0.00
   -3   13    3      0.66      0.00
   -1   13    3      0.69      0.00
    1   13    3      0.36      0.00
    3   13    3      0.36      0.00
    5   13    3      0.26      0.00
    7   13    3      0.30      0.00
    9   13    3      1.40      0.00
   11   13    3      2.43      0.00
   13   13    3      1.80      0.00
  -18   14    3     -1.04      0.00
  -16   14    3     -1.37      0.00
  -14   14    3     -0.14      0.00
  -12   14    3      1.27      0.00
  -10   14    3      1.19      0.00
   -8   14    3      0.58      0.00
   -6   14    3      0.35      0.00
   -4   14    3     -0.02      0.00
   -2   14    3     -0.31      0.00
    0   14    3     -0.14      0.00
    2   14    3     -0.17      0.00
    4   14    3     -0.34      0.00
    6   14    3     -0.32      0.00
    8   14    3     -1.13      0.00
   10   14    3     -2.57      0.00
   12   14    3     -2.58      0.00
  -17   15    3      1.18      0.00
  -15   15    3      0.62      0.00
  -13   15    3     -0.99      0.00
  -11   15    3     -1.45      0.00
   -9   15    3     -0.66      0.00
   -7   15    3     -0.39      0.00
   -5   15    3     -0.54      0.00
   -3   15    3     -0.34      0.00
   -1   15    3     -0.21      0.00
    1   15    3     -0.11      0.00
    3   15    3      0.26      0.00
    5   15    3      0.41      0.00
    7   15    3      0.80      0.00
    9   15    3      2.20      0.00
   11   15    3      3.04      0.00
  -16   16    3     -0.63      0.00
  -14   16    3      0.62      0.00
  -12   16    3      1.59      0.00
  -10   16    3      0.97      0.00
   -8   16    3      0.34      0.00
   -6   16    3      0.77      0.00
   -4   16    3      1.04      0.00
   -2   16    3      0.74      0.00
    0   16    3      0.41      0.00
    2   16    3     -0.06      0.00
    4   16    3     -0.44      0.00
    6   16    3     -0.57      0.00
    8   16    3     -1.46      0.00
   10   16    3     -2.77      0.00
  -17   17    3      0.20      0.00
  -15   17    3     -0.42      0.00
  -13   17    3     -1.52      0.00
  -11   17    3     -1.38      0.00
   -9   17    3     -0.48      0.00
   -7   17    3     -0.68      0.00
   -5   17    3     -1.49      0.00
   -3   17    3     -1.43      0.00
   -1   17    3     -0.79      0.00
    1   17    3     -0.16      0.00
    3   17    3      0.38      0.00
    5   17    3      0.50      0.00
    7   17    3      0.74      0.00
    9   17    3      1.83      0.00
   11   17    3      2.46      0.00
  -16   18    3      0.48      0.00
  -14   18    3      1.31      0.00
  -12   18    3      1.65      0.00
  -10   18    3      0.86      0.00
   -8   18    3      0.55      0.00
   -6   18    3      1.48      0.00
   -4   18    3      2.01      0.00
   -2   18    3      1.35      0.00
    0   18    3      0.40      0.00
    2   18    3     -0.28      0.00
    4   18    3     -0.50      0.00
    6   18    3     -0.34      0.00
    8   18    3     -0.71      0.00
   10   18    3     -1.59      0.00
  -15   19    3     -1.08      0.00
  -13   19    3     -1.60      0.00
  -11   19    3     -1.30      0.00
   -9   19    3     -0.68      0.00
   -7   19    3     -1.16      0.00
   -5   19    3     -2.14      0.00
   -3   19    3     -1.95      0.00
   -1   19    3     -0.80      0.00
    1   19    3      0.16      0.00
    3   19    3      0.52      0.00
    5   19    3      0.27      0.00
    7   19    3     -0.05      0.00
    9   19    3      0.35      0.00
  -14   20    3      1.27      0.00
  -12   20    3      1.46      0.00
  -10   20    3      1.04      0.00
   -8   20    3      0.95      0.00
   -6   20    3      1.80      0.00
   -4   20    3      2.24      0.00
   -2   20    3      1.35      0.00
    0   20    3      0.08      0.00
    2   20    3     -0.53      0.00
    4   20    3     -0.39      0.00
    6   20    3      0.25      0.00
    8   20    3      0.59      0.00
  -13   21    3     -1.18      0.00
  -11   21    3     -1.31      0.00
   -9   21    3     -1.08      0.00
   -7   21    3     -1.35      0.00
   -5   21    3     -2.01      0.00
   -3   21    3     -1.75      0.00
   -1   21    3     -0.52      0.00
    1   21    3      0.42      0.00
    3   21    3      0.51      0.00
    5   21    3     -0.06      0.00
    7   21    3     -0.86      0.00
  -12   22    3      1.16      0.00
  -10   22    3      1.34      0.00
   -8   22    3      1.23      0.00
   -6   22    3      1.51      0.00
   -4   22    3      1.71      0.00
   -2   22    3      0.96      0.00
    0   22    3     -0.12      0.00
    2   22    3     -0.51      0.00
    4   22    3     -0.20      0.00
    6   22    3      0.58      0.00
  -11   23    3     -1.32      0.00
   -9   23    3     -1.41      0.00
   -7   23    3     -1.22      0.00
   -5   23    3     -1.31      0.00
   -3   23    3     -1.09      0.00
   -1   23    3     -0.26      0.00
    1   23    3      0.35      0.00
    3   23    3      0.30      0.00
    5   23    3     -0.17      0.00
  -10   24    3      1.50      0.00
   -8   24    3      1.31      0.00
   -6   24    3      0.98      0.00
   -4   24    3      0.87      0.00
   -2   24    3      0.45      0.00
    0   24    3     -0.11      0.00
    2   24    3     -0.24      0.00
    4   24    3     -0.04      0.00
   -9   25    3     -1.47      0.00
   -7   25    3     -1.02      0.00
   -5   25    3     -0.61      0.00
   -3   25    3     -0.38      0.00
   -1   25    3     -0.04      0.00
    1   25    3      0.13      0.00
    3   25    3      0.04      0.00
   -6   26    3      0.64      0.00
   -4   26    3      0.23      0.00
   -2   26    3      0.01      0.00
    0   26    3     -0.10      0.00
    2   26    3      0.00      0.00
   -3   27    3      0.06      0.00
  -20    0    4     -0.87      0.00
  -18    0    4     -0.90      0.00
  -16    0    4      0.06      0.00
  -14    0    4      0.50      0.00
  -12    0    4      0.35      0.00
  -10    0    4      0.18      0.00
   -8    0    4     -0.14      0.00
   -6    0    4     -0.27      0.00
   -4    0    4      0.98      0.00
   -2    0    4      3.37      0.00
    0    0    4      4.40      0.00
    2    0    4      2.62      0.00
    4    0    4      0.01      0.00
    6    0    4     -1.31      0.00
    8    0    4     -1.61      0.00
   10    0    4     -0.89      0.00
   12    0    4      1.24      0.00
  -21    1    4      0.46      0.00
  -19    1    4      1.13      0.00
  -17    1    4      0.42      0.00
  -15    1    4     -0.45      0.00
  -13    1    4     -0.51      0.00
  -11    1    4     -0.31      0.00
   -9    1    4     -0.10      0.00
   -7    1    4      0.27      0.00
   -5    1    4     -0.06      0.00
   -3    1    4     -1.97      0.00
   -1    1    4     -4.01      0.00
    1    1    4     -3.67      0.00
    3    1    4     -1.22      0.00
    5    1    4      0.75      0.00
    7    1    4      1.39      0.00
    9    1    4      1.28      0.00
   11    1    4     -0.10      0.00
   13    1    4     -2.09      0.00
  -20    2    4     -1.18      0.00
  -18    2    4     -0.95      0.00
  -16    2    4      0.19      0.00
  -14    2    4      0.73      0.00
  -12    2    4      0.56      0.00
  -10    2    4      0.37      0.00
   -8    2    4      0.05      0.00
   -6    2    4     -0.30      0.00
   -4    2    4      0.47      0.00
   -2    2    4      2.54      0.00
    0    2    4      3.69      0.00
    2    2    4      2.34      0.00
    4    2    4      0.15      0.00
    6    2    4     -0.85      0.00
    8    2    4     -0.98      0.00
   10    2    4     -0.46      0.00
   12    2    4      1.06      0.00
  -21    3    4      1.14      0.00
  -19    3    4      1.42      0.00
  -17    3    4      0.35      0.00
  -15    3    4     -0.76      0.00
  -13    3    4     -0.93      0.00
  -11    3    4     -0.68      0.00
   -9    3    4     -0.46      0.00
   -7    3    4      0.05      0.00
   -5    3    4      0.38      0.00
   -3    3    4     -0.68      0.00
   -1    3    4     -2.48      0.00
    1    3    4     -2.66      0.00
    3    3    4     -1.03      0.00
    5    3    4      0.23      0.00
    7    3    4      0.39      0.00
    9    3    4      0.23      0.00
   11    3    4     -0.41      0.00
   13    3    4     -1.29      0.00
  -20    4    4     -1.71      0.00
  -18    4    4     -1.06      0.00
  -16    4    4      0.37      0.00
  -14    4    4      1.18      0.00
  -12    4    4      1.11      0.00
  -10    4    4      0.86      0.00
   -8    4    4      0.46      0.00
   -6    4    4     -0.36      0.00
   -4    4    4     -0.62      0.00
   -2    4    4      0.60      0.00
    0    4    4      1.84      0.00
    2    4    4      1.37      0.00
    4    4    4      0.24      0.00
    6    4    4      0.05      0.00
    8    4    4      0.36      0.00
   10    4    4      0.54      0.00
   12    4    4      0.81      0.00
  -21    5    4      1.70      0.00
  -19    5    4      1.61      0.00
  -17    5    4      0.37      0.00
  -15    5    4     -0.97      0.00
  -13    5    4     -1.47      0.00
  -11    5    4     -1.29      0.00
   -9    5    4     -0.94      0.00
   -7    5    4     -0.19      0.00
   -5    5    4      0.88      0.00
   -3    5    4      0.92      0.00
   -1    5    4     -0.25      0.00
    1    5    4     -0.83      0.00
    3    5    4     -0.31      0.00
    5    5    4     -0.14      0.00
    7    5    4     -0.68      0.00
    9    5    4     -1.03      0.00
   11    5    4     -0.96      0.00
   13    5    4     -0.56      0.00
  -20    6    4     -1.74      0.00
  -18    6    4     -1.05      0.00
  -16    6    4      0.28      0.00
  -14    6    4      1.42      0.00
  -12    6    4      1.69      0.00
  -10    6    4      1.35      0.00
   -8    6    4      0.74      0.00
   -6    6    4     -0.40      0.00
   -4    6    4     -1.41      0.00
   -2    6    4     -1.18      0.00
    0    6    4     -0.35      0.00
    2    6    4     -0.19      0.00
    4    6    4     -0.17      0.00
    6    6    4      0.50      0.00
    8    6    4      1.23      0.00
   10    6    4      1.39      0.00
   12    6    4      0.90      0.00
  -21    7    4      1.44      0.00
  -19    7    4      1.25      0.00
  -17    7    4      0.44      0.00
  -15    7    4     -0.81      0.00
  -13    7    4     -1.74      0.00
  -11    7    4     -1.69      0.00
   -9    7    4     -1.09      0.00
   -7    7    4     -0.20      0.00
   -5    7    4      1.02      0.00
   -3    7    4      1.70      0.00
   -1    7    4      1.44      0.00
    1    7    4      1.06      0.00
    3    7    4      0.79      0.00
    5    7    4      0.07      0.00
    7    7    4     -0.86      0.00
    9    7    4     -1.44      0.00
   11    7    4     -1.40      0.00
   13    7    4     -0.54      0.00
  -20    8    4     -0.96      0.00
  -18    8    4     -0.66      0.00
  -16    8    4      0.07      0.00
  -14    8    4      1.25      0.00
  -12    8    4      1.79      0.00
  -10    8    4      1.30      0.00
   -8    8    4      0.50      0.00
   -6    8    4     -0.40      0.00
   -4    8    4     -1.32      0.00
   -2    8    4     -1.74      0.00
    0    8    4     -1.74      0.00
    2    8    4     -1.48      0.00
    4    8    4     -0.76      0.00
    6    8    4      0.15      0.00
    8    8    4      0.84      0.00
   10    8    4      1.35      0.00
   12    8    4      1.21      0.00
  -19    9    4      0.31      0.00
  -17    9    4      0.19      0.00
  -15    9    4     -0.51      0.00
  -13    9    4     -1.42      0.00
  -11    9    4     -1.33      0.00
   -9    9    4     -0.52      0.00
   -7    9    4      0.10      0.00
   -5    9    4      0.62      0.00
   -3    9    4      1.21      0.00
   -1    9    4      1.70      0.00
    1    9    4      1.84      0.00
    3    9    4      1.27      0.00
    5    9    4      0.43      0.00
    7    9    4      0.02      0.00
    9    9    4     -0.47      0.00
   11    9    4     -1.20      0.00
  -20   10    4      0.18      0.00
  -18   10    4      0.20      0.00
  -16   10    4      0.18      0.00
  -14   10    4      0.77      0.00
  -12   10    4      1.04      0.00
  -10   10    4      0.38      0.00
   -8   10    4     -0.22      0.00
   -6   10    4     -0.25      0.00
   -4   10    4     -0.34      0.00
   -2   10    4     -0.91      0.00
    0   10    4     -1.52      0.00
    2   10    4     -1.36      0.00
    4   10    4     -0.61      0.00
    6   10    4     -0.50      0.00
    8   10    4     -0.71      0.00
   10   10    4      0.14      0.00
   12   10    4      1.10      0.00
  -19   11    4     -0.78      0.00
  -17   11    4     -0.56      0.00
  -15   11    4     -0.39      0.00
  -13   11    4     -0.49      0.00
  -11   11    4     -0.05      0.00
   -9   11    4      0.56      0.00
   -7   11    4      0.38      0.00
   -5   11    4     -0.24      0.00
   -3   11    4     -0.20      0.00
   -1   11    4      0.57      0.00
    1   11    4      0.90      0.00
    3   11    4      0.30      0.00
    5   11    4      0.24      0.00
    7   11    4      1.33      0.00
    9   11    4      1.46      0.00
   11   11    4     -0.10      0.00
  -18   12    4      1.22      0.00
  -16   12    4      0.68      0.00
  -14   12    4      0.10      0.00
  -12   12    4     -0.43      0.00
  -10   12    4     -1.00      0.00
   -8   12    4     -0.83      0.00
   -6   12    4      0.26      0.00
   -4   12    4      1.05      0.00
   -2   12    4      0.64      0.00
    0   12    4     -0.03      0.00
    2   12    4      0.31      0.00
    4   12    4      0.62      0.00
    6   12    4     -0.86      0.00
    8   12    4     -2.55      0.00
   10   12    4     -1.74      0.00
  -19   13    4     -1.46      0.00
  -17   13    4     -1.38      0.00
  -15   13    4     -0.30      0.00
  -13   13    4      0.81      0.00
  -11   13    4      1.46      0.00
   -9   13    4      1.35      0.00
   -7   13    4      0.14      0.00
   -5   13    4     -1.34      0.00
   -3   13    4     -1.65      0.00
   -1   13    4     -0.94      0.00
    1   13    4     -0.93      0.00
    3   13    4     -1.57      0.00
    5   13    4     -0.50      0.00
    7   13    4      2.33      0.00
    9   13    4      3.35      0.00
   11   13    4      1.42      0.00
  -18   14    4      1.77      0.00
  -16   14    4      0.98      0.00
  -14   14    4     -0.74      0.00
  -12   14    4     -1.85      0.00
  -10   14    4     -1.80      0.00
   -8   14    4     -0.64      0.00
   -6   14    4      1.15      0.00
   -4   14    4      2.20      0.00
   -2   14    4      1.76      0.00
    0   14    4      1.33      0.00
    2   14    4      2.08      0.00
    4   14    4      1.96      0.00
    6   14    4     -0.88      0.00
    8   14    4     -3.76      0.00
   10   14    4     -3.24      0.00
  -17   15    4     -1.54      0.00
  -15   15    4      0.19      0.00
  -13   15    4      1.97      0.00
  -11   15    4      2.17      0.00
   -9   15    4      1.04      0.00
   -7   15    4     -0.76      0.00
   -5   15    4     -2.26      0.00
   -3   15    4     -2.29      0.00
   -1   15    4     -1.50      0.00
    1   15    4     -1.87      0.00
    3   15    4     -2.66      0.00
    5   15    4     -0.94      0.00
    7   15    4      2.75      0.00
    9   15    4      4.23      0.00
  -16   16    4      0.46      0.00
  -14   16    4     -1.70      0.00
  -12   16    4     -2.45      0.00
  -10   16    4     -1.31      0.00
   -8   16    4      0.44      0.00
   -6   16    4      2.02      0.00
   -4   16    4      2.51      0.00
   -2   16    4      1.59      0.00
    0   16    4      1.16      0.00
    2   16    4      2.19      0.00
    4   16    4      2.05      0.00
    6   16    4     -1.01      0.00
    8   16    4     -3.94      0.00
   10   16    4     -3.55      0.00
  -17   17    4     -0.74      0.00
  -15   17    4      1.18      0.00
  -13   17    4      2.56      0.00
  -11   17    4      1.61      0.00
   -9   17    4     -0.30      0.00
   -7   17    4     -1.78      0.00
   -5   17    4     -2.43      0.00
   -3   17    4     -1.69      0.00
   -1   17    4     -0.47      0.00
    1   17    4     -0.84      0.00
    3   17    4     -1.81      0.00
    5   17    4     -0.37      0.00
    7   17    4      2.72      0.00
    9   17    4      3.81      0.00
  -16   18    4     -0.68      0.00
  -14   18    4     -2.44      0.00
  -12   18    4     -2.02      0.00
  -10   18    4      0.13      0.00
   -8   18    4      1.71      0.00
   -6   18    4      2.25      0.00
   -4   18    4      1.72      0.00
   -2   18    4      0.14      0.00
    0   18    4     -0.62      0.00
    2   18    4      0.38      0.00
    4   18    4      0.61      0.00
    6   18    4     -1.45      0.00
    8   18    4     -3.25      0.00
  -15   19    4      2.06      0.00
  -13   19    4      2.41      0.00
  -11   19    4      0.35      0.00
   -9   19    4     -1.71      0.00
   -7   19    4     -2.20      0.00
   -5   19    4     -1.65      0.00
   -3   19    4     -0.14      0.00
   -1   19    4      1.50      0.00
    1   19    4      1.40      0.00
    3   19    4      0.36      0.00
    5   19    4      0.88      0.00
    7   19    4      2.42      0.00
  -14   20    4     -2.50      0.00
  -12   20    4     -1.11      0.00
  -10   20    4      1.40      0.00
   -8   20    4      2.32      0.00
   -6   20    4      1.64      0.00
   -4   20    4      0.23      0.00
   -2   20    4     -1.68      0.00
    0   20    4     -2.65      0.00
    2   20    4     -1.86      0.00
    4   20    4     -1.21      0.00
    6   20    4     -1.85      0.00
  -13   21    4      1.75      0.00
  -11   21    4     -0.56      0.00
   -9   21    4     -2.25      0.00
   -7   21    4     -1.84      0.00
   -5   21    4     -0.38      0.00
   -3   21    4      1.44      0.00
   -1   21    4      3.01      0.00
    1   21    4      3.06      0.00
    3   21    4      2.07      0.00
    5   21    4      1.76      0.00
  -12   22    4     -0.44      0.00
  -10   22    4      1.63      0.00
   -8   22    4      2.02      0.00
   -6   22    4      0.70      0.00
   -4   22    4     -1.06      0.00
   -2   22    4     -2.71      0.00
    0   22    4     -3.46      0.00
    2   22    4     -2.83      0.00
    4   22    4     -2.00      0.00
  -11   23    4     -0.56      0.00
   -9   23    4     -1.76      0.00
   -7   23    4     -1.12      0.00
   -5   23    4      0.54      0.00
   -3   23    4      2.14      0.00
   -1   23    4      3.15      0.00
    1   23    4      3.06      0.00
    3   23    4      2.24      0.00
  -10   24    4      0.92      0.00
   -8   24    4      1.26      0.00
   -6   24    4      0.10      0.00
   -4   24    4     -1.46      0.00
   -2   24    4     -2.52      0.00
    0   24    4     -2.77      0.00
    2   24    4     -2.23      0.00
   -9   25    4     -0.83      0.00
   -7   25    4     -0.59      0.00
   -5   25    4      0.71      0.00
   -3   25    4      1.81      0.00
   -1   25    4      2.20      0.00
    1   25    4      1.95      0.00
   -4   26    4     -1.11      0.00
  -21    1    5      0.19      0.00
  -19    1    5      0.26      0.00
  -17    1    5      0.19      0.00
  -15    1    5     -0.11      0.00
  -13    1    5     -0.34      0.00
  -11    1    5     -0.39      0.00
   -9    1    5     -0.43      0.00
   -7    1    5     -0.48      0.00
   -5    1    5     -0.44      0.00
   -3    1    5     -0.34      0.00
   -1    1    5     -0.19      0.00
    1    1    5     -0.05      0.00
    3    1    5     -0.02      0.00
    5    1    5     -0.18      0.00
    7    1    5     -0.46      0.00
    9    1    5     -0.61      0.00
   11    1    5     -0.45      0.00
  -20    2    5     -0.44      0.00
  -18    2    5     -0.53      0.00
  -16    2    5     -0.13      0.00
  -14    2    5      0.50      0.00
  -12    2    5      0.75      0.00
  -10    2    5      0.75      0.00
   -8    2    5      0.80      0.00
   -6    2    5      0.82      0.00
   -4    2    5      0.72      0.00
   -2    2    5      0.51      0.00
    0    2    5      0.21      0.00
    2    2    5      0.01      0.00
    4    2    5      0.14      0.00
    6    2    5      0.53      0.00
    8    2    5      0.95      0.00
   10    2    5      1.00      0.00
  -21    3    5      0.48      0.00
  -19    3    5      0.78      0.00
  -17    3    5      0.62      0.00
  -15    3    5     -0.27      0.00
  -13    3    5     -0.99      0.00
  -11    3    5     -1.04      0.00
   -9    3    5     -0.93      0.00
   -7    3    5     -0.94      0.00
   -5    3    5     -0.95      0.00
   -3    3    5     -0.84      0.00
   -1    3    5     -0.51      0.00
    1    3    5     -0.11      0.00
    3    3    5     -0.03      0.00
    5    3    5     -0.31      0.00
    7    3    5     -0.79      0.00
    9    3    5     -1.17      0.00
   11    3    5     -0.97      0.00
  -20    4    5     -0.80      0.00
  -18    4    5     -1.05      0.00
  -16    4    5     -0.33      0.00
  -14    4    5      0.88      0.00
  -12    4    5      1.33      0.00
  -10    4    5      1.04      0.00
   -8    4    5      0.80      0.00
   -6    4    5      0.85      0.00
   -4    4    5      0.97      0.00
   -2    4    5      0.84      0.00
    0    4    5      0.37      0.00
    2    4    5      0.03      0.00
    4    4    5      0.08      0.00
    6    4    5      0.33      0.00
    8    4    5      0.73      0.00
   10    4    5      1.01      0.00
  -21    5    5      0.62      0.00
  -19    5    5      1.16      0.00
  -17    5    5      0.97      0.00
  -15    5    5     -0.33      0.00
  -13    5    5     -1.37      0.00
  -11    5    5     -1.24      0.00
   -9    5    5     -0.64      0.00
   -7    5    5     -0.44      0.00
   -5    5    5     -0.73      0.00
   -3    5    5     -1.00      0.00
   -1    5    5     -0.73      0.00
    1    5    5     -0.21      0.00
    3    5    5      0.01      0.00
    5    5    5      0.07      0.00
    7    5    5      0.04      0.00
    9    5    5     -0.35      0.00
   11    5    5     -0.69      0.00
  -20    6    5     -0.93      0.00
  -18    6    5     -1.26      0.00
  -16    6    5     -0.40      0.00
  -14    6    5      0.99      0.00
  -12    6    5      1.37      0.00
  -10    6    5      0.65      0.00
   -8    6    5     -0.01      0.00
   -6    6    5      0.14      0.00
   -4    6    5      0.79      0.00
   -2    6    5      1.00      0.00
    0    6    5      0.57      0.00
    2    6    5      0.13      0.00
    4    6    5     -0.17      0.00
    6    6    5     -0.63      0.00
    8    6    5     -0.71      0.00
   10    6    5     -0.05      0.00
  -21    7    5      0.57      0.00
  -19    7    5      1.10      0.00
  -17    7    5      0.85      0.00
  -15    7    5     -0.34      0.00
  -13    7    5     -1.18      0.00
  -11    7    5     -0.75      0.00
   -9    7    5      0.23      0.00
   -7    7    5      0.52      0.00
   -5    7    5     -0.19      0.00
   -3    7    5     -0.97      0.00
   -1    7    5     -0.95      0.00
    1    7    5     -0.47      0.00
    3    7    5     -0.03      0.00
    5    7    5      0.71      0.00
    7    7    5      1.52      0.00
    9    7    5      1.27      0.00
   11    7    5      0.18      0.00
  -20    8    5     -0.72      0.00
  -18    8    5     -0.80      0.00
  -16    8    5     -0.12      0.00
  -14    8    5      0.70      0.00
  -12    8    5      0.68      0.00
  -10    8    5     -0.22      0.00
   -8    8    5     -0.94      0.00
   -6    8    5     -0.54      0.00
   -4    8    5      0.55      0.00
   -2    8    5      1.11      0.00
    0    8    5      0.88      0.00
    2    8    5      0.43      0.00
    4    8    5     -0.34      0.00
    6    8    5     -1.62      0.00
    8    8    5     -2.25      0.00
   10    8    5     -1.34      0.00
  -19    9    5      0.47      0.00
  -17    9    5      0.10      0.00
  -15    9    5     -0.32      0.00
  -13    9    5     -0.36      0.00
  -11    9    5      0.21      0.00
   -9    9    5      1.02      0.00
   -7    9    5      1.08      0.00
   -5    9    5      0.09      0.00
   -3    9    5     -0.93      0.00
   -1    9    5     -1.15      0.00
    1    9    5     -0.88      0.00
    3    9    5     -0.25      0.00
    5    9    5      1.08      0.00
    7    9    5      2.43      0.00
    9    9    5      2.36      0.00
  -20   10    5     -0.22      0.00
  -18   10    5      0.21      0.00
  -16   10    5      0.38      0.00
  -14   10    5      0.06      0.00
  -12   10    5     -0.39      0.00
  -10   10    5     -0.94      0.00
   -8   10    5     -1.25      0.00
   -6   10    5     -0.64      0.00
   -4   10    5      0.47      0.00
   -2   10    5      1.11      0.00
    0   10    5      1.17      0.00
    2   10    5      0.83      0.00
    4   10    5     -0.24      0.00
    6   10    5     -1.83      0.00
    8   10    5     -2.62      0.00
   10   10    5     -1.84      0.00
  -19   11    5     -0.41      0.00
  -17   11    5     -0.76      0.00
  -15   11    5     -0.11      0.00
  -13   11    5      0.63      0.00
  -11   11    5      0.92      0.00
   -9   11    5      1.12      0.00
   -7   11    5      0.91      0.00
   -5   11    5      0.03      0.00
   -3   11    5     -0.78      0.00
   -1   11    5     -1.14      0.00
    1   11    5     -1.19      0.00
    3   11    5     -0.54      0.00
    5   11    5      0.87      0.00
    7   11    5      2.07      0.00
    9   11    5      2.09      0.00
  -18   12    5      1.05      0.00
  -16   12    5      0.51      0.00
  -14   12    5     -0.69      0.00
  -12   12    5     -1.02      0.00
  -10   12    5     -0.87      0.00
   -8   12    5     -0.83      0.00
   -6   12    5     -0.39      0.00
   -4   12    5      0.30      0.00
   -2   12    5      0.77      0.00
    0   12    5      1.15      0.00
    2   12    5      1.06      0.00
    4   12    5      0.02      0.00
    6   12    5     -1.19      0.00
    8   12    5     -1.63      0.00
  -19   13    5     -0.98      0.00
  -17   13    5     -0.92      0.00
  -15   13    5      0.47      0.00
  -13   13    5      1.16      0.00
  -11   13    5      0.68      0.00
   -9   13    5      0.45      0.00
   -7   13    5      0.46      0.00
   -5   13    5      0.14      0.00
   -3   13    5     -0.22      0.00
   -1   13    5     -0.69      0.00
    1   13    5     -1.12      0.00
    3   13    5     -0.64      0.00
    5   13    5      0.44      0.00
    7   13    5      0.93      0.00
    9   13    5      0.86      0.00
  -18   14    5      1.05      0.00
  -16   14    5     -0.13      0.00
  -14   14    5     -1.26      0.00
  -12   14    5     -0.68      0.00
  -10   14    5      0.08      0.00
   -8   14    5     -0.15      0.00
   -6   14    5     -0.43      0.00
   -4   14    5     -0.36      0.00
   -2   14    5     -0.03      0.00
    0   14    5      0.69      0.00
    2   14    5      0.89      0.00
    4   14    5      0.05      0.00
    6   14    5     -0.50      0.00
    8   14    5     -0.30      0.00
  -17   15    5     -0.13      0.00
  -15   15    5      1.29      0.00
  -13   15    5      0.96      0.00
  -11   15    5     -0.45      0.00
   -9   15    5     -0.55      0.00
   -7   15    5      0.34      0.00
   -5   15    5      0.85      0.00
   -3   15    5      0.82      0.00
   -1   15    5      0.13      0.00
    1   15    5     -0.68      0.00
    3   15    5     -0.33      0.00
    5   15    5      0.42      0.00
    7   15    5      0.16      0.00
  -16   16    5     -1.20      0.00
  -14   16    5     -1.43      0.00
  -12   16    5      0.34      0.00
  -10   16    5      1.34      0.00
   -8   16    5      0.30      0.00
   -6   16    5     -1.03      0.00
   -4   16    5     -1.53      0.00
   -2   16    5     -1.11      0.00
    0   16    5      0.03      0.00
    2   16    5      0.40      0.00
    4   16    5     -0.42      0.00
    6   16    5     -0.56      0.00
    8   16    5      0.24      0.00
  -17   17    5      0.94      0.00
  -15   17    5      1.82      0.00
  -13   17    5      0.31      0.00
  -11   17    5     -1.68      0.00
   -9   17    5     -1.31      0.00
   -7   17    5      0.61      0.00
   -5   17    5      1.96      0.00
   -3   17    5      2.05      0.00
   -1   17    5      0.94      0.00
    1   17    5     -0.15      0.00
    3   17    5      0.29      0.00
    5   17    5      1.06      0.00
    7   17    5      0.39      0.00
  -16   18    5     -1.81      0.00
  -14   18    5     -1.14      0.00
  -12   18    5      1.24      0.00
  -10   18    5      2.13      0.00
   -8   18    5      0.41      0.00
   -6   18    5     -1.78      0.00
   -4   18    5     -2.72      0.00
   -2   18    5     -2.02      0.00
    0   18    5     -0.48      0.00
    2   18    5     -0.12      0.00
    4   18    5     -1.18      0.00
    6   18    5     -1.30      0.00
  -15   19    5      1.59      0.00
  -13   19    5     -0.30      0.00
  -11   19    5     -2.18      0.00
   -9   19    5     -1.55      0.00
   -7   19    5      0.87      0.00
   -5   19    5      2.79      0.00
   -3   19    5      2.92      0.00
   -1   19    5      1.44      0.00
    1   19    5      0.21      0.00
    3   19    5      0.85      0.00
    5   19    5      1.82      0.00
  -14   20    5     -0.50      0.00
  -12   20    5      1.48      0.00
  -10   20    5      2.11      0.00
   -8   20    5      0.42      0.00
   -6   20    5     -2.06      0.00
   -4   20    5     -3.28      0.00
   -2   20    5     -2.43      0.00
    0   20    5     -0.73      0.00
    2   20    5     -0.45      0.00
    4   20    5     -1.63      0.00
  -13   21    5     -0.63      0.00
  -11   21    5     -1.84      0.00
   -9   21    5     -1.37      0.00
   -7   21    5      0.76      0.00
   -5   21    5      2.81      0.00
   -3   21    5      3.05      0.00
   -1   21    5      1.57      0.00
    1   21    5      0.42      0.00
    3   21    5      1.03      0.00
  -12   22    5      1.17      0.00
  -10   22    5      1.56      0.00
   -8   22    5      0.46      0.00
   -6   22    5     -1.66      0.00
   -4   22    5     -2.93      0.00
   -2   22    5     -2.28      0.00
    0   22    5     -0.87      0.00
    2   22    5     -0.61      0.00
  -11   23    5     -1.17      0.00
   -9   23    5     -1.03      0.00
   -7   23    5      0.36      0.00
   -5   23    5      2.08      0.00
   -3   23    5      2.44      0.00
   -1   23    5      1.46      0.00
    1   23    5      0.67      0.00
   -8   24    5      0.48      0.00
   -6   24    5     -0.91      0.00
   -4   24    5     -1.94      0.00
   -2   24    5     -1.70      0.00
  -20    0    6      0.35      0.00
  -18    0    6     -0.85      0.00
  -16    0    6     -0.90      0.00
  -14    0    6     -0.42      0.00
  -12    0    6     -0.96      0.00
  -10    0    6     -1.44      0.00
   -8    0    6     -0.78      0.00
   -6    0    6     -0.28      0.00
   -4    0    6     -0.90      0.00
   -2    0    6     -1.68      0.00
    0    0    6     -1.40      0.00
    2    0    6      0.63      0.00
    4    0    6      3.79      0.00
    6    0    6      5.31      0.00
    8    0    6      3.28      0.00
  -21    1    6     -0.80      0.00
  -19    1    6      0.21      0.00
  -17    1    6      1.03      0.00
  -15    1    6      0.60      0.00
  -13    1    6      0.55      0.00
  -11    1    6      1.24      0.00
   -9    1    6      1.11      0.00
   -7    1    6      0.35      0.00
   -5    1    6      0.49      0.00
   -3    1    6      1.38      0.00
   -1    1    6      1.72      0.00
    1    1    6      0.58      0.00
    3    1    6     -2.17      0.00
    5    1    6     -4.78      0.00
    7    1    6     -4.44      0.00
    9    1    6     -1.42      0.00
  -20    2    6      0.65      0.00
  -18    2    6     -0.60      0.00
  -16    2    6     -0.87      0.00
  -14    2    6     -0.47      0.00
  -12    2    6     -0.76      0.00
  -10    2    6     -1.03      0.00
   -8    2    6     -0.48      0.00
   -6    2    6     -0.22      0.00
   -4    2    6     -0.97      0.00
   -2    2    6     -1.69      0.00
    0    2    6     -1.28      0.00
    2    2    6      0.68      0.00
    4    2    6      3.38      0.00
    6    2    6      4.41      0.00
    8    2    6      2.46      0.00
  -21    3    6     -1.30      0.00
  -19    3    6     -0.35      0.00
  -17    3    6      0.71      0.00
  -15    3    6      0.70      0.00
  -13    3    6      0.51      0.00
  -11    3    6      0.67      0.00
   -9    3    6      0.42      0.00
   -7    3    6      0.03      0.00
   -5    3    6      0.50      0.00
   -3    3    6      1.43      0.00
   -1    3    6      1.55      0.00
    1    3    6      0.31      0.00
    3    3    6     -1.90      0.00
    5    3    6     -3.47      0.00
    7    3    6     -2.68      0.00
    9    3    6     -0.44      0.00
  -20    4    6      1.30      0.00
  -18    4    6      0.11      0.00
  -16    4    6     -0.73      0.00
  -14    4    6     -0.71      0.00
  -12    4    6     -0.50      0.00
  -10    4    6     -0.22      0.00
   -8    4    6      0.19      0.00
   -6    4    6      0.01      0.00
   -4    4    6     -0.93      0.00
   -2    4    6     -1.49      0.00
    0    4    6     -0.81      0.00
    2    4    6      0.83      0.00
    4    4    6      2.32      0.00
    6    4    6      2.19      0.00
    8    4    6      0.50      0.00
  -21    5    6     -1.70      0.00
  -19    5    6     -1.17      0.00
  -17    5    6      0.10      0.00
  -15    5    6      0.90      0.00
  -13    5    6      0.79      0.00
  -11    5    6      0.23      0.00
   -9    5    6     -0.36      0.00
   -7    5    6     -0.48      0.00
   -5    5    6      0.25      0.00
   -3    5    6      1.10      0.00
   -1    5    6      0.95      0.00
    1    5    6     -0.24      0.00
    3    5    6     -1.45      0.00
    5    5    6     -1.51      0.00
    7    5    6     -0.18      0.00
    9    5    6      0.93      0.00
  -20    6    6      1.74      0.00
  -18    6    6      1.00      0.00
  -16    6    6     -0.48      0.00
  -14    6    6     -1.22      0.00
  -12    6    6     -0.72      0.00
  -10    6    6      0.21      0.00
   -8    6    6      0.75      0.00
   -6    6    6      0.44      0.00
   -4    6    6     -0.44      0.00
   -2    6    6     -0.77      0.00
    0    6    6     -0.01      0.00
    2    6    6      1.00      0.00
    4    6    6      1.08      0.00
    6    6    6     -0.12      0.00
    8    6    6     -1.40      0.00
  -19    7    6     -1.78      0.00
  -17    7    6     -0.59      0.00
  -15    7    6      1.14      0.00
  -13    7    6      1.47      0.00
  -11    7    6      0.44      0.00
   -9    7    6     -0.59      0.00
   -7    7    6     -0.85      0.00
   -5    7    6     -0.30      0.00
   -3    7    6      0.31      0.00
   -1    7    6      0.05      0.00
    1    7    6     -0.78      0.00
    3    7    6     -0.97      0.00
    5    7    6      0.10      0.00
    7    7    6      1.60      0.00
    9    7    6      1.82      0.00
  -20    8    6      1.66      0.00
  -18    8    6      1.64      0.00
  -16    8    6     -0.25      0.00
  -14    8    6     -1.81      0.00
  -12    8    6     -1.39      0.00
  -10    8    6     -0.08      0.00
   -8    8    6      0.74      0.00
   -6    8    6      0.77      0.00
   -4    8    6      0.28      0.00
   -2    8    6      0.08      0.00
    0    8    6      0.60      0.00
    2    8    6      0.96      0.00
    4    8    6      0.24      0.00
    6    8    6     -1.27      0.00
    8    8    6     -2.10      0.00
  -19    9    6     -1.87      0.00
  -17    9    6     -0.97      0.00
  -15    9    6      1.30      0.00
  -13    9    6      2.07      0.00
  -11    9    6      1.02      0.00
   -9    9    6     -0.13      0.00
   -7    9    6     -0.69      0.00
   -5    9    6     -0.68      0.00
   -3    9    6     -0.35      0.00
   -1    9    6     -0.39      0.00
    1    9    6     -0.77      0.00
    3    9    6     -0.57      0.00
    5    9    6      0.55      0.00
    7    9    6      1.68      0.00
  -20   10    6      1.21      0.00
  -18   10    6      1.67      0.00
  -16   10    6     -0.17      0.00
  -14   10    6     -1.99      0.00
  -12   10    6     -1.75      0.00
  -10   10    6     -0.66      0.00
   -8   10    6      0.12      0.00
   -6   10    6      0.57      0.00
   -4   10    6      0.54      0.00
   -2   10    6      0.25      0.00
    0   10    6      0.32      0.00
    2   10    6      0.52      0.00
    4   10    6      0.14      0.00
    6   10    6     -0.74      0.00
    8   10    6     -1.23      0.00
  -19   11    6     -1.47      0.00
  -17   11    6     -0.85      0.00
  -15   11    6      1.18      0.00
  -13   11    6      1.89      0.00
  -11   11    6      1.18      0.00
   -9   11    6      0.53      0.00
   -7   11    6      0.01      0.00
   -5   11    6     -0.39      0.00
   -3   11    6     -0.17      0.00
   -1   11    6      0.21      0.00
    1   11    6      0.02      0.00
    3   11    6     -0.34      0.00
    5   11    6     -0.23      0.00
    7   11    6      0.24      0.00
  -18   12    6      1.18      0.00
  -16   12    6     -0.16      0.00
  -14   12    6     -1.40      0.00
  -12   12    6     -1.21      0.00
  -10   12    6     -0.79      0.00
   -8   12    6     -0.61      0.00
   -6   12    6     -0.14      0.00
   -4   12    6      0.02      0.00
   -2   12    6     -0.56      0.00
    0   12    6     -0.82      0.00
    2   12    6     -0.14      0.00
    4   12    6      0.69      0.00
    6   12    6      0.85      0.00
  -19   13    6     -0.87      0.00
  -17   13    6     -0.49      0.00
  -15   13    6      0.62      0.00
  -13   13    6      0.81      0.00
  -11   13    6      0.52      0.00
   -9   13    6      0.70      0.00
   -7   13    6      0.69      0.00
   -5   13    6      0.32      0.00
   -3   13    6      0.65      0.00
   -1   13    6      1.39      0.00
    1   13    6      1.06      0.00
    3   13    6     -0.37      0.00
    5   13    6     -1.50      0.00
    7   13    6     -1.50      0.00
  -18   14    6      0.61      0.00
  -16   14    6      0.05      0.00
  -14   14    6     -0.25      0.00
  -12   14    6      0.03      0.00
  -10   14    6     -0.17      0.00
   -8   14    6     -0.72      0.00
   -6   14    6     -0.66      0.00
   -4   14    6     -0.63      0.00
   -2   14    6     -1.43      0.00
    0   14    6     -1.81      0.00
    2   14    6     -0.52      0.00
    4   14    6      1.40      0.00
    6   14    6      2.21      0.00
  -17   15    6     -0.38      0.00
  -15   15    6     -0.27      0.00
  -13   15    6     -0.52      0.00
  -11   15    6     -0.60      0.00
   -9   15    6      0.06      0.00
   -7   15    6      0.59      0.00
   -5   15    6      0.54      0.00
   -3   15    6      0.99      0.00
   -1   15    6      1.84      0.00
    1   15    6      1.38      0.00
    3   15    6     -0.65      0.00
    5   15    6     -2.29      0.00
  -16   16    6      0.59      0.00
  -14   16    6      0.87      0.00
  -12   16    6      1.13      0.00
  -10   16    6      0.85      0.00
   -8   16    6      0.12      0.00
   -6   16    6     -0.20      0.00
   -4   16    6     -0.33      0.00
   -2   16    6     -1.10      0.00
    0   16    6     -1.53      0.00
    2   16    6     -0.23      0.00
    4   16    6      1.78      0.00
  -15   17    6     -1.10      0.00
  -13   17    6     -1.34      0.00
  -11   17    6     -1.44      0.00
   -9   17    6     -1.08      0.00
   -7   17    6     -0.54      0.00
   -5   17    6     -0.40      0.00
   -3   17    6     -0.06      0.00
   -1   17    6      0.75      0.00
    1   17    6      0.57      0.00
    3   17    6     -1.02      0.00
  -14   18    6      1.43      0.00
  -12   18    6      1.53      0.00
  -10   18    6      1.69      0.00
   -8   18    6      1.46      0.00
   -6   18    6      1.21      0.00
   -4   18    6      1.19      0.00
   -2   18    6      0.65      0.00
    0   18    6     -0.03      0.00
    2   18    6      0.54      0.00
    4   18    6      1.65      0.00
  -13   19    6     -1.43      0.00
  -11   19    6     -1.68      0.00
   -9   19    6     -2.03      0.00
   -7   19    6     -1.98      0.00
   -5   19    6     -2.06      0.00
   -3   19    6     -2.03      0.00
   -1   19    6     -1.22      0.00
    1   19    6     -0.68      0.00
    3   19    6     -1.20      0.00
  -12   20    6      1.39      0.00
  -10   20    6      1.95      0.00
   -8   20    6      2.37      0.00
   -6   20    6      2.57      0.00
   -4   20    6      2.93      0.00
   -2   20    6      2.58      0.00
    0   20    6      1.46      0.00
    2   20    6      1.04      0.00
  -11   21    6     -1.51      0.00
   -9   21    6     -2.18      0.00
   -7   21    6     -2.62      0.00
   -5   21    6     -3.17      0.00
   -3   21    6     -3.46      0.00
   -1   21    6     -2.49      0.00
  -10   22    6      1.64      0.00
   -8   22    6      2.17      0.00
   -6   22    6      2.80      0.00
   -4   22    6      3.54      0.00
   -2   22    6      3.23      0.00
   -7   23    6     -1.99      0.00
   -5   23    6     -2.88      0.00
  -21    1    7     -0.01      0.00
  -19    1    7     -0.21      0.00
  -17    1    7     -0.20      0.00
  -15    1    7     -0.08      0.00
  -13    1    7     -0.16      0.00
  -11    1    7     -0.37      0.00
   -9    1    7     -0.34      0.00
   -7    1    7      0.04      0.00
   -5    1    7      0.41      0.00
   -3    1    7      0.29      0.00
   -1    1    7     -0.25      0.00
    1    1    7     -0.47      0.00
    3    1    7      0.12      0.00
    5    1    7      1.02      0.00
    7    1    7      1.33      0.00
  -20    2    7      0.21      0.00
  -18    2    7      0.45      0.00
  -16    2    7      0.22      0.00
  -14    2    7      0.09      0.00
  -12    2    7      0.43      0.00
  -10    2    7      0.68      0.00
   -8    2    7      0.31      0.00
   -6    2    7     -0.48      0.00
   -4    2    7     -0.78      0.00
   -2    2    7     -0.04      0.00
    0    2    7      0.85      0.00
    2    2    7      0.49      0.00
    4    2    7     -1.09      0.00
    6    2    7     -2.36      0.00
  -21    3    7      0.03      0.00
  -19    3    7     -0.50      0.00
  -17    3    7     -0.46      0.00
  -15    3    7     -0.02      0.00
  -13    3    7     -0.12      0.00
  -11    3    7     -0.66      0.00
   -9    3    7     -0.69      0.00
   -7    3    7      0.13      0.00
   -5    3    7      0.98      0.00
   -3    3    7      0.64      0.00
   -1    3    7     -0.69      0.00
    1    3    7     -1.17      0.00
    3    3    7      0.31      0.00
    5    3    7      2.45      0.00
    7    3    7      3.12      0.00
  -20    4    7      0.25      0.00
  -18    4    7      0.63      0.00
  -16    4    7      0.15      0.00
  -14    4    7     -0.25      0.00
  -12    4    7      0.19      0.00
  -10    4    7      0.68      0.00
   -8    4    7      0.29      0.00
   -6    4    7     -0.74      0.00
   -4    4    7     -1.07      0.00
   -2    4    7      0.07      0.00
    0    4    7      1.31      0.00
    2    4    7      0.67      0.00
    4    4    7     -1.62      0.00
    6    4    7     -3.27      0.00
  -19    5    7     -0.50      0.00
  -17    5    7     -0.41      0.00
  -15    5    7      0.32      0.00
  -13    5    7      0.39      0.00
  -11    5    7     -0.23      0.00
   -9    5    7     -0.40      0.00
   -7    5    7      0.32      0.00
   -5    5    7      1.07      0.00
   -3    5    7      0.58      0.00
   -1    5    7     -0.84      0.00
    1    5    7     -1.20      0.00
    3    5    7      0.48      0.00
    5    5    7      2.56      0.00
    7    5    7      3.02      0.00
  -20    6    7      0.11      0.00
  -18    6    7      0.50      0.00
  -16    6    7     -0.06      0.00
  -14    6    7     -0.63      0.00
  -12    6    7     -0.34      0.00
  -10    6    7      0.13      0.00
   -8    6    7     -0.10      0.00
   -6    6    7     -0.79      0.00
   -4    6    7     -0.90      0.00
   -2    6    7      0.11      0.00
    0    6    7      1.02      0.00
    2    6    7      0.30      0.00
    4    6    7     -1.50      0.00
    6    6    7     -2.50      0.00
  -19    7    7     -0.25      0.00
  -17    7    7     -0.24      0.00
  -15    7    7      0.40      0.00
  -13    7    7      0.57      0.00
  -11    7    7      0.21      0.00
   -9    7    7      0.16      0.00
   -7    7    7      0.59      0.00
   -5    7    7      0.90      0.00
   -3    7    7      0.46      0.00
   -1    7    7     -0.39      0.00
    1    7    7     -0.41      0.00
    3    7    7      0.72      0.00
    5    7    7      1.69      0.00
  -20    8    7     -0.11      0.00
  -18    8    7      0.22      0.00
  -16    8    7      0.03      0.00
  -14    8    7     -0.29      0.00
  -12    8    7     -0.24      0.00
  -10    8    7     -0.22      0.00
   -8    8    7     -0.55      0.00
   -6    8    7     -0.84      0.00
   -4    8    7     -0.73      0.00
   -2    8    7     -0.25      0.00
    0    8    7     -0.02      0.00
    2    8    7     -0.52      0.00
    4    8    7     -1.14      0.00
    6    8    7     -1.05      0.00
  -19    9    7      0.07      0.00
  -17    9    7     -0.22      0.00
  -15    9    7     -0.23      0.00
  -13    9    7     -0.19      0.00
  -11    9    7     -0.04      0.00
   -9    9    7      0.45      0.00
   -7    9    7      0.87      0.00
   -5    9    7      0.85      0.00
   -3    9    7      0.64      0.00
   -1    9    7      0.57      0.00
    1    9    7      0.80      0.00
    3    9    7      1.06      0.00
    5    9    7      0.79      0.00
  -18   10    7      0.04      0.00
  -16   10    7      0.55      0.00
  -14   10    7      0.79      0.00
  -12   10    7      0.67      0.00
  -10   10    7      0.01      0.00
   -8   10    7     -0.79      0.00
   -6   10    7     -0.99      0.00
   -4   10    7     -0.82      0.00
   -2   10    7     -0.90      0.00
    0   10    7     -1.20      0.00
    2   10    7     -1.32      0.00
    4   10    7     -0.91      0.00
  -19   11    7      0.28      0.00
  -17   11    7     -0.46      0.00
  -15   11    7     -1.18      0.00
  -13   11    7     -1.34      0.00
  -11   11    7     -0.78      0.00
   -9   11    7      0.33      0.00
   -7   11    7      1.04      0.00
   -5   11    7      0.96      0.00
   -3   11    7      0.95      0.00
   -1   11    7      1.37      0.00
    1   11    7      1.60      0.00
    3   11    7      1.24      0.00
    5   11    7      0.42      0.00
  -18   12    7      0.10      0.00
  -16   12    7      1.15      0.00
  -14   12    7      1.69      0.00
  -12   12    7      1.46      0.00
  -10   12    7      0.45      0.00
   -8   12    7     -0.74      0.00
   -6   12    7     -1.09      0.00
   -4   12    7     -0.92      0.00
   -2   12    7     -1.20      0.00
    0   12    7     -1.62      0.00
    2   12    7     -1.47      0.00
    4   12    7     -0.80      0.00
  -17   13    7     -0.82      0.00
  -15   13    7     -1.66      0.00
  -13   13    7     -1.71      0.00
  -11   13    7     -1.09      0.00
   -9   13    7      0.11      0.00
   -7   13    7      0.99      0.00
   -5   13    7      0.95      0.00
   -3   13    7      0.88      0.00
   -1   13    7      1.27      0.00
    1   13    7      1.37      0.00
    3   13    7      0.96      0.00
  -16   14    7      1.41      0.00
  -14   14    7      1.56      0.00
  -12   14    7      1.21      0.00
  -10   14    7      0.45      0.00
   -8   14    7     -0.58      0.00
   -6   14    7     -0.93      0.00
   -4   14    7     -0.64      0.00
   -2   14    7     -0.71      0.00
    0   14    7     -0.93      0.00
    2   14    7     -0.76      0.00
  -17   15    7     -1.11      0.00
  -15   15    7     -1.35      0.00
  -13   15    7     -0.92      0.00
  -11   15    7     -0.52      0.00
   -9   15    7      0.14      0.00
   -7   15    7      0.73      0.00
   -5   15    7      0.53      0.00
   -3   15    7      0.20      0.00
   -1   15    7      0.29      0.00
    1   15    7      0.27      0.00
    3   15    7      0.18      0.00
  -16   16    7      1.26      0.00
  -14   16    7      0.67      0.00
  -12   16    7      0.16      0.00
  -10   16    7     -0.06      0.00
   -8   16    7     -0.46      0.00
   -6   16    7     -0.45      0.00
   -4   16    7      0.09      0.00
   -2   16    7      0.31      0.00
    0   16    7      0.30      0.00
    2   16    7      0.36      0.00
  -15   17    7     -0.72      0.00
  -13   17    7      0.15      0.00
  -11   17    7      0.37      0.00
   -9   17    7      0.41      0.00
   -7   17    7      0.37      0.00
   -5   17    7     -0.19      0.00
   -3   17    7     -0.70      0.00
   -1   17    7     -0.77      0.00
    1   17    7     -0.84      0.00
  -14   18    7     -0.03      0.00
  -12   18    7     -0.63      0.00
  -10   18    7     -0.61      0.00
   -8   18    7     -0.43      0.00
   -6   18    7      0.14      0.00
   -4   18    7      0.87      0.00
   -2   18    7      1.08      0.00
    0   18    7      1.08      0.00
  -13   19    7      0.47      0.00
  -11   19    7      0.76      0.00
   -9   19    7      0.63      0.00
   -7   19    7      0.07      0.00
   -5   19    7     -0.82      0.00
   -3   19    7     -1.23      0.00
   -1   19    7     -1.13      0.00
  -10   20    7     -0.74      0.00
   -8   20    7     -0.40      0.00
   -6   20    7      0.54      0.00
   -4   20    7      1.24      0.00
   -7   21    7     -0.10      0.00
  -20    0    8     -0.17      0.00
  -18    0    8     -1.77      0.00
  -16    0    8     -2.28      0.00
  -14    0    8     -0.64      0.00
  -12    0    8      1.24      0.00
  -10    0    8      1.90      0.00
   -8    0    8      1.30      0.00
   -6    0    8     -0.34      0.00
   -4    0    8     -1.15      0.00
   -2    0    8      0.78      0.00
    0    0    8      3.32      0.00
    2    0    8      3.05      0.00
    4    0    8      0.82      0.00
  -19    1    8      0.86      0.00
  -17    1    8      2.19      0.00
  -15    1    8      1.58      0.00
  -13    1    8     -0.37      0.00
  -11    1    8     -1.61      0.00
   -9    1    8     -1.63      0.00
   -7    1    8     -0.51      0.00
   -5    1    8      0.96      0.00
   -3    1    8      0.49      0.00
   -1    1    8     -2.07      0.00
    1    1    8     -3.31      0.00
    3    1    8     -1.76      0.00
  -20    2    8     -0.06      0.00
  -18    2    8     -1.38      0.00
  -16    2    8     -1.88      0.00
  -14    2    8     -0.57      0.00
  -12    2    8      0.92      0.00
  -10    2    8      1.38      0.00
   -8    2    8      0.94      0.00
   -6    2    8     -0.24      0.00
   -4    2    8     -0.91      0.00
   -2    2    8      0.48      0.00
    0    2    8      2.35      0.00
    2    2    8      2.05      0.00
    4    2    8      0.36      0.00
  -19    3    8      0.41      0.00
  -17    3    8      1.41      0.00
  -15    3    8      1.08      0.00
  -13    3    8     -0.18      0.00
  -11    3    8     -0.83      0.00
   -9    3    8     -0.75      0.00
   -7    3    8     -0.27      0.00
   -5    3    8      0.49      0.00
   -3    3    8      0.40      0.00
   -1    3    8     -0.85      0.00
    1    3    8     -1.38      0.00
    3    3    8     -0.43      0.00
  -20    4    8      0.16      0.00
  -18    4    8     -0.56      0.00
  -16    4    8     -0.95      0.00
  -14    4    8     -0.26      0.00
  -12    4    8      0.36      0.00
  -10    4    8      0.28      0.00
   -8    4    8      0.16      0.00
   -6    4    8      0.02      0.00
   -4    4    8     -0.30      0.00
   -2    4    8     -0.16      0.00
    0    4    8      0.22      0.00
    2    4    8     -0.08      0.00
    4    4    8     -0.52      0.00
  -19    5    8     -0.08      0.00
  -17    5    8      0.40      0.00
  -15    5    8      0.28      0.00
  -13    5    8     -0.21      0.00
  -11    5    8     -0.04      0.00
   -9    5    8      0.30      0.00
   -7    5    8      0.03      0.00
   -5    5    8     -0.20      0.00
   -3    5    8      0.17      0.00
   -1    5    8      0.62      0.00
    1    5    8      0.92      0.00
    3    5    8      0.99      0.00
  -18    6    8      0.10      0.00
  -16    6    8      0.00      0.00
  -14    6    8      0.31      0.00
  -12    6    8      0.24      0.00
  -10    6    8     -0.46      0.00
   -8    6    8     -0.52      0.00
   -6    6    8      0.27      0.00
   -4    6    8      0.40      0.00
   -2    6    8     -0.56      0.00
    0    6    8     -1.50      0.00
    2    6    8     -1.61      0.00
    4    6    8     -0.90      0.00
  -19    7    8     -0.25      0.00
  -17    7    8     -0.26      0.00
  -15    7    8     -0.46      0.00
  -13    7    8     -0.64      0.00
  -11    7    8      0.01      0.00
   -9    7    8      0.78      0.00
   -7    7    8      0.24      0.00
   -5    7    8     -0.72      0.00
   -3    7    8     -0.21      0.00
   -1    7    8      1.32      0.00
    1    7    8      2.03      0.00
    3    7    8      1.39      0.00
  -18    8    8      0.31      0.00
  -16    8    8      0.50      0.00
  -14    8    8      0.85      0.00
  -12    8    8      0.72      0.00
  -10    8    8     -0.33      0.00
   -8    8    8     -0.75      0.00
   -6    8    8      0.32      0.00
   -4    8    8      0.90      0.00
   -2    8    8     -0.40      0.00
    0    8    8     -1.86      0.00
    2    8    8     -1.75      0.00
  -17    9    8     -0.40      0.00
  -15    9    8     -0.73      0.00
  -13    9    8     -1.11      0.00
  -11    9    8     -0.58      0.00
   -9    9    8      0.57      0.00
   -7    9    8      0.40      0.00
   -5    9    8     -0.84      0.00
   -3    9    8     -0.65      0.00
   -1    9    8      1.00      0.00
    1    9    8      1.73      0.00
    3    9    8      0.90      0.00
  -18   10    8      0.24      0.00
  -16   10    8      0.44      0.00
  -14   10    8      0.90      0.00
  -12   10    8      1.20      0.00
  -10   10    8      0.26      0.00
   -8   10    8     -0.69      0.00
   -6   10    8      0.09      0.00
   -4   10    8      1.08      0.00
   -2   10    8      0.20      0.00
    0   10    8     -1.17      0.00
    2   10    8     -1.07      0.00
  -17   11    8     -0.22      0.00
  -15   11    8     -0.36      0.00
  -13   11    8     -1.01      0.00
  -11   11    8     -1.02      0.00
   -9   11    8      0.23      0.00
   -7   11    8      0.64      0.00
   -5   11    8     -0.62      0.00
   -3   11    8     -1.07      0.00
   -1   11    8      0.16      0.00
    1   11    8      0.93      0.00
  -16   12    8     -0.03      0.00
  -14   12    8      0.25      0.00
  -12   12    8      0.98      0.00
  -10   12    8      0.48      0.00
   -8   12    8     -0.76      0.00
   -6   12    8     -0.31      0.00
   -4   12    8      1.09      0.00
   -2   12    8      0.89      0.00
    0   12    8     -0.36      0.00
  -15   13    8      0.42      0.00
  -13   13    8     -0.18      0.00
  -11   13    8     -0.65      0.00
   -9   13    8      0.38      0.00
   -7   13    8      1.01      0.00
   -5   13    8     -0.33      0.00
   -3   13    8     -1.39      0.00
   -1   13    8     -0.53      0.00
    1   13    8      0.48      0.00
  -16   14    8     -0.56      0.00
  -14   14    8     -0.70      0.00
  -12   14    8      0.05      0.00
  -10   14    8     -0.13      0.00
   -8   14    8     -1.19      0.00
   -6   14    8     -0.68      0.00
   -4   14    8      1.08      0.00
   -2   14    8      1.30      0.00
    0   14    8      0.00      0.00
  -15   15    8      1.04      0.00
  -13   15    8      0.79      0.00
  -11   15    8      0.39      0.00
   -9   15    8      1.12      0.00
   -7   15    8      1.42      0.00
   -5   15    8     -0.16      0.00
   -3   15    8     -1.50      0.00
   -1   15    8     -0.71      0.00
  -14   16    8     -1.23      0.00
  -12   16    8     -0.92      0.00
  -10   16    8     -1.16      0.00
   -8   16    8     -1.77      0.00
   -6   16    8     -0.87      0.00
   -4   16    8      1.01      0.00
   -2   16    8      1.24      0.00
  -11   17    8      1.29      0.00
   -9   17    8      1.87      0.00
   -7   17    8      1.65      0.00
   -5   17    8     -0.08      0.00
   -3   17    8     -1.26      0.00
  -10   18    8     -1.77      0.00
   -8   18    8     -2.00      0.00
   -6   18    8     -0.87      0.00
  -17    1    9     -0.16      0.00
  -15    1    9     -0.26      0.00
  -13    1    9     -0.16      0.00
  -11    1    9      0.14      0.00
   -9    1    9      0.32      0.00
   -7    1    9      0.00      0.00
   -5    1    9     -0.55      0.00
   -3    1    9     -0.74      0.00
   -1    1    9     -0.54      0.00
    1    1    9     -0.32      0.00
  -18    2    9      0.13      0.00
  -16    2    9      0.50      0.00
  -14    2    9      0.54      0.00
  -12    2    9      0.15      0.00
  -10    2    9     -0.44      0.00
   -8    2    9     -0.43      0.00
   -6    2    9      0.46      0.00
   -4    2    9      1.27      0.00
   -2    2    9      1.25      0.00
    0    2    9      0.81      0.00
  -17    3    9     -0.56      0.00
  -15    3    9     -0.92      0.00
  -13    3    9     -0.75      0.00
  -11    3    9      0.01      0.00
   -9    3    9      0.68      0.00
   -7    3    9      0.18      0.00
   -5    3    9     -1.12      0.00
   -3    3    9     -1.75      0.00
   -1    3    9     -1.42      0.00
    1    3    9     -0.90      0.00
  -18    4    9      0.37      0.00
  -16    4    9      1.10      0.00
  -14    4    9      1.35      0.00
  -12    4    9      0.86      0.00
  -10    4    9     -0.24      0.00
   -8    4    9     -0.73      0.00
   -6    4    9      0.27      0.00
   -4    4    9      1.59      0.00
   -2    4    9      1.88      0.00
    0    4    9      1.41      0.00
  -17    5    9     -0.96      0.00
  -15    5    9     -1.63      0.00
  -13    5    9     -1.70      0.00
  -11    5    9     -0.81      0.00
   -9    5    9      0.51      0.00
   -7    5    9      0.66      0.00
   -5    5    9     -0.64      0.00
   -3    5    9     -1.77      0.00
   -1    5    9     -1.85      0.00
  -18    6    9      0.54      0.00
  -16    6    9      1.48      0.00
  -14    6    9      2.05      0.00
  -12    6    9      1.89      0.00
  -10    6    9      0.55      0.00
   -8    6    9     -0.87      0.00
   -6    6    9     -0.62      0.00
   -4    6    9      0.87      0.00
   -2    6    9      1.85      0.00
    0    6    9      1.77      0.00
  -17    7    9     -0.99      0.00
  -15    7    9     -1.79      0.00
  -13    7    9     -2.33      0.00
  -11    7    9     -1.82      0.00
   -9    7    9      0.05      0.00
   -7    7    9      1.35      0.00
   -5    7    9      0.54      0.00
   -3    7    9     -1.15      0.00
   -1    7    9     -1.94      0.00
  -16    8    9      1.17      0.00
  -14    8    9      1.95      0.00
  -12    8    9      2.44      0.00
  -10    8    9      1.30      0.00
   -8    8    9     -0.97      0.00
   -6    8    9     -1.72      0.00
   -4    8    9     -0.18      0.00
   -2    8    9      1.56      0.00
  -15    9    9     -1.12      0.00
  -13    9    9     -2.07      0.00
  -11    9    9     -2.22      0.00
   -9    9    9     -0.25      0.00
   -7    9    9      1.94      0.00
   -5    9    9      1.60      0.00
   -3    9    9     -0.54      0.00
   -1    9    9     -1.86      0.00
  -16   10    9      0.33      0.00
  -14   10    9      1.08      0.00
  -12   10    9      2.10      0.00
  -10   10    9      1.43      0.00
   -8   10    9     -1.12      0.00
   -6   10    9     -2.40      0.00
   -4   10    9     -0.84      0.00
   -2   10    9      1.27      0.00
  -15   11    9     -0.15      0.00
  -13   11    9     -1.19      0.00
  -11   11    9     -1.78      0.00
   -9   11    9     -0.11      0.00
   -7   11    9      2.19      0.00
   -5   11    9      2.00      0.00
   -3   11    9     -0.20      0.00
  -14   12    9      0.22      0.00
  -12   12    9      1.26      0.00
  -10   12    9      0.91      0.00
   -8   12    9     -1.25      0.00
   -6   12    9     -2.41      0.00
   -4   12    9     -0.98      0.00
  -13   13    9     -0.49      0.00
  -11   13    9     -0.95      0.00
   -9   13    9      0.28      0.00
   -7   13    9      1.99      0.00
   -5   13    9      1.76      0.00
  -12   14    9      0.58      0.00
  -10   14    9      0.21      0.00
   -8   14    9     -1.20      0.00
   -6   14    9     -1.84      0.00
  -16    0   10      0.09      0.00
  -14    0   10     -0.20      0.00
  -12    0   10     -1.11      0.00
  -10    0   10     -2.11      0.00
   -8    0   10     -1.77      0.00
   -6    0   10     -1.02      0.00
   -4    0   10     -1.31      0.00
  -15    1   10      0.08      0.00
  -13    1   10      0.51      0.00
  -11    1   10      1.55      0.00
   -9    1   10      1.93      0.00
   -7    1   10      1.17      0.00
   -5    1   10      0.94      0.00
  -16    2   10     -0.15      0.00
  -14    2   10     -0.25      0.00
  -12    2   10     -0.72      0.00
  -10    2   10     -1.40      0.00
   -8    2   10     -1.14      0.00
   -6    2   10     -0.57      0.00
   -4    2   10     -0.82      0.00
  -15    3   10      0.41      0.00
  -13    3   10      0.26      0.00
  -11    3   10      0.51      0.00
   -9    3   10      0.67      0.00
   -7    3   10      0.27      0.00
   -5    3   10      0.18      0.00
  -14    4   10     -0.44      0.00
  -12    4   10      0.07      0.00
  -10    4   10      0.12      0.00
   -8    4   10      0.15      0.00
   -6    4   10      0.29      0.00
   -4    4   10      0.17      0.00
  -15    5   10      0.91      0.00
  -13    5   10      0.10      0.00
  -11    5   10     -0.68      0.00
   -9    5   10     -0.74      0.00
   -7    5   10     -0.61      0.00
   -5    5   10     -0.58      0.00
  -14    6   10     -0.77      0.00
  -12    6   10      0.54      0.00
  -10    6   10      1.20      0.00
   -8    6   10      0.95      0.00
   -6    6   10      0.72      0.00
  -13    7   10      0.26      0.00
  -11    7   10     -1.11      0.00
   -9    7   10     -1.24      0.00
   -7    7   10     -0.76      0.00
  -12    8   10      0.36      0.00
  -10    8   10      1.21      0.00
   -8    8   10      0.82      0.00
  -11    9   10     -0.68      0.00
   -9    9   10     -0.81      0.00
    2    0    0     37.99      0.00
    1    1    0    -44.80      0.00
    0    2    0     41.88      0.00
   19    5    0     -0.54      0.00
   18   10    0      0.55      0.00
   16   16    0     -1.55      0.00
   13   21    0      0.87      0.00
   12   22    0     -0.33      0.00
    9   25    0     -0.87      0.00
   -1    1    1      1.94      0.00
  -20    4    1     -1.02      0.00
   18    4    1      0.15      0.00
   -2   28    1      0.49      0.00
    0   28    1      0.21      0.00
   17    1    2      2.14      0.00
  -20    8    2      1.47      0.00
  -17   17    2      1.25      0.00
   13   17    2      0.15      0.00
   15    7    3      0.82      0.00
  -18   16    3     -0.55      0.00
   12   16    3     -2.53      0.00
    8   22    3      1.33      0.00
    7   23    3     -0.95      0.00
   -8   26    3      1.22      0.00
   -5   27    3     -0.29      0.00
   -1   27    3      0.16      0.00
   14    0    4      2.60      0.00
   14    2    4      1.96      0.00
   12   12    4      0.24      0.00
  -18   16    4      1.44      0.00
   -6   26    4     -0.01      0.00
   -2   26    4     -1.60      0.00
   12    2    5      0.49      0.00
   12    4    5      0.68      0.00
   11    9    5      0.96      0.00
   10   12    5     -1.29      0.00
  -18   16    5      0.27      0.00
    0   24    5     -1.01      0.00
   -5   25    5      1.07      0.00
   10    0    6      0.12      0.00
   10    2    6     -0.07      0.00
  -21    7    6     -1.49      0.00
    5   17    6     -2.15      0.00
  -16   18    6      1.15      0.00
  -15   19    6     -1.47      0.00
  -14   20    6      1.40      0.00
  -13   21    6     -1.21      0.00
    1   21    6     -1.25      0.00
   -9   23    6     -1.49      0.00
   -3   23    6     -3.29      0.00
  -21    5    7      0.14      0.00
    7    7    7      1.58      0.00
    6   10    7     -0.14      0.00
    4   14    7     -0.51      0.00
  -12   20    7     -0.53      0.00
   -2   20    7      1.12      0.00
   -9   21    7      0.62      0.00
   -5   21    7     -1.03      0.00
    5    1    8      0.08      0.00
  -20    6    8      0.24      0.00
  -19    9    8     -0.17      0.00
    2   12    8     -0.58      0.00
  -17   13    8      0.05      0.00
  -13   17    8      1.20      0.00
   -4   18    8      0.73      0.00
  -19    1    9      0.06      0.00
  -19    3    9      0.09      0.00
    1    5    9     -1.34      0.00
    0    8    9      1.89      0.00
  -17    9    9     -0.51      0.00
  -11   15    9     -0.29      0.00
   -9   15    9      0.54      0.00
   -7   15    9      1.39      0.00
   -3    1   10      1.40      0.00
  -16    4   10     -0.68      0.00
   -5    7   10     -0.73      0.00
  -14    8   10     -1.08      0.00
   -6    8   10      0.54      0.00
   -7    9   10     -0.38      0.00
  -10   10   10      0.53      0.00
    0    0    0      0.00      0.00
loop_
  _platon_squeeze_void_nr
  _platon_squeeze_void_average_x
  _platon_squeeze_void_average_y
  _platon_squeeze_void_average_z
  _platon_squeeze_void_volume
  _platon_squeeze_void_count_electrons
  _platon_squeeze_void_content
   1  0.000  0.500 -0.015       130        20 ' '
   2  0.500  1.000  0.009       130        20 ' '
loop_
  _platon_missing_refln_index_h
  _platon_missing_refln_index_k
  _platon_missing_refln_index_l
  _platon_missing_refln_theta
    2    0    0     2.641
    1    1    0     1.599
    0    2    0     1.804
   -1    1    1     2.556
_platon_squeeze_void_probe_radius                  1.20
_platon_squeeze_details
)
TITL shelx     C 1 2/c 1    R = 0.05
CELL   17.5398   22.5802    8.5187     90.00    118.43     90.00
SPGR C2/c
Q101 0.551 0.268 0.372 !       1.96 eA-3
Q102 0.140 0.360 0.120 !       1.95 eA-3
Q103 0.263 0.236 0.281 !       1.44 eA-3
Q104 0.550 0.065 0.253 !       1.40 eA-3
Q105 0.066 0.345 0.183 !       1.20 eA-3
C106 1.000 0.469 0.238 !       1.18 eA-3
Q107 0.142 0.342 0.249 !       1.10 eA-3
Q108 0.581 0.178 0.221 !       1.07 eA-3
Q109 0.318 0.295 0.370 !       1.04 eA-3
Q110 0.370 0.235 0.470 !       1.03 eA-3
C111 0.957 0.474 0.060 !       1.02 eA-3
Q112 0.395 0.155 0.337 !       1.00 eA-3
Q113 0.626 0.108 0.497 !       0.96 eA-3
Q114 0.796 0.237 0.311 !       0.93 eA-3
Q115 0.921 0.357 0.904 !       0.93 eA-3
C116 0.475 0.019 0.492 !       0.93 eA-3
Q117 0.630 0.107 0.135 !       0.92 eA-3
Q118 0.783 0.167 0.157 !       0.91 eA-3
Q119 0.348 0.185 0.066 !       0.89 eA-3
Q120 0.030 0.336 0.232 !       0.86 eA-3
Q121 0.362 0.164 0.183 !       0.86 eA-3
Q122 0.400 0.148 0.507 !       0.86 eA-3
Q123 0.827 0.274 0.062 !       0.84 eA-3
Q124 0.642 0.131 0.441 !       0.84 eA-3
C125 0.505 0.044 0.190 !       0.83 eA-3
C126 0.495 0.021 0.047 !       0.81 eA-3
Q127 0.796 0.195 0.059 !       0.80 eA-3
Q128 0.232 0.291 0.439 !       0.79 eA-3
Q129 0.314 0.235 0.343 !       0.78 eA-3
Q130 0.535 0.200 0.322 !       0.78 eA-3
Q131 0.325 0.220 0.394 !       0.76 eA-3
C132 0.983 0.452 0.156 !       0.75 eA-3
Q133 0.799 0.377 0.189 !       0.75 eA-3
Q134 0.534 0.053 0.000 !       0.73 eA-3
Q135 0.378 0.314 0.252 !       0.72 eA-3
C136 0.994 0.501 0.153 !       0.72 eA-3
Q137 0.227 0.342 0.067 !       0.71 eA-3
Q138 0.112 0.217 0.343 !       0.71 eA-3
Q139 0.440 0.148 0.066 !       0.69 eA-3
Q140 0.772 0.068 0.168 !       0.68 eA-3
Q141 0.714 0.240 0.084 !       0.67 eA-3
Q142 0.594 0.224 0.276 !       0.67 eA-3
Q143 0.084 0.485 0.244 !       0.66 eA-3
Q144 0.029 0.231 0.505 !       0.66 eA-3
Q145 0.185 0.025 0.474 !       0.66 eA-3
C146 1.000 0.430 0.253 !       0.66 eA-3
Q147 0.463 0.053 0.408 !       0.64 eA-3
Q148 0.094 0.211 0.460 !       0.64 eA-3
Q149 0.985 0.275 0.183 !       0.64 eA-3
Q150 0.861 0.190 0.273 !       0.63 eA-3
Q151 0.249 0.167 0.130 !       0.63 eA-3
Q152 0.164 0.236 0.074 !       0.63 eA-3
C153 0.550 0.027 0.188 !       0.62 eA-3
Q154 1.000 0.149 0.501 !       0.62 eA-3
Q155 0.438 0.206 0.066 !       0.62 eA-3
Q156 0.676 0.178 0.003 !       0.61 eA-3
Q157 0.920 0.200 1.006 !       0.61 eA-3
Q158 0.596 0.068 0.369 !       0.61 eA-3
Q159 0.162 0.402 0.117 !       0.60 eA-3
Q160 0.146 0.130 0.240 !       0.60 eA-3
Q161 0.877 0.250 0.224 !       0.59 eA-3
Q162 0.372 0.241 0.341 !       0.59 eA-3
Q163 0.981 0.367 0.024 !       0.59 eA-3
Q164 0.739 0.167 0.004 !       0.59 eA-3
Q165 0.552 0.491 0.213 !       0.59 eA-3
Q166 0.606 0.036 0.246 !       0.59 eA-3
Q167 0.914 0.375 0.400 !       0.58 eA-3
Q168 0.312 0.439 0.347 !       0.58 eA-3
C169 0.425 0.016 0.233 !       0.58 eA-3
Q170 0.897 0.498 0.088 !       0.57 eA-3
Q171 0.654 0.110 0.261 !       0.57 eA-3
Q172 0.440 0.108 0.116 !       0.57 eA-3
Q173 0.481 0.443 0.320 !       0.57 eA-3
Q174 0.965 0.022 0.380 !       0.56 eA-3
Q175 0.144 0.458 0.276 !       0.56 eA-3
Q176 0.656 0.360 0.436 !       0.56 eA-3
Q177 0.421 0.085 0.403 !       0.56 eA-3
Q178 0.958 0.077 0.310 !       0.55 eA-3
Q179 0.507 0.323 0.379 !       0.55 eA-3
C180 0.500 0.016 0.243 !       0.54 eA-3
Q181 0.689 0.174 0.413 !       0.54 eA-3
Q182 0.096 0.216 0.220 !       0.54 eA-3
Q183 0.271 0.039 0.437 !       0.54 eA-3
Q184 0.013 0.322 0.020 !       0.53 eA-3
Q185 0.800 0.446 0.124 !       0.53 eA-3
Q186 0.861 0.435 0.126 !       0.53 eA-3
Q187 0.737 0.196 0.066 !       0.53 eA-3
Q188 0.031 0.191 0.250 !       0.53 eA-3
Q189 0.453 0.352 0.120 !       0.53 eA-3
Q190 0.160 0.306 0.124 !       0.53 eA-3
Q191 0.467 0.347 0.243 !       0.52 eA-3
Q192 0.032 0.203 0.401 !       0.52 eA-3
Q193 0.707 0.172 0.220 !       0.52 eA-3
Q194 0.146 0.415 0.227 !       0.51 eA-3
Q195 0.795 0.284 0.316 !       0.51 eA-3
Q196 0.830 0.053 0.461 !       0.51 eA-3
Q197 0.970 0.077 0.054 !       0.51 eA-3
Q198 0.857 0.092 0.092 !       0.51 eA-3
Q199 0.281 0.292 0.097 !       0.51 eA-3
)
;
_shelx_fab_checksum              72488
loop_
_space_group_symop_operation_xyz
'x, y, z'
'-x, y, -z+1/2'
'x+1/2, y+1/2, z'
'-x+1/2, y+1/2, -z+1/2'
'-x, -y, -z'
'x, -y, z-1/2'
'-x+1/2, -y+1/2, -z'
'x+1/2, -y+1/2, z-1/2'
loop_
_atom_site_label
_atom_site_type_symbol
_atom_site_fract_x
_atom_site_fract_y
_atom_site_fract_z
_atom_site_U_iso_or_equiv
_atom_site_adp_type
_atom_site_occupancy
_atom_site_site_symmetry_order
_atom_site_calc_flag
_atom_site_refinement_flags_posn
_atom_site_refinement_flags_adp
_atom_site_refinement_flags_occupancy
_atom_site_disorder_assembly
_atom_site_disorder_group
Nd1 Nd 0.81575(2) -0.26329(2) 0.36733(5) 0.03710(17) Uani 1 1 d . . . . .
S1 S 0.84741(11) 0.16141(7) 0.5541(2) 0.0366(4) Uani 1 1 d . . . . .
S2 S 0.64024(13) -0.15794(8) 0.2191(3) 0.0579(6) Uani 1 1 d . . . . .
O1 O 0.8534(3) 0.1907(2) 0.7133(6) 0.0535(13) Uani 1 1 d . . . . .
O2 O 0.9248(3) 0.1697(2) 0.5376(7) 0.0488(12) Uani 1 1 d . . . . .
O3 O 0.7678(3) 0.17876(19) 0.3951(6) 0.0464(12) Uani 1 1 d . . . . .
O4 O 0.6838(3) -0.2030(2) 0.1694(6) 0.0521(13) Uani 1 1 d . . . . .
O5 O 0.5773(4) -0.1250(3) 0.0726(9) 0.086(2) Uani 1 1 d . . . . .
O6 O 0.6028(4) -0.1855(2) 0.3296(8) 0.0667(16) Uani 1 1 d . . . . .
O7 O 0.7861(3) -0.19522(18) 0.5442(6) 0.0396(11) Uani 1 1 d . . . . .
O9 O 0.9682(4) -0.2298(3) 0.5564(7) 0.0697(18) Uani 1 1 d . . . . .
H91 H 0.9574 -0.1979 0.5880 0.104 Uiso 1 1 d R U . . .
H92 H 0.9965 -0.2214 0.4989 0.104 Uiso 1 1 d R U . . .
C1 C 0.8385(5) 0.0851(3) 0.5831(9) 0.0356(15) Uani 1 1 d . . . . .
C2 C 0.9032(5) 0.0592(3) 0.7398(9) 0.0458(18) Uani 1 1 d . . . . .
H2 H 0.9446 0.0829 0.8287 0.055 Uiso 1 1 calc R U . . .
C3 C 0.9056(5) -0.0007(3) 0.7621(10) 0.0485(19) Uani 1 1 d . . . . .
H3 H 0.9481 -0.0173 0.8675 0.058 Uiso 1 1 calc R U . . .
C4 C 0.8446(4) -0.0376(3) 0.6276(9) 0.0373(16) Uani 1 1 d . . . . .
C5 C 0.8485(5) -0.0999(3) 0.6504(9) 0.0419(17) Uani 1 1 d . . . . .
H5 H 0.8932 -0.1168 0.7522 0.050 Uiso 1 1 calc R U . . .
C6 C 0.7866(5) -0.1354(3) 0.5228(9) 0.0382(16) Uani 1 1 d . . . . .
C7 C 0.7196(4) -0.1092(3) 0.3678(9) 0.0402(17) Uani 1 1 d . . . . .
C8 C 0.7162(5) -0.0483(3) 0.3391(10) 0.0436(17) Uani 1 1 d . . . . .
H8 H 0.6732 -0.0321 0.2335 0.052 Uiso 1 1 calc R U . . .
C9 C 0.7783(5) -0.0114(3) 0.4715(9) 0.0377(16) Uani 1 1 d . . . . .
C10 C 0.7773(4) 0.0507(3) 0.4507(9) 0.0383(16) Uani 1 1 d . . . . .
H10 H 0.7351 0.0682 0.3469 0.046 Uiso 1 1 calc R U . . .
O8A O 0.9152(12) -0.2992(9) 0.220(3) 0.052(2) Uani 0.25 1 d . . P A 1
H8A1 H 0.9452 -0.2682 0.2339 0.078 Uiso 0.25 1 d R U P A 1
H8A2 H 0.8776 -0.3015 0.1109 0.078 Uiso 0.25 1 d R U P A 1
O8B O 0.9069(6) -0.3357(4) 0.3157(13) 0.052(2) Uani 0.5 1 d . . P A 2
H8B1 H 0.9226 -0.3667 0.2821 0.078 Uiso 0.5 1 d R U P A 2
H8B2 H 0.9514 -0.3212 0.4038 0.078 Uiso 0.5 1 d R U P A 2
O8C O 0.8836(12) -0.3684(9) 0.426(3) 0.052(2) Uani 0.25 1 d . . P A 3
H8C1 H 0.8470 -0.3890 0.4410 0.078 Uiso 0.25 1 d R U P A 3
H8C2 H 0.9274 -0.3632 0.5276 0.078 Uiso 0.25 1 d R U P A 3
loop_
_atom_site_aniso_label
_atom_site_aniso_U_11
_atom_site_aniso_U_22
_atom_site_aniso_U_33
_atom_site_aniso_U_23
_atom_site_aniso_U_13
_atom_site_aniso_U_12
Nd1 0.0361(3) 0.0350(2) 0.0386(3) -0.00050(17) 0.01650(19) -0.00466(17)
S1 0.0381(10) 0.0286(8) 0.0407(10) -0.0014(7) 0.0168(8) 0.0007(7)
S2 0.0363(11) 0.0382(11) 0.0754(14) -0.0063(10) 0.0073(11) -0.0029(9)
O1 0.053(3) 0.052(3) 0.044(3) -0.011(2) 0.013(3) 0.009(2)
O2 0.048(3) 0.040(3) 0.063(3) -0.002(2) 0.030(3) -0.007(2)
O3 0.044(3) 0.034(3) 0.045(3) 0.002(2) 0.009(3) -0.001(2)
O4 0.043(3) 0.045(3) 0.050(3) -0.006(2) 0.007(3) 0.007(2)
O5 0.065(4) 0.051(3) 0.084(4) 0.000(3) -0.012(3) -0.003(3)
O6 0.049(4) 0.055(3) 0.102(5) 0.012(3) 0.040(3) -0.008(3)
O7 0.051(3) 0.026(2) 0.048(3) -0.002(2) 0.029(2) -0.008(2)
O9 0.056(4) 0.102(5) 0.051(3) 0.005(3) 0.026(3) -0.030(3)
C1 0.049(4) 0.028(3) 0.036(4) 0.003(3) 0.025(3) 0.000(3)
C2 0.045(5) 0.037(4) 0.041(4) -0.003(3) 0.010(4) -0.004(3)
C3 0.052(5) 0.039(4) 0.040(4) 0.007(3) 0.011(4) -0.005(3)
C4 0.040(4) 0.031(4) 0.040(4) 0.001(3) 0.018(3) -0.001(3)
C5 0.051(5) 0.036(4) 0.034(4) 0.004(3) 0.017(4) -0.003(3)
C6 0.043(4) 0.027(3) 0.053(4) -0.003(3) 0.031(4) -0.005(3)
C7 0.031(4) 0.033(4) 0.050(4) -0.007(3) 0.014(4) -0.002(3)
C8 0.036(4) 0.036(4) 0.046(4) 0.001(3) 0.009(4) 0.003(3)
C9 0.038(4) 0.028(3) 0.046(4) 0.001(3) 0.019(4) 0.001(3)
C10 0.036(4) 0.033(4) 0.045(4) 0.004(3) 0.018(4) 0.003(3)
O8A 0.033(5) 0.056(6) 0.059(6) -0.003(4) 0.015(4) 0.014(4)
O8B 0.033(5) 0.056(6) 0.059(6) -0.003(4) 0.015(4) 0.014(4)
O8C 0.033(5) 0.056(6) 0.059(6) -0.003(4) 0.015(4) 0.014(4)
loop_
_atom_type_symbol
_atom_type_description
_atom_type_scat_dispersion_real
_atom_type_scat_dispersion_imag
_atom_type_scat_source
C C 0.0033 0.0016 'International Tables Vol C Tables 4.2.6.8 and 6.1.1.4'
H H 0.0000 0.0000 'International Tables Vol C Tables 4.2.6.8 and 6.1.1.4'
Nd Nd -0.1943 3.0179 'International Tables Vol C Tables 4.2.6.8 and 6.1.1.4'
O O 0.0106 0.0060 'International Tables Vol C Tables 4.2.6.8 and 6.1.1.4'
S S 0.1246 0.1234 'International Tables Vol C Tables 4.2.6.8 and 6.1.1.4'
loop_
_geom_angle_atom_site_label_1
_geom_angle_atom_site_label_2
_geom_angle_atom_site_label_3
_geom_angle
_geom_angle_site_symmetry_1
_geom_angle_site_symmetry_3
O7 Nd1 O1 96.09(17) . 6
O7 Nd1 O3 136.34(17) . 4_645
O1 Nd1 O3 93.94(17) 6 4_645
O7 Nd1 O7 68.78(16) . 7_646
O1 Nd1 O7 150.81(18) 6 7_646
O3 Nd1 O7 82.27(16) 4_645 7_646
O7 Nd1 O8B 153.8(3) . .
O1 Nd1 O8B 89.1(3) 6 .
O3 Nd1 O8B 68.4(3) 4_645 .
O7 Nd1 O8B 115.7(3) 7_646 .
O7 Nd1 O9 83.44(19) . .
O1 Nd1 O9 69.75(17) 6 .
O3 Nd1 O9 139.47(18) 4_645 .
O7 Nd1 O9 129.53(17) 7_646 .
O8B Nd1 O9 74.3(3) . .
O7 Nd1 O4 70.49(15) . .
O1 Nd1 O4 70.51(18) 6 .
O3 Nd1 O4 73.22(16) 4_645 .
O7 Nd1 O4 80.75(16) 7_646 .
O8B Nd1 O4 134.9(3) . .
O9 Nd1 O4 129.07(19) . .
O7 Nd1 O6 80.67(18) . 7_646
O1 Nd1 O6 134.41(17) 6 7_646
O3 Nd1 O6 119.68(17) 4_645 7_646
O7 Nd1 O6 69.67(16) 7_646 7_646
O8B Nd1 O6 77.4(3) . 7_646
O9 Nd1 O6 64.70(17) . 7_646
O4 Nd1 O6 144.57(17) . 7_646
O7 Nd1 O8C 133.5(4) . .
O1 Nd1 O8C 120.9(5) 6 .
O3 Nd1 O8C 72.6(4) 4_645 .
O7 Nd1 O8C 85.7(5) 7_646 .
O9 Nd1 O8C 84.3(5) . .
O4 Nd1 O8C 144.5(4) . .
O6 Nd1 O8C 53.7(5) 7_646 .
O7 Nd1 O8A 150.4(5) . .
O1 Nd1 O8A 62.8(5) 6 .
O3 Nd1 O8A 69.4(5) 4_645 .
O7 Nd1 O8A 139.2(5) 7_646 .
O9 Nd1 O8A 70.2(5) . .
O4 Nd1 O8A 116.2(5) . .
O6 Nd1 O8A 99.1(5) 7_646 .
O7 Nd1 Nd1 34.83(10) . 7_646
O1 Nd1 Nd1 126.76(14) 6 7_646
O3 Nd1 Nd1 110.54(12) 4_645 7_646
O7 Nd1 Nd1 33.94(10) 7_646 7_646
O8B Nd1 Nd1 143.4(2) . 7_646
O9 Nd1 Nd1 108.76(14) . 7_646
O4 Nd1 Nd1 72.63(11) . 7_646
O6 Nd1 Nd1 71.94(12) 7_646 7_646
O8C Nd1 Nd1 111.5(4) . 7_646
O8A Nd1 Nd1 169.9(5) . 7_646
O7 Nd1 H8B2 135.5 . .
O1 Nd1 H8B2 86.2 6 .
O3 Nd1 H8B2 87.4 4_645 .
O7 Nd1 H8B2 122.3 7_646 .
O8B Nd1 H8B2 19.1 . .
O9 Nd1 H8B2 55.7 . .
O4 Nd1 H8B2 148.1 . .
O6 Nd1 H8B2 67.2 7_646 .
Nd1 Nd1 H8B2 139.0 7_646 .
O2 S1 O3 113.8(3) . .
O2 S1 O1 112.0(3) . .
O3 S1 O1 110.6(3) . .
O2 S1 C1 107.0(3) . .
O3 S1 C1 106.4(3) . .
O1 S1 C1 106.5(3) . .
O5 S2 O4 114.1(4) . .
O5 S2 O6 112.1(4) . .
O4 S2 O6 109.7(3) . .
O5 S2 C7 108.9(3) . .
O4 S2 C7 107.7(3) . .
O6 S2 C7 103.9(3) . .
S1 O1 Nd1 154.6(3) . 6_556
S1 O3 Nd1 154.3(3) . 4_655
S2 O4 Nd1 128.9(3) . .
S2 O6 Nd1 127.9(3) . 7_646
C6 O7 Nd1 122.6(4) . .
C6 O7 Nd1 118.4(4) . 7_646
Nd1 O7 Nd1 111.23(16) . 7_646
Nd1 O9 H91 97.7 . .
Nd1 O9 H92 115.3 . .
H91 O9 H92 106.0 . .
C10 C1 C2 120.6(6) . .
C10 C1 S1 121.9(5) . .
C2 C1 S1 117.1(5) . .
C3 C2 C1 120.2(7) . .
C3 C2 H2 119.9 . .
C1 C2 H2 119.9 . .
C2 C3 C4 120.9(7) . .
C2 C3 H3 119.6 . .
C4 C3 H3 119.6 . .
C3 C4 C9 118.8(6) . .
C3 C4 C5 120.5(6) . .
C9 C4 C5 120.6(6) . .
C6 C5 C4 120.3(6) . .
C6 C5 H5 119.9 . .
C4 C5 H5 119.9 . .
O7 C6 C5 121.8(6) . .
O7 C6 C7 119.0(6) . .
C5 C6 C7 119.2(6) . .
C8 C7 C6 121.7(6) . .
C8 C7 S2 122.7(5) . .
C6 C7 S2 115.6(5) . .
C7 C8 C9 119.4(6) . .
C7 C8 H8 120.3 . .
C9 C8 H8 120.3 . .
C8 C9 C10 121.9(6) . .
C8 C9 C4 118.8(6) . .
C10 C9 C4 119.3(6) . .
C1 C10 C9 120.1(6) . .
C1 C10 H10 119.9 . .
C9 C10 H10 119.9 . .
Nd1 O8A H8A1 100.7 . .
Nd1 O8A H8A2 101.0 . .
H8A1 O8A H8A2 107.7 . .
Nd1 O8B H8B1 161.2 . .
Nd1 O8B H8B2 89.4 . .
H8B1 O8B H8B2 107.7 . .
Nd1 O8C H8C1 102.7 . .
Nd1 O8C H8C2 100.3 . .
H8C1 O8C H8C2 107.7 . .
loop_
_geom_bond_atom_site_label_1
_geom_bond_atom_site_label_2
_geom_bond_distance
_geom_bond_site_symmetry_2
Nd1 O7 2.377(4) .
Nd1 O1 2.381(5) 6
Nd1 O3 2.396(4) 4_645
Nd1 O7 2.432(4) 7_646
Nd1 O8B 2.468(9) .
Nd1 O9 2.493(5) .
Nd1 O4 2.517(5) .
Nd1 O6 2.556(6) 7_646
Nd1 O8C 2.594(18) .
Nd1 O8A 2.710(19) .
Nd1 Nd1 3.9692(7) 7_646
Nd1 H8B2 2.6019 .
S1 O2 1.441(5) .
S1 O3 1.462(5) .
S1 O1 1.467(5) .
S1 C1 1.759(6) .
S2 O5 1.421(6) .
S2 O4 1.452(5) .
S2 O6 1.514(5) .
S2 C7 1.754(7) .
O1 Nd1 2.381(5) 6_556
O3 Nd1 2.396(4) 4_655
O6 Nd1 2.556(6) 7_646
O7 C6 1.363(7) .
O7 Nd1 2.432(4) 7_646
O9 H91 0.8220 .
O9 H92 0.8673 .
C1 C10 1.369(9) .
C1 C2 1.404(9) .
C2 C3 1.362(10) .
C2 H2 0.9300 .
C3 C4 1.410(10) .
C3 H3 0.9300 .
C4 C9 1.414(9) .
C4 C5 1.417(9) .
C5 C6 1.370(9) .
C5 H5 0.9300 .
C6 C7 1.414(10) .
C7 C8 1.393(9) .
C8 C9 1.408(9) .
C8 H8 0.9300 .
C9 C10 1.412(9) .
C10 H10 0.9300 .
O8A H8A1 0.8498 .
O8A H8A2 0.8500 .
O8B H8B1 0.8500 .
O8B H8B2 0.8500 .
O8C H8C1 0.8501 .
O8C H8C2 0.8500 .
loop_
_geom_torsion_atom_site_label_1
_geom_torsion_atom_site_label_2
_geom_torsion_atom_site_label_3
_geom_torsion_atom_site_label_4
_geom_torsion
_geom_torsion_site_symmetry_1
_geom_torsion_site_symmetry_4
O2 S1 O1 Nd1 111.6(8) . 6_556
O3 S1 O1 Nd1 -16.5(9) . 6_556
C1 S1 O1 Nd1 -131.8(8) . 6_556
O2 S1 O3 Nd1 -31.2(8) . 4_655
O1 S1 O3 Nd1 96.0(7) . 4_655
C1 S1 O3 Nd1 -148.7(6) . 4_655
O5 S2 O4 Nd1 169.1(4) . .
O6 S2 O4 Nd1 -64.3(5) . .
C7 S2 O4 Nd1 48.1(5) . .
O5 S2 O6 Nd1 -170.2(4) . 7_646
O4 S2 O6 Nd1 62.0(5) . 7_646
C7 S2 O6 Nd1 -52.9(5) . 7_646
O2 S1 C1 C10 -107.5(6) . .
O3 S1 C1 C10 14.4(7) . .
O1 S1 C1 C10 132.5(6) . .
O2 S1 C1 C2 65.1(6) . .
O3 S1 C1 C2 -173.0(5) . .
O1 S1 C1 C2 -54.9(6) . .
C10 C1 C2 C3 -0.2(11) . .
S1 C1 C2 C3 -172.9(6) . .
C1 C2 C3 C4 1.3(11) . .
C2 C3 C4 C9 -2.8(11) . .
C2 C3 C4 C5 178.9(7) . .
C3 C4 C5 C6 176.9(7) . .
C9 C4 C5 C6 -1.5(10) . .
Nd1 O7 C6 C5 -111.9(6) . .
Nd1 O7 C6 C5 101.6(6) 7_646 .
Nd1 O7 C6 C7 70.4(7) . .
Nd1 O7 C6 C7 -76.0(6) 7_646 .
C4 C5 C6 O7 -177.0(6) . .
C4 C5 C6 C7 0.7(10) . .
O7 C6 C7 C8 179.4(6) . .
C5 C6 C7 C8 1.6(10) . .
O7 C6 C7 S2 1.3(8) . .
C5 C6 C7 S2 -176.4(5) . .
O5 S2 C7 C8 1.1(7) . .
O4 S2 C7 C8 125.2(6) . .
O6 S2 C7 C8 -118.5(6) . .
O5 S2 C7 C6 179.1(6) . .
O4 S2 C7 C6 -56.7(6) . .
O6 S2 C7 C6 59.6(6) . .
C6 C7 C8 C9 -3.2(10) . .
S2 C7 C8 C9 174.7(6) . .
C7 C8 C9 C10 -179.2(6) . .
C7 C8 C9 C4 2.4(10) . .
C3 C4 C9 C8 -178.5(6) . .
C5 C4 C9 C8 -0.1(10) . .
C3 C4 C9 C10 3.1(10) . .
C5 C4 C9 C10 -178.5(6) . .
C2 C1 C10 C9 0.6(10) . .
S1 C1 C10 C9 173.0(5) . .
C8 C9 C10 C1 179.5(7) . .
C4 C9 C10 C1 -2.1(10) . .
