#------------------------------------------------------------------------------
#$Date: 2016-02-05 01:42:20 +0200 (Fri, 05 Feb 2016) $
#$Revision: 176055 $
#$URL: svn://www.crystallography.net/cod/cif/7/03/75/7037516.cif $
#------------------------------------------------------------------------------
#
# This file is available in the Crystallography Open Database (COD),
# http://www.crystallography.net/
#
# All data on this site have been placed in the public domain by the
# contributors.
#
data_7037516
loop_
_publ_author_name
'Alm\'a\<si, Miroslav'
'Zele\<n\'ak, Vladim\'ir'
'Zukal, Arno\<st'
'Kuch\'ar, Juraj'
'\<Cejka, Ji\<r\'i'
_publ_section_title
;
 A novel zinc(ii) metal-organic framework with a diamond-like structure:
 synthesis, study of thermal robustness and gas adsorption properties.
;
_journal_issue                   3
_journal_name_full
'Dalton transactions (Cambridge, England : 2003)'
_journal_page_first              1233
_journal_page_last               1242
_journal_paper_doi               10.1039/c5dt02437d
_journal_volume                  45
_journal_year                    2016
_chemical_formula_moiety         'C49 H64 N8 O8 Zn2, 2(C3 H7 O N), 7(H2 O)'
_chemical_formula_sum            'C55 H92 N10 O17 Zn2'
_chemical_formula_weight         1296.12
_space_group_crystal_system      tetragonal
_space_group_IT_number           85
_space_group_name_Hall           '-P 4a'
_space_group_name_H-M_alt        'P 4/n'
_symmetry_space_group_name_Hall  '-P 4a'
_symmetry_space_group_name_H-M   'P 4/n :2'
_atom_sites_solution_hydrogens   geom
_audit_creation_method           SHELXL-2014/7
_audit_update_record
;
2015-11-09 deposited with the CCDC.
2015-12-02 downloaded from the CCDC.
;
_cell_angle_alpha                90
_cell_angle_beta                 90
_cell_angle_gamma                90
_cell_formula_units_Z            2
_cell_length_a                   17.1627(10)
_cell_length_b                   17.1627(10)
_cell_length_c                   12.407(2)
_cell_measurement_reflns_used    1797
_cell_measurement_temperature    173(2)
_cell_measurement_theta_max      26.2400
_cell_measurement_theta_min      3.2230
_cell_volume                     3654.6(7)
_computing_cell_refinement
;
<i>CrysAlis PRO</i> (Oxford Diffraction, 2009)
;
_computing_data_collection
;
<i>CrysAlis PRO</i> (Oxford Diffraction, 2009)
;
_computing_data_reduction
;
<i>CrysAlis PRO</i> (Oxford Diffraction, 2009)
;
_computing_molecular_graphics    'Diamond (Crystal Impact, 2010)'
_computing_publication_material  SHELXL-2013
_computing_structure_refinement  'SHELXL-2013 (Sheldrick, 2013)'
_computing_structure_solution    'Superflip (Palatinus & Chapuis, 2007)'
_diffrn_ambient_temperature      173(2)
_diffrn_detector_area_resol_mean 8.3438
_diffrn_measured_fraction_theta_full 0.998
_diffrn_measured_fraction_theta_max 0.996
_diffrn_measurement_device_type  'Xcalibur, Sapphire2, large Be window'
_diffrn_measurement_method       '\w scans'
_diffrn_radiation_type           MoK\a
_diffrn_radiation_wavelength     0.71073
_diffrn_reflns_av_R_equivalents  0.0887
_diffrn_reflns_av_unetI/netI     0.1140
_diffrn_reflns_laue_measured_fraction_full 0.998
_diffrn_reflns_laue_measured_fraction_max 0.996
_diffrn_reflns_limit_h_max       21
_diffrn_reflns_limit_h_min       -21
_diffrn_reflns_limit_k_max       14
_diffrn_reflns_limit_k_min       -21
_diffrn_reflns_limit_l_max       15
_diffrn_reflns_limit_l_min       -10
_diffrn_reflns_number            12383
_diffrn_reflns_point_group_measured_fraction_full 0.998
_diffrn_reflns_point_group_measured_fraction_max 0.996
_diffrn_reflns_theta_full        25.242
_diffrn_reflns_theta_max         26.490
_diffrn_reflns_theta_min         3.121
_diffrn_source                   'Enhance (Mo) X-ray Source'
_exptl_absorpt_coefficient_mu    0.720
_exptl_absorpt_correction_T_max  0.933
_exptl_absorpt_correction_T_min  0.925
_exptl_absorpt_correction_type   numerical
_exptl_absorpt_process_details
;
[Clark & Reid (1995) in <i>CrysAlis Pro</i> (Oxford Diffraction, 2009)]
;
_exptl_crystal_colour            colorless
_exptl_crystal_density_diffrn    1.178
_exptl_crystal_description       needle
_exptl_crystal_F_000             1376
_exptl_crystal_size_max          0.5
_exptl_crystal_size_mid          0.1
_exptl_crystal_size_min          0.1
_refine_diff_density_max         0.413
_refine_diff_density_min         -0.554
_refine_diff_density_rms         0.066
_refine_ls_extinction_method     none
_refine_ls_goodness_of_fit_ref   0.947
_refine_ls_hydrogen_treatment    constr
_refine_ls_matrix_type           full
_refine_ls_number_parameters     153
_refine_ls_number_reflns         3792
_refine_ls_number_restraints     0
_refine_ls_restrained_S_all      0.947
_refine_ls_R_factor_all          0.1310
_refine_ls_R_factor_gt           0.0639
_refine_ls_shift/su_max          0.000
_refine_ls_shift/su_mean         0.000
_refine_ls_structure_factor_coef Fsqd
_refine_ls_weighting_details
'w=1/[\s^2^(Fo^2^)+(0.0876P)^2^] where P=(Fo^2^+2Fc^2^)/3'
_refine_ls_weighting_scheme      calc
_refine_ls_wR_factor_gt          0.1647
_refine_ls_wR_factor_ref         0.2013
_reflns_Friedel_coverage         0.000
_reflns_number_gt                1733
_reflns_number_total             3792
_reflns_threshold_expression     'I > 2\s(I)'
_cod_data_source_file            c5dt02437d2.cif
_cod_data_source_block           shelx
_cod_depositor_comments          'Adding full bibliography for 7037516.cif.'
_cod_database_code               7037516
_shelx_shelxl_version_number     2014/7
_shelx_space_group_comment
;
The symmetry employed for this shelxl refinement is uniquely defined
by the following loop, which should always be used as a source of
symmetry information in preference to the above space-group names.
They are only intended as comments.
;
_shelx_res_file
;

    shelx.res created by SHELXL-2014/7

TITL shelxt_a.res in P4/n
CELL  0.71073  17.1627  17.1627  12.4071   90.000   90.000   90.000
ZERR     2.00   0.0010   0.0010   0.0020    0.000    0.000    0.000
LATT   1
SYMM  1/2 - X, 1/2 - Y,   Z
SYMM  1/2 - Y,   X,   Z
SYMM    Y, 1/2 - X,   Z
SFAC  C    H    N    O    ZN
UNIT  110 184 20 34 4
MERG   2
OMIT    -2.00  53.00
ABIN
FMAP   2
PLAN   20
ACTA
BOND   $H
CONF
HTAB
L.S.  20    0   64
TEMP  -100.00
WGHT    0.087600
FVAR       0.45892
ZN1   5    0.000000    0.500000    0.500000    10.50000    0.04259    0.04696 =
         0.04896   -0.00902   -0.00340    0.00301
O1    4   -0.050532    0.423209    0.376972    11.00000    0.05897    0.06941 =
         0.05486   -0.02959   -0.00779   -0.00348
C13   1   -0.250000    0.250000    0.000000    10.25000    0.03839    0.03839 =
         0.03132    0.00000    0.00000    0.00000
N2    3   -0.114075    0.529999    0.541024    11.00000    0.05096    0.05758 =
         0.06860   -0.02774    0.00270    0.00029
AFIX  13
H2    2   -0.110624    0.562893    0.607379    11.00000   -1.20000
AFIX   0
C10   1   -0.187056    0.285822    0.075547    11.00000    0.03801    0.04120 =
         0.02826   -0.00254   -0.00100    0.00420
O2    4    0.047518    0.381129    0.279660    11.00000    0.05565    0.13559 =
         0.09513   -0.06327   -0.01542    0.00077
C7    1   -0.079949    0.352143    0.219987    11.00000    0.04916    0.04059 =
         0.03969   -0.00968   -0.00664    0.00234
C8    1   -0.157823    0.367129    0.229649    11.00000    0.05379    0.05434 =
         0.03622   -0.00732   -0.00255    0.00521
AFIX  43
H8    2   -0.175829    0.400366    0.285583    11.00000   -1.20000
AFIX   0
C9    1   -0.210533    0.334455    0.158955    11.00000    0.03837    0.06080 =
         0.04168   -0.01225   -0.00240    0.00867
AFIX  43
H9    2   -0.264413    0.345517    0.167539    11.00000   -1.20000
AFIX   0
N1    3   -0.007119    0.592782    0.387054    11.00000    0.06772    0.05685 =
         0.06841   -0.00122   -0.00997   -0.00631
AFIX  13
H1    2   -0.018785    0.569530    0.314934    11.00000   -1.20000
AFIX   0
C6    1   -0.020522    0.389396    0.300923    11.00000    0.05124    0.05400 =
         0.05964   -0.00619    0.00131    0.01113
C11   1   -0.108603    0.269921    0.066334    11.00000    0.05724    0.05531 =
         0.04119   -0.01401    0.00116    0.00469
AFIX  43
H11   2   -0.090682    0.235915    0.011239    11.00000   -1.20000
AFIX   0
C12   1   -0.055204    0.303640    0.137771    11.00000    0.04265    0.06350 =
         0.05932   -0.02285   -0.00135    0.00274
AFIX  43
H12   2   -0.001189    0.293056    0.129665    11.00000   -1.20000
AFIX   0
C4    1   -0.141351    0.581145    0.454457    11.00000    0.05314    0.05970 =
         0.10821   -0.00910   -0.01600    0.00861
AFIX  23
H4B   2   -0.187437    0.610862    0.479214    11.00000   -1.20000
H4A   2   -0.156978    0.549435    0.391404    11.00000   -1.20000
AFIX   0
C3    1   -0.165964    0.463389    0.567961    11.00000    0.05132    0.08266 =
         0.07077   -0.01717    0.00161   -0.01144
AFIX  23
H3A   2   -0.175026    0.432087    0.502121    11.00000   -1.20000
H3B   2   -0.216946    0.483814    0.592357    11.00000   -1.20000
AFIX   0
C2    1   -0.133021    0.411791    0.653845    11.00000    0.07299    0.09264 =
         0.07314   -0.00154    0.00532   -0.01354
AFIX  23
H2A   2   -0.175082    0.376827    0.679193    11.00000   -1.20000
H2B   2   -0.117759    0.445039    0.715537    11.00000   -1.20000
AFIX   0
C5    1   -0.077645    0.636616    0.422490    11.00000    0.06498    0.05985 =
         0.10778    0.00516   -0.01903    0.00445
AFIX  23
H5A   2   -0.096077    0.670385    0.363036    11.00000   -1.20000
H5B   2   -0.064205    0.670356    0.484481    11.00000   -1.20000
AFIX   0
C1    1    0.063272    0.638365    0.376535    11.00000    0.08137    0.07916 =
         0.08523    0.00722    0.00094   -0.02071
AFIX  23
H1B   2    0.074080    0.665096    0.445644    11.00000   -1.20000
H1A   2    0.055459    0.678774    0.320629    11.00000   -1.20000
AFIX   0
HKLF    4

REM  shelxt_a.res in P4/n
REM R1 =  0.0639 for    1733 Fo > 4sig(Fo)  and  0.1310 for all    3792 data
REM    153 parameters refined using      0 restraints

END

WGHT      0.0873      0.0000

REM Instructions for potential hydrogen bonds
EQIV $1 -x, -y+1, -z+1
HTAB N2 O2_$1
HTAB C3 O1

REM Highest difference peak  0.413,  deepest hole -0.554,  1-sigma level  0.066
Q1    1   0.0574  0.5710  0.3784  11.00000  0.05    0.41
Q2    1   0.0432  0.4637  0.5478  11.00000  0.05    0.35
Q3    1   0.0439  0.4577  0.4899  11.00000  0.05    0.31
Q4    1   0.0481  0.4673  0.4659  11.00000  0.05    0.29
Q5    1  -0.1539  0.2828  0.0592  11.00000  0.05    0.28
Q6    1  -0.0342  0.3995  0.2844  11.00000  0.05    0.28
Q7    1  -0.0378  0.4556  0.5361  11.00000  0.05    0.28
Q8    1  -0.0644  0.3363  0.1824  11.00000  0.05    0.28
Q9    1  -0.0013  0.3619  0.3145  11.00000  0.05    0.27
Q10   1  -0.1558  0.4016  0.1956  11.00000  0.05    0.27
Q11   1   0.0003  0.3962  0.2570  11.00000  0.05    0.26
Q12   1  -0.0779  0.3143  0.0915  11.00000  0.05    0.26
Q13   1  -0.0379  0.4553  0.4347  11.00000  0.05    0.26
Q14   1  -0.2187  0.2884  0.0324  11.00000  0.05    0.26
Q15   1  -0.0683  0.3952  0.2347  11.00000  0.05    0.25
Q16   1   0.0269  0.3293  0.3029  11.00000  0.05    0.24
Q17   1  -0.1288  0.4338  0.2642  11.00000  0.05    0.24
Q18   1  -0.1287  0.2396  0.1043  11.00000  0.05    0.24
Q19   1  -0.1321  0.4049  0.2206  11.00000  0.05    0.23
Q20   1  -0.0360  0.3053  0.1329  11.00000  0.05    0.23
;
_shelx_res_checksum              41038
_shelx_fab_file
;
    2    2    0    125.49      0.00
   -1    3    0    -15.27      0.00
    1    3    0    -20.75      0.00
    3    3    0     -7.58      0.00
   -2    4    0      4.23      0.00
    0    4    0     36.99      0.00
    2    4    0     32.70      0.00
    4    4    0      0.27      0.00
   -3    5    0      8.19      0.00
   -1    5    0     -5.08      0.00
    1    5    0     -6.05      0.00
    3    5    0    -13.93      0.00
    5    5    0    -20.50      0.00
   -4    6    0    -14.74      0.00
   -2    6    0     -2.68      0.00
    0    6    0     -0.32      0.00
    2    6    0     17.12      0.00
    4    6    0    -23.02      0.00
    6    6    0     17.02      0.00
   -5    7    0    -12.57      0.00
   -3    7    0      0.31      0.00
   -1    7    0     -1.54      0.00
    1    7    0     13.01      0.00
    3    7    0    -31.18      0.00
    5    7    0     23.11      0.00
    7    7    0     -7.94      0.00
   -6    8    0     -5.38      0.00
   -4    8    0      1.91      0.00
   -2    8    0      1.26      0.00
    0    8    0     22.22      0.00
    2    8    0    -23.71      0.00
    4    8    0     26.54      0.00
    6    8    0    -13.34      0.00
    8    8    0      9.45      0.00
   -7    9    0     -3.93      0.00
   -5    9    0     -0.41      0.00
   -3    9    0      3.73      0.00
   -1    9    0     12.14      0.00
    1    9    0    -18.69      0.00
    3    9    0     17.77      0.00
    5    9    0    -12.96      0.00
    7    9    0      7.45      0.00
    9    9    0     -2.82      0.00
   -8   10    0     -1.57      0.00
   -6   10    0      8.05      0.00
   -4   10    0     -0.10      0.00
   -2   10    0     12.55      0.00
    0   10    0    -10.63      0.00
    2   10    0     14.70      0.00
    4   10    0     -7.58      0.00
    6   10    0     11.09      0.00
    8   10    0     -1.74      0.00
   10   10    0      2.57      0.00
   -9   11    0      2.64      0.00
   -7   11    0      5.90      0.00
   -5   11    0     -3.97      0.00
   -3   11    0      9.50      0.00
   -1   11    0     -3.88      0.00
    1   11    0      3.98      0.00
    3   11    0     -3.91      0.00
    5   11    0      3.27      0.00
    7   11    0     -2.65      0.00
    9   11    0     -0.17      0.00
   11   11    0     -1.79      0.00
  -10   12    0      1.71      0.00
   -8   12    0      2.73      0.00
   -6   12    0     -1.45      0.00
   -4   12    0      9.54      0.00
   -2   12    0     -5.31      0.00
    0   12    0      6.19      0.00
    2   12    0      3.76      0.00
    4   12    0      1.66      0.00
    6   12    0     -0.39      0.00
    8   12    0      3.99      0.00
   10   12    0      0.84      0.00
   12   12    0      0.85      0.00
  -11   13    0      4.00      0.00
   -9   13    0      2.46      0.00
   -7   13    0     -1.91      0.00
   -5   13    0      7.31      0.00
   -3   13    0     -5.58      0.00
   -1   13    0     10.46      0.00
    1   13    0      3.50      0.00
    3   13    0     -4.05      0.00
    5   13    0     -0.14      0.00
    7   13    0      1.88      0.00
    9   13    0     -0.84      0.00
   11   13    0     -1.33      0.00
   13   13    0     -7.91      0.00
  -12   14    0      0.58      0.00
  -10   14    0      2.68      0.00
   -8   14    0     -0.41      0.00
   -6   14    0      2.43      0.00
   -4   14    0     -4.88      0.00
   -2   14    0      9.58      0.00
    0   14    0      0.54      0.00
    2   14    0     -4.24      0.00
    4   14    0      2.76      0.00
    6   14    0      0.96      0.00
    8   14    0     -1.38      0.00
   10   14    0      1.12      0.00
   12   14    0     -0.95      0.00
   14   14    0      6.08      0.00
  -13   15    0      1.58      0.00
  -11   15    0      1.08      0.00
   -9   15    0     -6.21      0.00
   -7   15    0     -0.67      0.00
   -5   15    0     -0.29      0.00
   -3   15    0      5.48      0.00
   -1   15    0     -1.83      0.00
    1   15    0     -3.11      0.00
    3   15    0      1.37      0.00
    5   15    0     -0.73      0.00
    7   15    0     -3.01      0.00
    9   15    0      2.80      0.00
   11   15    0     -1.58      0.00
   13   15    0     -1.22      0.00
   15   15    0     -6.03      0.00
  -14   16    0      2.27      0.00
  -12   16    0      1.90      0.00
  -10   16    0     -1.63      0.00
   -8   16    0      2.88      0.00
   -6   16    0      1.37      0.00
   -4   16    0      0.72      0.00
   -2   16    0     -2.08      0.00
    0   16    0     -0.05      0.00
    2   16    0     -0.46      0.00
    4   16    0      1.51      0.00
    6   16    0     -1.89      0.00
    8   16    0      3.78      0.00
   10   16    0     -2.50      0.00
   12   16    0      3.46      0.00
   14   16    0     -2.07      0.00
   16   16    0      9.55      0.00
  -15   17    0     -1.41      0.00
  -13   17    0     -1.20      0.00
  -11   17    0     -2.22      0.00
   -9   17    0     -0.74      0.00
   -7   17    0     -0.74      0.00
   -5   17    0      1.32      0.00
   -3   17    0      2.48      0.00
   -1   17    0      2.63      0.00
    1   17    0     -1.16      0.00
    3   17    0     -0.11      0.00
    5   17    0     -3.24      0.00
    7   17    0      2.15      0.00
    9   17    0     -4.07      0.00
   11   17    0      5.78      0.00
   13   17    0     -6.75      0.00
  -14   18    0      3.79      0.00
  -12   18    0     -0.66      0.00
  -10   18    0      0.41      0.00
   -8   18    0      0.94      0.00
   -6   18    0     -1.18      0.00
   -4   18    0     -0.60      0.00
   -2   18    0     -2.56      0.00
    0   18    0     -8.41      0.00
    2   18    0      1.05      0.00
    4   18    0     -2.72      0.00
    6   18    0      6.95      0.00
    8   18    0     -1.30      0.00
   10   18    0      2.18      0.00
   12   18    0     -4.83      0.00
  -13   19    0     -2.20      0.00
  -11   19    0      0.17      0.00
   -9   19    0      1.97      0.00
   -7   19    0     -2.62      0.00
   -5   19    0      3.48      0.00
   -3   19    0      1.06      0.00
   -1   19    0     -2.62      0.00
    1   19    0      2.92      0.00
    3   19    0      2.15      0.00
    5   19    0      0.74      0.00
    7   19    0     -2.73      0.00
    9   19    0     -5.64      0.00
   -8   20    0     -1.32      0.00
   -6   20    0     -0.04      0.00
   -4   20    0     -0.20      0.00
   -2   20    0     -2.02      0.00
    0   20    0      3.87      0.00
    2   20    0      0.33      0.00
    4   20    0     -0.35      0.00
    6   20    0     -0.94      0.00
   -5   21    0     -2.83      0.00
   -3   21    0     -0.03      0.00
   -1   21    0      0.78      0.00
    1   21    0     -1.75      0.00
    3   21    0     -0.39      0.00
    5   21    0     -1.16      0.00
   -4   22    0      4.12      0.00
   -2   22    0      3.74      0.00
    0   22    0      0.35      0.00
   -1    2    1    -39.46      0.00
    1    2    1      8.95      0.00
    2    2    1     29.63      0.00
   -2    3    1      5.53      0.00
   -1    3    1     19.61      0.00
    0    3    1     23.02      0.00
    1    3    1    -51.74      0.00
    2    3    1     24.55      0.00
    3    3    1      7.48      0.00
   -3    4    1      6.79      0.00
   -2    4    1     39.21      0.00
   -1    4    1    -32.36      0.00
    0    4    1    -13.65      0.00
    1    4    1      5.27      0.00
    2    4    1     57.04      0.00
    3    4    1    -13.63      0.00
    4    4    1    -12.24      0.00
   -4    5    1     11.50      0.00
   -3    5    1     14.46      0.00
   -2    5    1    -24.31      0.00
   -1    5    1    -27.70      0.00
    0    5    1     35.60      0.00
    1    5    1     10.10      0.00
    2    5    1      3.23      0.00
    3    5    1    -23.65      0.00
    4    5    1     12.92      0.00
    5    5    1     -0.23      0.00
   -5    6    1      9.14      0.00
   -4    6    1      2.24      0.00
   -3    6    1    -21.37      0.00
   -2    6    1    -21.33      0.00
   -1    6    1     24.70      0.00
    0    6    1     30.73      0.00
    1    6    1    -13.00      0.00
    2    6    1     -5.46      0.00
    3    6    1     -5.08      0.00
    4    6    1      2.72      0.00
    5    6    1     -3.18      0.00
    6    6    1     -5.31      0.00
   -6    7    1      0.29      0.00
   -5    7    1      1.49      0.00
   -4    7    1    -15.63      0.00
   -3    7    1    -10.79      0.00
   -2    7    1     18.46      0.00
   -1    7    1     17.32      0.00
    0    7    1     -8.55      0.00
    1    7    1    -13.73      0.00
    2    7    1      1.12      0.00
    3    7    1     -2.47      0.00
    4    7    1      8.91      0.00
    5    7    1     -3.09      0.00
    6    7    1     -4.69      0.00
    7    7    1      8.80      0.00
   -7    8    1     -0.09      0.00
   -6    8    1      8.21      0.00
   -5    8    1     -1.72      0.00
   -4    8    1     -8.37      0.00
   -3    8    1     11.65      0.00
   -2    8    1     19.15      0.00
   -1    8    1     -9.17      0.00
    0    8    1     -5.72      0.00
    1    8    1     -2.82      0.00
    2    8    1      7.80      0.00
    3    8    1      6.63      0.00
    4    8    1     -1.33      0.00
    5    8    1    -10.52      0.00
    6    8    1      9.47      0.00
    7    8    1      1.81      0.00
    8    8    1     -5.58      0.00
   -8    9    1      2.71      0.00
   -7    9    1      5.63      0.00
   -6    9    1      0.43      0.00
   -5    9    1     -5.32      0.00
   -4    9    1      2.19      0.00
   -3    9    1     10.36      0.00
   -2    9    1     -5.78      0.00
   -1    9    1     -4.66      0.00
    0    9    1      1.51      0.00
    1    9    1      1.56      0.00
    2    9    1      6.81      0.00
    3    9    1     -3.12      0.00
    4    9    1     -8.59      0.00
    5    9    1      4.99      0.00
    6    9    1      4.74      0.00
    7    9    1     -3.80      0.00
    8    9    1     -0.58      0.00
    9    9    1      2.02      0.00
   -9   10    1      2.60      0.00
   -8   10    1      7.00      0.00
   -7   10    1     -0.72      0.00
   -6   10    1      0.17      0.00
   -5   10    1      0.57      0.00
   -4   10    1      7.19      0.00
   -3   10    1     -2.34      0.00
   -2   10    1     -2.88      0.00
   -1   10    1      1.37      0.00
    0   10    1      7.44      0.00
    1   10    1      3.24      0.00
    2   10    1     -0.51      0.00
    3   10    1     -5.10      0.00
    4   10    1      7.73      0.00
    5   10    1      4.44      0.00
    6   10    1     -2.96      0.00
    7   10    1     -2.46      0.00
    8   10    1      4.93      0.00
    9   10    1     -0.04      0.00
   10   10    1     -1.40      0.00
  -10   11    1      3.72      0.00
   -9   11    1      6.32      0.00
   -8   11    1     -0.37      0.00
   -7   11    1     -0.11      0.00
   -6   11    1      0.27      0.00
   -5   11    1      0.51      0.00
   -4   11    1     -0.71      0.00
   -3   11    1      2.12      0.00
   -2   11    1     -1.94      0.00
   -1   11    1      3.76      0.00
    0   11    1      1.55      0.00
    1   11    1     -2.43      0.00
    2   11    1      1.55      0.00
    3   11    1      1.42      0.00
    4   11    1      1.45      0.00
    5   11    1     -3.61      0.00
    6   11    1     -0.25      0.00
    7   11    1      0.91      0.00
    8   11    1      0.80      0.00
    9   11    1     -0.06      0.00
   10   11    1      2.01      0.00
   11   11    1     -0.85      0.00
  -11   12    1      1.46      0.00
  -10   12    1      3.81      0.00
   -9   12    1      0.21      0.00
   -8   12    1     -1.29      0.00
   -7   12    1     -0.62      0.00
   -6   12    1      2.55      0.00
   -5   12    1      1.15      0.00
   -4   12    1      4.18      0.00
   -3   12    1     -3.70      0.00
   -2   12    1      3.01      0.00
   -1   12    1      1.60      0.00
    0   12    1     -0.14      0.00
    1   12    1      4.81      0.00
    2   12    1      6.45      0.00
    3   12    1     -2.83      0.00
    4   12    1     -2.32      0.00
    5   12    1      0.95      0.00
    6   12    1      3.81      0.00
    7   12    1      0.06      0.00
    8   12    1      1.23      0.00
    9   12    1      1.07      0.00
   10   12    1      2.76      0.00
   11   12    1     -0.14      0.00
   12   12    1     -1.46      0.00
  -12   13    1     -1.34      0.00
  -11   13    1      4.51      0.00
  -10   13    1      1.47      0.00
   -9   13    1     -1.04      0.00
   -8   13    1      0.93      0.00
   -7   13    1      3.09      0.00
   -6   13    1     -0.53      0.00
   -5   13    1      2.53      0.00
   -4   13    1     -4.43      0.00
   -3   13    1      1.46      0.00
   -2   13    1     -0.14      0.00
   -1   13    1      2.79      0.00
    0   13    1      3.35      0.00
    1   13    1      4.55      0.00
    2   13    1     -4.85      0.00
    3   13    1     -4.82      0.00
    4   13    1      4.62      0.00
    5   13    1      3.52      0.00
    6   13    1     -0.96      0.00
    7   13    1     -0.23      0.00
    8   13    1      0.79      0.00
    9   13    1      0.63      0.00
   10   13    1     -0.33      0.00
   11   13    1     -3.26      0.00
   12   13    1     -1.09      0.00
   13   13    1     -2.14      0.00
  -13   14    1      1.27      0.00
  -12   14    1      3.31      0.00
  -11   14    1      2.80      0.00
  -10   14    1      2.21      0.00
   -9   14    1      1.11      0.00
   -8   14    1      1.41      0.00
   -7   14    1     -1.32      0.00
   -6   14    1      0.26      0.00
   -5   14    1      0.84      0.00
   -4   14    1     -0.42      0.00
   -3   14    1      1.42      0.00
   -2   14    1      0.38      0.00
   -1   14    1      1.71      0.00
    0   14    1      3.59      0.00
    1   14    1     -2.97      0.00
    2   14    1     -4.03      0.00
    3   14    1      3.56      0.00
    4   14    1      3.34      0.00
    5   14    1     -2.00      0.00
    6   14    1     -0.69      0.00
    7   14    1     -1.44      0.00
    8   14    1      0.08      0.00
    9   14    1     -0.99      0.00
   10   14    1     -0.21      0.00
   11   14    1     -2.47      0.00
   12   14    1      2.14      0.00
   13   14    1      1.50      0.00
   14   14    1      1.57      0.00
  -14   15    1     -1.64      0.00
  -13   15    1      4.83      0.00
  -12   15    1      1.58      0.00
  -11   15    1      0.32      0.00
  -10   15    1     -0.19      0.00
   -9   15    1     -4.03      0.00
   -8   15    1      1.00      0.00
   -7   15    1     -1.39      0.00
   -6   15    1      1.79      0.00
   -5   15    1      1.97      0.00
   -4   15    1     -1.59      0.00
   -3   15    1      0.45      0.00
   -2   15    1     -2.30      0.00
   -1   15    1      3.92      0.00
    0   15    1     -0.86      0.00
    1   15    1     -4.74      0.00
    2   15    1      2.50      0.00
    3   15    1      1.55      0.00
    4   15    1     -1.96      0.00
    5   15    1     -1.80      0.00
    6   15    1     -0.47      0.00
    7   15    1     -0.96      0.00
    8   15    1     -0.11      0.00
    9   15    1      0.17      0.00
   10   15    1     -2.85      0.00
   11   15    1      1.20      0.00
   12   15    1      2.12      0.00
   13   15    1     -3.58      0.00
   14   15    1     -0.93      0.00
   15   15    1     -3.17      0.00
  -15   16    1      1.04      0.00
  -14   16    1      6.22      0.00
  -13   16    1     -0.15      0.00
  -12   16    1     -0.82      0.00
  -11   16    1      2.06      0.00
  -10   16    1     -1.72      0.00
   -9   16    1     -2.13      0.00
   -8   16    1      3.17      0.00
   -7   16    1      0.03      0.00
   -6   16    1      1.17      0.00
   -5   16    1     -3.83      0.00
   -4   16    1     -1.35      0.00
   -3   16    1     -2.09      0.00
   -2   16    1      1.36      0.00
   -1   16    1      1.65      0.00
    0   16    1     -4.97      0.00
    1   16    1     -0.86      0.00
    2   16    1      2.78      0.00
    3   16    1     -1.74      0.00
    4   16    1     -0.94      0.00
    5   16    1     -1.10      0.00
    6   16    1      1.19      0.00
    7   16    1     -0.26      0.00
    8   16    1      0.81      0.00
    9   16    1     -2.72      0.00
   10   16    1     -0.83      0.00
   11   16    1      0.37      0.00
   12   16    1      1.62      0.00
   13   16    1     -1.65      0.00
   14   16    1     -1.25      0.00
   15   16    1     -3.11      0.00
   16   16    1      4.94      0.00
  -15   17    1      0.65      0.00
  -14   17    1      2.17      0.00
  -13   17    1     -3.75      0.00
  -12   17    1      3.06      0.00
  -11   17    1     -1.20      0.00
  -10   17    1      0.91      0.00
   -9   17    1      0.02      0.00
   -8   17    1      1.87      0.00
   -7   17    1     -1.10      0.00
   -6   17    1      0.23      0.00
   -5   17    1      0.78      0.00
   -4   17    1      1.99      0.00
   -3   17    1      3.06      0.00
   -2   17    1      2.93      0.00
   -1   17    1     -0.46      0.00
    0   17    1     -2.65      0.00
    1   17    1      0.96      0.00
    2   17    1     -0.07      0.00
    3   17    1     -0.25      0.00
    4   17    1      1.89      0.00
    5   17    1     -2.34      0.00
    6   17    1     -1.05      0.00
    7   17    1     -0.19      0.00
    8   17    1      0.14      0.00
    9   17    1     -2.44      0.00
   10   17    1     -0.38      0.00
   11   17    1      1.62      0.00
   12   17    1      5.81      0.00
   13   17    1     -3.75      0.00
   14   17    1      2.59      0.00
   15   17    1      3.05      0.00
  -14   18    1     -2.40      0.00
  -13   18    1     -0.13      0.00
  -12   18    1      2.45      0.00
  -11   18    1     -2.30      0.00
  -10   18    1     -0.14      0.00
   -9   18    1      0.25      0.00
   -8   18    1      1.85      0.00
   -7   18    1     -2.32      0.00
   -6   18    1     -1.54      0.00
   -5   18    1     -2.68      0.00
   -4   18    1      1.64      0.00
   -3   18    1      0.45      0.00
   -2   18    1     -4.19      0.00
   -1   18    1     -1.88      0.00
    0   18    1     -2.20      0.00
    1   18    1      1.78      0.00
    2   18    1     -1.94      0.00
    3   18    1     -1.32      0.00
    4   18    1      1.01      0.00
    5   18    1     -1.44      0.00
    6   18    1      2.05      0.00
    7   18    1      0.81      0.00
    8   18    1      2.68      0.00
    9   18    1      0.53      0.00
   10   18    1      1.36      0.00
   11   18    1      4.73      0.00
   12   18    1     -3.81      0.00
  -12   19    1      4.01      0.00
  -11   19    1      0.34      0.00
  -10   19    1      1.90      0.00
   -9   19    1      1.03      0.00
   -8   19    1     -0.34      0.00
   -7   19    1     -0.40      0.00
   -6   19    1     -1.69      0.00
   -5   19    1      2.73      0.00
   -4   19    1      0.47      0.00
   -3   19    1     -0.40      0.00
   -2   19    1     -1.33      0.00
   -1   19    1     -0.26      0.00
    0   19    1     -2.11      0.00
    1   19    1      1.82      0.00
    2   19    1     -3.47      0.00
    3   19    1     -0.16      0.00
    4   19    1      1.03      0.00
    5   19    1      0.37      0.00
    6   19    1      0.86      0.00
    7   19    1     -2.42      0.00
    8   19    1     -0.46      0.00
    9   19    1     -4.57      0.00
   10   19    1      1.69      0.00
   11   19    1     -2.12      0.00
   12   19    1      1.19      0.00
  -12   20    1      3.44      0.00
  -11   20    1     -2.45      0.00
   -8   20    1      0.42      0.00
   -7   20    1     -0.07      0.00
   -6   20    1      1.73      0.00
   -5   20    1     -1.34      0.00
   -4   20    1     -1.24      0.00
   -3   20    1      0.52      0.00
   -2   20    1     -0.23      0.00
   -1   20    1     -0.83      0.00
    0   20    1      1.10      0.00
    1   20    1      1.22      0.00
    2   20    1     -0.09      0.00
    3   20    1      2.59      0.00
    4   20    1     -1.53      0.00
    5   20    1     -2.23      0.00
    6   20    1      0.27      0.00
    7   20    1      1.41      0.00
   11   20    1      1.46      0.00
   12   20    1     -5.02      0.00
   -6   21    1     -4.42      0.00
   -5   21    1     -1.68      0.00
   -4   21    1      0.00      0.00
   -3   21    1      0.18      0.00
   -2   21    1     -1.71      0.00
   -1   21    1      0.03      0.00
    0   21    1      2.31      0.00
    1   21    1     -1.63      0.00
    2   21    1      2.32      0.00
    3   21    1     -0.70      0.00
    4   21    1     -2.78      0.00
    5   21    1     -2.45      0.00
   -5   22    1     -0.76      0.00
   -4   22    1      3.38      0.00
   -3   22    1     -1.17      0.00
   -2   22    1      0.31      0.00
   -1   22    1      2.18      0.00
    0   22    1     -0.02      0.00
    1   22    1     -0.70      0.00
   -4   23    1     -0.13      0.00
    0    0    2     54.78      0.00
    0    1    2     38.14      0.00
    1    1    2     28.63      0.00
   -1    2    2    -40.40      0.00
    0    2    2     63.16      0.00
    1    2    2     -3.46      0.00
    2    2    2     43.23      0.00
   -2    3    2    -11.81      0.00
   -1    3    2     -7.70      0.00
    0    3    2     27.04      0.00
    1    3    2    -21.32      0.00
    2    3    2     15.20      0.00
    3    3    2    -10.04      0.00
   -3    4    2    -31.03      0.00
   -2    4    2     -2.10      0.00
   -1    4    2    -24.21      0.00
    0    4    2     31.89      0.00
    1    4    2     -8.38      0.00
    2    4    2      5.75      0.00
    3    4    2      8.28      0.00
    4    4    2     14.57      0.00
   -4    5    2    -16.11      0.00
   -3    5    2    -14.64      0.00
   -2    5    2     -2.92      0.00
   -1    5    2     -3.17      0.00
    0    5    2     32.70      0.00
    1    5    2    -23.25      0.00
    2    5    2     21.10      0.00
    3    5    2     -0.38      0.00
    4    5    2     -2.69      0.00
    5    5    2      0.97      0.00
   -5    6    2     -5.03      0.00
   -4    6    2     -8.27      0.00
   -3    6    2     -0.40      0.00
   -2    6    2     15.88      0.00
   -1    6    2     13.93      0.00
    0    6    2     -0.40      0.00
    1    6    2    -13.42      0.00
    2    6    2     18.34      0.00
    3    6    2    -12.16      0.00
    4    6    2      5.81      0.00
    5    6    2      0.68      0.00
    6    6    2     -1.97      0.00
   -6    7    2     -2.13      0.00
   -5    7    2     -4.77      0.00
   -4    7    2     -1.86      0.00
   -3    7    2      7.88      0.00
   -2    7    2      9.33      0.00
   -1    7    2     -8.44      0.00
    0    7    2     -6.02      0.00
    1    7    2     -1.57      0.00
    2    7    2      4.10      0.00
    3    7    2      0.50      0.00
    4    7    2      8.13      0.00
    5    7    2     -7.23      0.00
    6    7    2     -1.54      0.00
    7    7    2      4.67      0.00
   -7    8    2      2.84      0.00
   -6    8    2     -1.85      0.00
   -5    8    2      3.04      0.00
   -4    8    2      9.34      0.00
   -3    8    2      3.60      0.00
   -2    8    2     -4.80      0.00
   -1    8    2     -7.41      0.00
    0    8    2     10.55      0.00
    1    8    2     -2.07      0.00
    2    8    2      9.19      0.00
    3    8    2      2.07      0.00
    4    8    2     -3.69      0.00
    5    8    2     -4.84      0.00
    6    8    2      6.67      0.00
    7    8    2     -2.09      0.00
    8    8    2      0.67      0.00
   -8    9    2      3.49      0.00
   -7    9    2      1.23      0.00
   -6    9    2      3.55      0.00
   -5    9    2      4.26      0.00
   -4    9    2     -1.54      0.00
   -3    9    2     -1.93      0.00
   -2    9    2     -1.90      0.00
   -1    9    2      1.60      0.00
    0    9    2      3.55      0.00
    1    9    2     -0.08      0.00
    2    9    2      7.47      0.00
    3    9    2     -8.34      0.00
    4    9    2     -3.57      0.00
    5    9    2      8.94      0.00
    6    9    2     -0.07      0.00
    7    9    2     -3.41      0.00
    8    9    2      1.40      0.00
    9    9    2     -2.91      0.00
   -9   10    2      4.26      0.00
   -8   10    2      1.80      0.00
   -7   10    2      0.57      0.00
   -6   10    2      4.96      0.00
   -5   10    2     -2.43      0.00
   -4   10    2     -0.14      0.00
   -3   10    2      2.50      0.00
   -2   10    2      2.62      0.00
   -1   10    2      0.09      0.00
    0   10    2      1.82      0.00
    1   10    2      3.59      0.00
    2   10    2      5.44      0.00
    3   10    2     -3.05      0.00
    4   10    2      6.48      0.00
    5   10    2      0.09      0.00
    6   10    2     -2.07      0.00
    7   10    2     -0.34      0.00
    8   10    2     -2.57      0.00
    9   10    2     -0.72      0.00
   10   10    2      4.57      0.00
  -10   11    2      4.85      0.00
   -9   11    2      1.82      0.00
   -8   11    2      0.07      0.00
   -7   11    2      3.23      0.00
   -6   11    2     -2.31      0.00
   -5   11    2     -0.03      0.00
   -4   11    2      3.56      0.00
   -3   11    2     -0.82      0.00
   -2   11    2     -5.11      0.00
   -1   11    2      1.59      0.00
    0   11    2      4.13      0.00
    1   11    2      1.23      0.00
    2   11    2      0.30      0.00
    3   11    2     -1.67      0.00
    4   11    2      1.46      0.00
    5   11    2     -4.04      0.00
    6   11    2     -0.57      0.00
    7   11    2     -0.15      0.00
    8   11    2      0.90      0.00
    9   11    2      3.65      0.00
   10   11    2      1.75      0.00
   11   11    2     -4.05      0.00
  -11   12    2      2.52      0.00
  -10   12    2     -0.77      0.00
   -9   12    2     -1.41      0.00
   -8   12    2      2.02      0.00
   -7   12    2     -0.23      0.00
   -6   12    2      2.29      0.00
   -5   12    2      3.02      0.00
   -4   12    2      1.56      0.00
   -3   12    2     -8.63      0.00
   -2   12    2      3.03      0.00
   -1   12    2      5.37      0.00
    0   12    2      4.51      0.00
    1   12    2      0.45      0.00
    2   12    2     -1.58      0.00
    3   12    2     -1.43      0.00
    4   12    2      1.71      0.00
    5   12    2      0.31      0.00
    6   12    2      0.91      0.00
    7   12    2      1.01      0.00
    8   12    2      4.22      0.00
    9   12    2      0.28      0.00
   10   12    2     -1.74      0.00
   11   12    2      0.14      0.00
   12   12    2      3.23      0.00
  -12   13    2      1.10      0.00
  -11   13    2     -1.28      0.00
  -10   13    2     -0.48      0.00
   -9   13    2      1.50      0.00
   -8   13    2      2.85      0.00
   -7   13    2      1.51      0.00
   -6   13    2     -0.21      0.00
   -5   13    2     -0.09      0.00
   -4   13    2     -5.63      0.00
   -3   13    2      5.60      0.00
   -2   13    2      2.77      0.00
   -1   13    2      0.08      0.00
    0   13    2      0.55      0.00
    1   13    2     -3.86      0.00
    2   13    2     -0.68      0.00
    3   13    2      2.13      0.00
    4   13    2      2.43      0.00
    5   13    2      1.53      0.00
    6   13    2      1.89      0.00
    7   13    2      1.87      0.00
    8   13    2     -1.18      0.00
    9   13    2     -1.28      0.00
   10   13    2     -0.56      0.00
   11   13    2      1.01      0.00
   12   13    2     -0.21      0.00
   13   13    2     -2.11      0.00
  -13   14    2      2.42      0.00
  -12   14    2      0.99      0.00
  -11   14    2      3.13      0.00
  -10   14    2      3.00      0.00
   -9   14    2      1.42      0.00
   -8   14    2      1.34      0.00
   -7   14    2     -1.35      0.00
   -6   14    2      0.07      0.00
   -5   14    2      0.25      0.00
   -4   14    2      2.90      0.00
   -3   14    2      1.96      0.00
   -2   14    2     -5.54      0.00
   -1   14    2     -0.46      0.00
    0   14    2     -2.44      0.00
    1   14    2     -0.76      0.00
    2   14    2      4.45      0.00
    3   14    2      3.19      0.00
    4   14    2     -1.28      0.00
    5   14    2     -1.52      0.00
    6   14    2      1.36      0.00
    7   14    2     -1.12      0.00
    8   14    2     -1.58      0.00
    9   14    2     -1.40      0.00
   10   14    2      2.52      0.00
   11   14    2     -0.99      0.00
   12   14    2     -0.20      0.00
   13   14    2     -2.28      0.00
   14   14    2      1.51      0.00
  -14   15    2     -0.28      0.00
  -13   15    2      2.13      0.00
  -12   15    2     -0.16      0.00
  -11   15    2      2.52      0.00
  -10   15    2      1.67      0.00
   -9   15    2     -2.38      0.00
   -8   15    2     -0.22      0.00
   -7   15    2      1.49      0.00
   -6   15    2      1.75      0.00
   -5   15    2      2.74      0.00
   -4   15    2     -2.48      0.00
   -3   15    2     -1.56      0.00
   -2   15    2     -2.91      0.00
   -1   15    2      2.27      0.00
    0   15    2     -0.25      0.00
    1   15    2      2.15      0.00
    2   15    2      1.71      0.00
    3   15    2     -3.20      0.00
    4   15    2     -1.60      0.00
    5   15    2      0.61      0.00
    6   15    2      0.06      0.00
    7   15    2     -1.70      0.00
    8   15    2     -1.64      0.00
    9   15    2      0.72      0.00
   10   15    2     -2.60      0.00
   11   15    2     -2.53      0.00
   12   15    2      0.76      0.00
   13   15    2      1.71      0.00
   14   15    2     -2.34      0.00
   15   15    2     -3.10      0.00
  -15   16    2     -2.55      0.00
  -14   16    2      1.01      0.00
  -13   16    2      0.95      0.00
  -12   16    2      0.38      0.00
  -11   16    2     -0.56      0.00
  -10   16    2     -0.74      0.00
   -9   16    2     -0.29      0.00
   -8   16    2      3.57      0.00
   -7   16    2     -1.72      0.00
   -6   16    2     -1.57      0.00
   -5   16    2     -4.45      0.00
   -4   16    2     -1.47      0.00
   -3   16    2     -0.39      0.00
   -2   16    2     -1.97      0.00
   -1   16    2      0.34      0.00
    0   16    2     -0.27      0.00
    1   16    2     -0.06      0.00
    2   16    2     -2.53      0.00
    3   16    2     -2.40      0.00
    4   16    2      2.81      0.00
    5   16    2      0.13      0.00
    6   16    2     -0.35      0.00
    7   16    2     -2.12      0.00
    8   16    2      0.83      0.00
    9   16    2     -1.54      0.00
   10   16    2     -0.28      0.00
   11   16    2      0.60      0.00
   12   16    2      0.20      0.00
   13   16    2     -2.67      0.00
   14   16    2     -0.21      0.00
   15   16    2      2.69      0.00
   16   16    2      0.97      0.00
  -15   17    2     -0.22      0.00
  -14   17    2      1.87      0.00
  -13   17    2     -0.50      0.00
  -12   17    2      7.14      0.00
  -11   17    2     -0.37      0.00
  -10   17    2     -0.48      0.00
   -9   17    2      0.84      0.00
   -8   17    2      4.14      0.00
   -7   17    2     -1.79      0.00
   -6   17    2     -0.75      0.00
   -5   17    2      0.23      0.00
   -4   17    2      3.99      0.00
   -3   17    2      0.34      0.00
   -2   17    2      1.49      0.00
   -1   17    2      1.77      0.00
    0   17    2     -1.97      0.00
    1   17    2     -1.09      0.00
    2   17    2     -0.98      0.00
    3   17    2      0.14      0.00
    4   17    2      1.37      0.00
    5   17    2      0.03      0.00
    6   17    2     -0.30      0.00
    7   17    2     -2.84      0.00
    8   17    2      0.25      0.00
    9   17    2     -1.58      0.00
   10   17    2     -0.29      0.00
   11   17    2     -0.49      0.00
   12   17    2      4.89      0.00
   13   17    2     -2.24      0.00
   14   17    2     11.50      0.00
   15   17    2     -2.11      0.00
  -14   18    2     -0.04      0.00
  -13   18    2      1.13      0.00
  -12   18    2      1.06      0.00
  -11   18    2     -2.90      0.00
  -10   18    2      0.72      0.00
   -9   18    2     -3.54      0.00
   -8   18    2      0.82      0.00
   -7   18    2     -2.68      0.00
   -6   18    2      1.95      0.00
   -5   18    2     -1.59      0.00
   -4   18    2      0.94      0.00
   -3   18    2     -1.31      0.00
   -2   18    2      0.73      0.00
   -1   18    2     -0.73      0.00
    0   18    2     -2.39      0.00
    1   18    2      0.89      0.00
    2   18    2      2.70      0.00
    3   18    2      0.03      0.00
    4   18    2     -0.84      0.00
    5   18    2     -2.24      0.00
    6   18    2      1.48      0.00
    7   18    2      2.10      0.00
    8   18    2      3.55      0.00
    9   18    2      1.42      0.00
   10   18    2      1.81      0.00
   11   18    2      5.90      0.00
   12   18    2     -1.20      0.00
  -12   19    2      0.54      0.00
  -11   19    2      1.00      0.00
  -10   19    2      1.43      0.00
   -9   19    2      1.81      0.00
   -8   19    2     -1.20      0.00
   -7   19    2      0.76      0.00
   -6   19    2     -0.09      0.00
   -5   19    2      1.95      0.00
   -4   19    2      2.37      0.00
   -3   19    2     -0.87      0.00
   -2   19    2     -1.52      0.00
   -1   19    2     -0.33      0.00
    0   19    2     -3.72      0.00
    1   19    2      2.32      0.00
    2   19    2     -0.58      0.00
    3   19    2     -2.76      0.00
    4   19    2      1.45      0.00
    5   19    2     -1.41      0.00
    6   19    2      2.04      0.00
    7   19    2     -0.52      0.00
    8   19    2      1.25      0.00
    9   19    2     -3.93      0.00
   10   19    2     -0.20      0.00
   11   19    2     -8.04      0.00
   12   19    2      2.90      0.00
  -11   20    2     -5.13      0.00
  -10   20    2      1.44      0.00
   -9   20    2     -4.50      0.00
   -8   20    2      4.37      0.00
   -7   20    2      0.25      0.00
   -6   20    2      2.04      0.00
   -5   20    2     -1.11      0.00
   -4   20    2     -0.63      0.00
   -3   20    2     -0.55      0.00
   -2   20    2      0.06      0.00
   -1   20    2     -0.16      0.00
    0   20    2      0.90      0.00
    1   20    2      2.80      0.00
    2   20    2     -3.71      0.00
    3   20    2      1.61      0.00
    4   20    2      0.61      0.00
    5   20    2      0.23      0.00
    6   20    2     -1.45      0.00
    7   20    2     -2.76      0.00
    8   20    2     -1.08      0.00
    9   20    2     -2.95      0.00
   10   20    2     -2.09      0.00
   11   20    2      2.21      0.00
   -5   21    2     -2.52      0.00
   -4   21    2     -1.35      0.00
   -3   21    2      2.05      0.00
   -2   21    2     -0.31      0.00
   -1   21    2     -0.48      0.00
    0   21    2      4.89      0.00
    1   21    2     -2.22      0.00
    2   21    2     -0.03      0.00
    3   21    2     -0.22      0.00
    4   21    2     -0.43      0.00
   -4   22    2      1.48      0.00
   -3   22    2     -1.48      0.00
   -2   22    2     -4.94      0.00
   -1   22    2      4.14      0.00
    1   22    2     -1.88      0.00
   -3   23    2     -5.47      0.00
    0    0    3    -20.73      0.00
    0    1    3      3.16      0.00
    1    1    3      8.80      0.00
   -1    2    3    -30.79      0.00
    0    2    3     15.60      0.00
    1    2    3     -2.50      0.00
    2    2    3     17.37      0.00
   -2    3    3    -15.80      0.00
   -1    3    3    -31.22      0.00
    0    3    3     16.73      0.00
    1    3    3      1.05      0.00
    2    3    3     13.14      0.00
    3    3    3      5.11      0.00
   -3    4    3    -28.78      0.00
   -2    4    3      4.29      0.00
   -1    4    3    -10.95      0.00
    0    4    3     28.55      0.00
    1    4    3     -9.93      0.00
    2    4    3     12.08      0.00
    3    4    3     -1.43      0.00
    4    4    3     -5.68      0.00
   -4    5    3    -19.22      0.00
   -3    5    3    -10.62      0.00
   -2    5    3     14.97      0.00
   -1    5    3      2.29      0.00
    0    5    3     10.01      0.00
    1    5    3    -28.06      0.00
    2    5    3      9.81      0.00
    3    5    3     -8.99      0.00
    4    5    3      4.10      0.00
    5    5    3     16.24      0.00
   -5    6    3    -12.65      0.00
   -4    6    3      7.71      0.00
   -3    6    3     12.93      0.00
   -2    6    3     16.94      0.00
   -1    6    3    -14.33      0.00
    0    6    3     -4.01      0.00
    1    6    3     -7.04      0.00
    2    6    3     15.11      0.00
    3    6    3     -4.84      0.00
    4    6    3     22.87      0.00
    5    6    3      0.93      0.00
    6    6    3     -4.90      0.00
   -6    7    3     -4.18      0.00
   -5    7    3     -0.25      0.00
   -4    7    3     11.42      0.00
   -3    7    3      7.90      0.00
   -2    7    3    -11.71      0.00
   -1    7    3    -20.43      0.00
    0    7    3     14.09      0.00
    1    7    3      4.30      0.00
    2    7    3      4.06      0.00
    3    7    3      3.72      0.00
    4    7    3      5.05      0.00
    5    7    3     -5.92      0.00
    6    7    3     -3.16      0.00
    7    7    3     -2.67      0.00
   -7    8    3     -0.29      0.00
   -6    8    3     -0.20      0.00
   -5    8    3      4.93      0.00
   -4    8    3      5.01      0.00
   -3    8    3     -7.60      0.00
   -2    8    3     -7.79      0.00
   -1    8    3      9.48      0.00
    0    8    3     15.24      0.00
    1    8    3    -11.73      0.00
    2    8    3     12.23      0.00
    3    8    3      1.81      0.00
    4    8    3     -3.51      0.00
    5    8    3     -2.44      0.00
    6    8    3      2.30      0.00
    7    8    3      1.24      0.00
    8    8    3      4.97      0.00
   -8    9    3      0.13      0.00
   -7    9    3     -1.19      0.00
   -6    9    3      3.77      0.00
   -5    9    3      2.20      0.00
   -4    9    3      1.76      0.00
   -3    9    3     -4.68      0.00
   -2    9    3      7.91      0.00
   -1    9    3      5.84      0.00
    0    9    3     -3.96      0.00
    1    9    3     -4.35      0.00
    2    9    3     10.27      0.00
    3    9    3     -5.99      0.00
    4    9    3      0.16      0.00
    5    9    3      2.40      0.00
    6    9    3     -1.01      0.00
    7    9    3      3.04      0.00
    8    9    3     -0.21      0.00
    9    9    3     -7.11      0.00
   -9   10    3      2.10      0.00
   -8   10    3     -0.91      0.00
   -7   10    3      3.88      0.00
   -6   10    3      1.67      0.00
   -5   10    3      2.44      0.00
   -4   10    3      4.88      0.00
   -3   10    3     -0.30      0.00
   -2   10    3     -0.06      0.00
   -1   10    3     -2.66      0.00
    0   10    3      4.84      0.00
    1   10    3      3.93      0.00
    2   10    3      3.94      0.00
    3   10    3     -2.30      0.00
    4   10    3      7.67      0.00
    5   10    3     -0.97      0.00
    6   10    3     -1.12      0.00
    7   10    3      0.03      0.00
    8   10    3     -3.59      0.00
    9   10    3     -1.69      0.00
   10   10    3      3.65      0.00
  -10   11    3      2.90      0.00
   -9   11    3      0.41      0.00
   -8   11    3      2.10      0.00
   -7   11    3      2.42      0.00
   -6   11    3     -0.90      0.00
   -5   11    3      4.88      0.00
   -4   11    3     -0.79      0.00
   -3   11    3     -4.04      0.00
   -2   11    3     -1.56      0.00
   -1   11    3      1.64      0.00
    0   11    3      4.53      0.00
    1   11    3     -0.41      0.00
    2   11    3      1.08      0.00
    3   11    3     -1.14      0.00
    4   11    3     -0.58      0.00
    5   11    3     -1.59      0.00
    6   11    3      1.34      0.00
    7   11    3     -0.86      0.00
    8   11    3     -1.68      0.00
    9   11    3      1.51      0.00
   10   11    3      0.22      0.00
   11   11    3     -0.81      0.00
  -11   12    3      0.39      0.00
  -10   12    3     -0.12      0.00
   -9   12    3      0.59      0.00
   -8   12    3      3.57      0.00
   -7   12    3     -1.58      0.00
   -6   12    3      4.72      0.00
   -5   12    3     -1.53      0.00
   -4   12    3     -3.82      0.00
   -3   12    3     -1.30      0.00
   -2   12    3      4.81      0.00
   -1   12    3      1.24      0.00
    0   12    3      0.15      0.00
    1   12    3     -2.03      0.00
    2   12    3      1.22      0.00
    3   12    3     -0.89      0.00
    4   12    3      0.97      0.00
    5   12    3     -0.40      0.00
    6   12    3      1.74      0.00
    7   12    3      1.25      0.00
    8   12    3     -0.10      0.00
    9   12    3      0.06      0.00
   10   12    3      2.26      0.00
   11   12    3      2.40      0.00
   12   12    3      0.38      0.00
  -12   13    3     -0.53      0.00
  -11   13    3     -0.21      0.00
  -10   13    3     -0.06      0.00
   -9   13    3      1.27      0.00
   -8   13    3      0.15      0.00
   -7   13    3      0.78      0.00
   -6   13    3      0.84      0.00
   -5   13    3     -2.73      0.00
   -4   13    3      0.41      0.00
   -3   13    3      4.42      0.00
   -2   13    3      2.44      0.00
   -1   13    3     -2.87      0.00
    0   13    3     -1.06      0.00
    1   13    3     -2.49      0.00
    2   13    3      2.51      0.00
    3   13    3      2.31      0.00
    4   13    3      1.32      0.00
    5   13    3     -1.04      0.00
    6   13    3      2.05      0.00
    7   13    3      0.78      0.00
    8   13    3     -2.58      0.00
    9   13    3      1.51      0.00
   10   13    3      0.48      0.00
   11   13    3     -1.85      0.00
   12   13    3     -3.02      0.00
   13   13    3      1.54      0.00
  -13   14    3      2.10      0.00
  -12   14    3      1.08      0.00
  -11   14    3     -0.80      0.00
  -10   14    3      0.62      0.00
   -9   14    3      0.77      0.00
   -8   14    3      1.33      0.00
   -7   14    3     -0.01      0.00
   -6   14    3     -0.21      0.00
   -5   14    3      0.41      0.00
   -4   14    3      3.40      0.00
   -3   14    3     -1.05      0.00
   -2   14    3     -5.30      0.00
   -1   14    3     -2.03      0.00
    0   14    3     -1.46      0.00
    1   14    3      1.37      0.00
    2   14    3      2.98      0.00
    3   14    3      1.25      0.00
    4   14    3     -1.56      0.00
    5   14    3      1.18      0.00
    6   14    3      0.37      0.00
    7   14    3     -1.19      0.00
    8   14    3      1.34      0.00
    9   14    3     -0.03      0.00
   10   14    3     -0.10      0.00
   11   14    3     -0.44      0.00
   12   14    3      0.94      0.00
   13   14    3     -1.26      0.00
   14   14    3     -0.64      0.00
  -14   15    3      0.19      0.00
  -13   15    3      3.21      0.00
  -12   15    3      1.57      0.00
  -11   15    3      0.63      0.00
  -10   15    3     -0.17      0.00
   -9   15    3      1.05      0.00
   -8   15    3      2.38      0.00
   -7   15    3      1.88      0.00
   -6   15    3     -1.79      0.00
   -5   15    3      1.92      0.00
   -4   15    3     -2.05      0.00
   -3   15    3      0.62      0.00
   -2   15    3     -0.53      0.00
   -1   15    3      0.19      0.00
    0   15    3      0.77      0.00
    1   15    3      1.38      0.00
    2   15    3     -0.64      0.00
    3   15    3     -2.70      0.00
    4   15    3     -0.58      0.00
    5   15    3      2.44      0.00
    6   15    3      0.76      0.00
    7   15    3     -1.28      0.00
    8   15    3     -0.35      0.00
    9   15    3     -0.38      0.00
   10   15    3     -3.23      0.00
   11   15    3     -0.52      0.00
   12   15    3     -0.07      0.00
   13   15    3      0.15      0.00
   14   15    3      0.83      0.00
   15   15    3      1.66      0.00
  -15   16    3     -1.83      0.00
  -14   16    3     -2.02      0.00
  -13   16    3     -0.02      0.00
  -12   16    3     -0.44      0.00
  -11   16    3      0.00      0.00
  -10   16    3      1.34      0.00
   -9   16    3     -2.01      0.00
   -8   16    3      1.24      0.00
   -7   16    3     -1.34      0.00
   -6   16    3     -0.42      0.00
   -5   16    3     -0.30      0.00
   -4   16    3     -2.92      0.00
   -3   16    3      1.18      0.00
   -2   16    3     -3.18      0.00
   -1   16    3     -0.61      0.00
    0   16    3     -0.98      0.00
    1   16    3     -0.84      0.00
    2   16    3      0.64      0.00
    3   16    3      0.41      0.00
    4   16    3      0.47      0.00
    5   16    3      0.26      0.00
    6   16    3      1.60      0.00
    7   16    3     -0.02      0.00
    8   16    3      0.99      0.00
    9   16    3     -0.03      0.00
   10   16    3     -0.40      0.00
   11   16    3      1.11      0.00
   12   16    3      0.47      0.00
   13   16    3      1.93      0.00
   14   16    3      1.28      0.00
   15   16    3      2.83      0.00
  -15   17    3      0.61      0.00
  -14   17    3      7.00      0.00
  -13   17    3      1.66      0.00
  -12   17    3     -0.06      0.00
  -11   17    3      4.17      0.00
  -10   17    3      3.91      0.00
   -9   17    3     -0.59      0.00
   -8   17    3     -0.66      0.00
   -7   17    3     -0.64      0.00
   -6   17    3      3.47      0.00
   -5   17    3      0.01      0.00
   -4   17    3      2.58      0.00
   -3   17    3     -1.66      0.00
   -2   17    3     -2.77      0.00
   -1   17    3      1.52      0.00
    0   17    3     -0.91      0.00
    1   17    3      0.12      0.00
    2   17    3      0.45      0.00
    3   17    3     -0.71      0.00
    4   17    3      0.63      0.00
    5   17    3      1.50      0.00
    6   17    3      1.68      0.00
    7   17    3     -1.97      0.00
    8   17    3     -0.71      0.00
    9   17    3     -1.24      0.00
   10   17    3     -0.75      0.00
   11   17    3     -2.62      0.00
   12   17    3      3.52      0.00
   13   17    3      3.02      0.00
   14   17    3      6.00      0.00
   15   17    3     -7.69      0.00
  -14   18    3      1.97      0.00
  -13   18    3     -3.49      0.00
  -12   18    3      1.47      0.00
  -11   18    3     -1.96      0.00
  -10   18    3      0.73      0.00
   -9   18    3     -4.46      0.00
   -8   18    3      2.02      0.00
   -7   18    3     -0.31      0.00
   -6   18    3      0.27      0.00
   -5   18    3     -2.06      0.00
   -4   18    3      0.45      0.00
   -3   18    3     -1.42      0.00
   -2   18    3      2.92      0.00
   -1   18    3      0.44      0.00
    0   18    3      0.22      0.00
    1   18    3      0.66      0.00
    2   18    3     -0.60      0.00
    3   18    3      1.49      0.00
    4   18    3      2.92      0.00
    5   18    3      0.00      0.00
    6   18    3     -1.93      0.00
    7   18    3     -0.57      0.00
    8   18    3      2.74      0.00
    9   18    3      2.10      0.00
   10   18    3      2.94      0.00
   11   18    3      6.23      0.00
   12   18    3     -0.58      0.00
   13   18    3      1.15      0.00
   14   18    3     -2.07      0.00
  -12   19    3      3.68      0.00
  -11   19    3      0.87      0.00
  -10   19    3     -7.43      0.00
   -9   19    3      2.46      0.00
   -8   19    3      4.51      0.00
   -7   19    3     -1.52      0.00
   -6   19    3     -0.87      0.00
   -5   19    3      0.86      0.00
   -4   19    3      2.45      0.00
   -3   19    3      0.94      0.00
   -2   19    3      0.07      0.00
   -1   19    3     -0.31      0.00
    0   19    3     -0.56      0.00
    1   19    3      0.35      0.00
    2   19    3      0.66      0.00
    3   19    3     -0.50      0.00
    4   19    3      1.96      0.00
    5   19    3     -3.74      0.00
    6   19    3      1.53      0.00
    7   19    3      1.22      0.00
    8   19    3      1.93      0.00
    9   19    3     -1.99      0.00
   10   19    3     -1.31      0.00
   11   19    3     -6.35      0.00
   12   19    3     -0.69      0.00
  -10   20    3      2.69      0.00
   -9   20    3      1.32      0.00
   -8   20    3     -1.02      0.00
   -7   20    3     -1.67      0.00
   -6   20    3      5.00      0.00
   -5   20    3      2.38      0.00
   -4   20    3     -0.52      0.00
   -3   20    3     -1.17      0.00
   -2   20    3      0.18      0.00
   -1   20    3      1.70      0.00
    0   20    3     -0.38      0.00
    1   20    3      2.10      0.00
    2   20    3     -0.05      0.00
    3   20    3      0.44      0.00
    4   20    3     -0.14      0.00
    5   20    3      2.10      0.00
    6   20    3      1.09      0.00
    7   20    3     -4.57      0.00
    8   20    3     -0.17      0.00
    9   20    3     -5.46      0.00
   10   20    3     -5.20      0.00
   -4   21    3      4.44      0.00
   -3   21    3      2.22      0.00
   -2   21    3      0.65      0.00
   -1   21    3      0.15      0.00
    0   21    3     -0.15      0.00
    1   21    3     -0.70      0.00
    2   21    3      3.70      0.00
    3   21    3     -3.42      0.00
    4   21    3      0.83      0.00
    5   21    3     -6.15      0.00
    6   21    3     -8.92      0.00
    7   21    3     -5.42      0.00
    8   21    3     -1.99      0.00
    9   21    3     -1.62      0.00
   -4   22    3      1.06      0.00
   -3   22    3     -2.00      0.00
   -2   22    3     -5.80      0.00
   -1   22    3      3.61      0.00
    0   22    3     -2.83      0.00
    1   22    3      1.39      0.00
    0    0    4    -26.84      0.00
    0    1    4     11.58      0.00
    1    1    4      9.10      0.00
   -1    2    4     12.00      0.00
    0    2    4     -3.98      0.00
    1    2    4    -26.95      0.00
    2    2    4      4.61      0.00
   -2    3    4      8.88      0.00
   -1    3    4    -18.44      0.00
    0    3    4    -20.46      0.00
    1    3    4     -3.30      0.00
    2    3    4     23.62      0.00
    3    3    4      7.35      0.00
   -3    4    4      5.33      0.00
   -2    4    4      0.01      0.00
   -1    4    4    -18.08      0.00
    0    4    4     17.30      0.00
    1    4    4      7.76      0.00
    2    4    4      4.08      0.00
    3    4    4    -29.45      0.00
    4    4    4      0.80      0.00
   -4    5    4      9.58      0.00
   -3    5    4     -3.56      0.00
   -2    5    4     -3.65      0.00
   -1    5    4     -7.59      0.00
    0    5    4      8.46      0.00
    1    5    4    -16.41      0.00
    2    5    4    -18.78      0.00
    3    5    4     -7.79      0.00
    4    5    4     25.61      0.00
    5    5    4     13.32      0.00
   -5    6    4      5.35      0.00
   -4    6    4      7.78      0.00
   -3    6    4     -7.44      0.00
   -2    6    4      8.23      0.00
   -1    6    4     -9.88      0.00
    0    6    4      2.69      0.00
    1    6    4    -19.00      0.00
    2    6    4     14.73      0.00
    3    6    4     15.62      0.00
    4    6    4     15.52      0.00
    5    6    4    -13.42      0.00
    6    6    4      1.39      0.00
   -6    7    4      7.79      0.00
   -5    7    4      5.43      0.00
   -4    7    4     -0.65      0.00
   -3    7    4     -2.18      0.00
   -2    7    4      1.18      0.00
   -1    7    4     -3.99      0.00
    0    7    4      4.56      0.00
    1    7    4     -4.09      0.00
    2    7    4     18.21      0.00
    3    7    4      3.48      0.00
    4    7    4     -9.05      0.00
    5    7    4     -4.69      0.00
    6    7    4      7.30      0.00
    7    7    4     -0.69      0.00
   -7    8    4      3.58      0.00
   -6    8    4      4.07      0.00
   -5    8    4     -5.17      0.00
   -4    8    4      2.70      0.00
   -3    8    4      2.92      0.00
   -2    8    4      0.50      0.00
   -1    8    4     -1.13      0.00
    0    8    4      7.56      0.00
    1    8    4      0.32      0.00
    2    8    4      9.12      0.00
    3    8    4    -10.74      0.00
    4    8    4      3.97      0.00
    5    8    4      7.02      0.00
    6    8    4     -0.33      0.00
    7    8    4     -1.68      0.00
    8    8    4      3.46      0.00
   -8    9    4      1.01      0.00
   -7    9    4      1.40      0.00
   -6    9    4     -2.78      0.00
   -5    9    4     -1.75      0.00
   -4    9    4     12.26      0.00
   -3    9    4     -0.32      0.00
   -2    9    4     -0.70      0.00
   -1    9    4     -2.68      0.00
    0    9    4      5.32      0.00
    1    9    4      0.20      0.00
    2    9    4      0.10      0.00
    3    9    4     -4.14      0.00
    4    9    4      6.37      0.00
    5    9    4     -0.13      0.00
    6    9    4     -2.16      0.00
    7    9    4      1.76      0.00
    8    9    4     -0.93      0.00
    9    9    4     -5.33      0.00
   -9   10    4      1.96      0.00
   -8   10    4      0.39      0.00
   -7   10    4      1.70      0.00
   -6   10    4      1.50      0.00
   -5   10    4      7.89      0.00
   -4   10    4      2.01      0.00
   -3   10    4     -7.64      0.00
   -2   10    4      2.00      0.00
   -1   10    4      3.14      0.00
    0   10    4      5.87      0.00
    1   10    4     -5.79      0.00
    2   10    4      4.60      0.00
    3   10    4      2.87      0.00
    4   10    4      2.82      0.00
    5   10    4     -3.48      0.00
    6   10    4      2.92      0.00
    7   10    4      2.07      0.00
    8   10    4     -1.55      0.00
    9   10    4     -3.07      0.00
   10   10    4      2.90      0.00
  -10   11    4      2.06      0.00
   -9   11    4     -0.46      0.00
   -8   11    4      0.82      0.00
   -7   11    4      2.93      0.00
   -6   11    4      3.58      0.00
   -5   11    4      0.80      0.00
   -4   11    4     -6.76      0.00
   -3   11    4     -0.32      0.00
   -2   11    4      8.12      0.00
   -1   11    4      1.09      0.00
    0   11    4     -2.82      0.00
    1   11    4     -1.33      0.00
    2   11    4      5.89      0.00
    3   11    4     -0.24      0.00
    4   11    4     -1.21      0.00
    5   11    4      0.57      0.00
    6   11    4      2.21      0.00
    7   11    4     -0.34      0.00
    8   11    4     -3.30      0.00
    9   11    4      0.17      0.00
   10   11    4      2.02      0.00
   11   11    4     -1.67      0.00
  -11   12    4      1.60      0.00
  -10   12    4     -0.22      0.00
   -9   12    4     -0.49      0.00
   -8   12    4      3.48      0.00
   -7   12    4      0.36      0.00
   -6   12    4      0.53      0.00
   -5   12    4     -2.34      0.00
   -4   12    4      1.74      0.00
   -3   12    4      3.59      0.00
   -2   12    4     -0.31      0.00
   -1   12    4     -4.60      0.00
    0   12    4      1.25      0.00
    1   12    4      0.44      0.00
    2   12    4      0.79      0.00
    3   12    4     -2.23      0.00
    4   12    4      4.02      0.00
    5   12    4      1.90      0.00
    6   12    4     -0.33      0.00
    7   12    4     -2.91      0.00
    8   12    4     -0.05      0.00
    9   12    4      3.40      0.00
   10   12    4      0.48      0.00
   11   12    4      1.18      0.00
   12   12    4      0.57      0.00
  -12   13    4      0.94      0.00
  -11   13    4      0.58      0.00
  -10   13    4     -1.01      0.00
   -9   13    4      0.43      0.00
   -8   13    4      1.11      0.00
   -7   13    4     -1.00      0.00
   -6   13    4     -0.66      0.00
   -5   13    4     -0.51      0.00
   -4   13    4      3.36      0.00
   -3   13    4     -0.08      0.00
   -2   13    4     -0.16      0.00
   -1   13    4     -1.50      0.00
    0   13    4      2.42      0.00
    1   13    4     -1.34      0.00
    2   13    4      1.20      0.00
    3   13    4      1.73      0.00
    4   13    4      0.79      0.00
    5   13    4     -2.82      0.00
    6   13    4      0.24      0.00
    7   13    4     -1.87      0.00
    8   13    4      1.14      0.00
    9   13    4      0.97      0.00
   10   13    4     -4.53      0.00
   11   13    4     -0.99      0.00
   12   13    4     -0.11      0.00
   13   13    4      0.20      0.00
  -13   14    4      1.14      0.00
  -12   14    4     -0.75      0.00
  -11   14    4     -3.59      0.00
  -10   14    4     -0.74      0.00
   -9   14    4     -0.11      0.00
   -8   14    4      0.83      0.00
   -7   14    4     -1.53      0.00
   -6   14    4      1.96      0.00
   -5   14    4     -0.15      0.00
   -4   14    4     -0.38      0.00
   -3   14    4     -0.83      0.00
   -2   14    4      0.50      0.00
   -1   14    4     -0.65      0.00
    0   14    4      0.06      0.00
    1   14    4     -0.20      0.00
    2   14    4      1.11      0.00
    3   14    4     -0.26      0.00
    4   14    4     -3.95      0.00
    5   14    4      2.21      0.00
    6   14    4      1.06      0.00
    7   14    4      0.87      0.00
    8   14    4      2.47      0.00
    9   14    4     -0.65      0.00
   10   14    4     -0.06      0.00
   11   14    4      1.91      0.00
   12   14    4      0.89      0.00
   13   14    4      0.83      0.00
   14   14    4     -1.48      0.00
  -14   15    4      4.92      0.00
  -13   15    4      2.07      0.00
  -12   15    4     -2.36      0.00
  -11   15    4      2.26      0.00
  -10   15    4      2.53      0.00
   -9   15    4      0.80      0.00
   -8   15    4     -1.60      0.00
   -7   15    4     -0.70      0.00
   -6   15    4      1.03      0.00
   -5   15    4      2.29      0.00
   -4   15    4      1.07      0.00
   -3   15    4      0.29      0.00
   -2   15    4      0.94      0.00
   -1   15    4     -0.59      0.00
    0   15    4     -0.45      0.00
    1   15    4     -2.56      0.00
    2   15    4     -1.22      0.00
    3   15    4      0.43      0.00
    4   15    4      1.60      0.00
    5   15    4      0.97      0.00
    6   15    4      1.82      0.00
    7   15    4      2.90      0.00
    8   15    4     -0.85      0.00
    9   15    4     -0.22      0.00
   10   15    4      0.50      0.00
   11   15    4     -0.55      0.00
   12   15    4     -2.87      0.00
   13   15    4      1.95      0.00
   14   15    4      3.40      0.00
   15   15    4     -0.39      0.00
  -15   16    4      1.42      0.00
  -14   16    4     -0.61      0.00
  -13   16    4     -2.71      0.00
  -12   16    4     -1.48      0.00
  -11   16    4     -1.09      0.00
  -10   16    4      1.30      0.00
   -9   16    4     -0.94      0.00
   -8   16    4     -1.04      0.00
   -7   16    4      1.11      0.00
   -6   16    4      0.98      0.00
   -5   16    4      3.87      0.00
   -4   16    4     -2.48      0.00
   -3   16    4      1.07      0.00
   -2   16    4     -2.99      0.00
   -1   16    4     -3.33      0.00
    0   16    4     -0.95      0.00
    1   16    4      0.46      0.00
    2   16    4      1.76      0.00
    3   16    4      3.15      0.00
    4   16    4      0.75      0.00
    5   16    4      1.86      0.00
    6   16    4      1.96      0.00
    7   16    4     -0.36      0.00
    8   16    4      1.42      0.00
    9   16    4      0.37      0.00
   10   16    4     -0.57      0.00
   11   16    4      3.89      0.00
   12   16    4     -0.43      0.00
   13   16    4      4.26      0.00
   14   16    4      0.86      0.00
   15   16    4      0.33      0.00
  -14   17    4      1.98      0.00
  -13   17    4      3.73      0.00
  -12   17    4      0.95      0.00
  -11   17    4      3.71      0.00
  -10   17    4     -1.83      0.00
   -9   17    4      0.24      0.00
   -8   17    4      5.08      0.00
   -7   17    4      1.58      0.00
   -6   17    4      1.63      0.00
   -5   17    4     -2.01      0.00
   -4   17    4     -3.29      0.00
   -3   17    4      0.34      0.00
   -2   17    4     -1.88      0.00
   -1   17    4     -0.64      0.00
    0   17    4      1.18      0.00
    1   17    4      0.26      0.00
    2   17    4      1.12      0.00
    3   17    4     -1.03      0.00
    4   17    4      2.08      0.00
    5   17    4      2.63      0.00
    6   17    4      0.33      0.00
    7   17    4     -1.23      0.00
    8   17    4      0.32      0.00
    9   17    4     -2.04      0.00
   10   17    4     -1.49      0.00
   11   17    4      0.40      0.00
   12   17    4      1.46      0.00
   13   17    4      1.33      0.00
   14   17    4     -3.15      0.00
  -13   18    4     -6.47      0.00
  -12   18    4      4.35      0.00
  -11   18    4      1.47      0.00
  -10   18    4      0.33      0.00
   -9   18    4     -2.10      0.00
   -8   18    4     -0.16      0.00
   -7   18    4      0.63      0.00
   -6   18    4     -1.71      0.00
   -5   18    4     -1.86      0.00
   -4   18    4     -0.03      0.00
   -3   18    4      0.62      0.00
   -2   18    4      2.35      0.00
   -1   18    4      0.71      0.00
    0   18    4     -0.62      0.00
    1   18    4      0.53      0.00
    2   18    4      0.13      0.00
    3   18    4      1.53      0.00
    4   18    4      1.55      0.00
    5   18    4     -0.49      0.00
    6   18    4     -2.14      0.00
    7   18    4      0.43      0.00
    8   18    4      1.29      0.00
    9   18    4      2.16      0.00
   10   18    4      0.79      0.00
   11   18    4      1.05      0.00
   12   18    4      3.55      0.00
   13   18    4      0.39      0.00
  -11   19    4      2.12      0.00
  -10   19    4     -2.31      0.00
   -9   19    4     -3.21      0.00
   -8   19    4      0.13      0.00
   -7   19    4     -0.62      0.00
   -6   19    4      0.97      0.00
   -5   19    4      0.29      0.00
   -4   19    4      2.17      0.00
   -3   19    4      1.82      0.00
   -2   19    4     -2.32      0.00
   -1   19    4     -1.85      0.00
    0   19    4     -0.09      0.00
    1   19    4      0.46      0.00
    2   19    4      3.12      0.00
    3   19    4      0.22      0.00
    4   19    4     -1.02      0.00
    5   19    4     -2.64      0.00
    6   19    4      2.16      0.00
    7   19    4      0.03      0.00
    8   19    4      0.02      0.00
    9   19    4      3.59      0.00
   11   19    4     -2.88      0.00
   12   19    4     -3.45      0.00
   -8   20    4     -1.61      0.00
   -7   20    4      0.61      0.00
   -6   20    4     -1.41      0.00
   -5   20    4     -0.18      0.00
   -4   20    4     -0.17      0.00
   -3   20    4      0.98      0.00
   -2   20    4      0.05      0.00
   -1   20    4      3.07      0.00
    0   20    4      2.39      0.00
    1   20    4      0.13      0.00
    2   20    4      0.45      0.00
    3   20    4      2.05      0.00
    4   20    4      0.75      0.00
    5   20    4      3.80      0.00
    6   20    4      4.93      0.00
    7   20    4     -3.24      0.00
    8   20    4     -0.77      0.00
   -4   21    4      6.47      0.00
   -3   21    4      3.39      0.00
   -2   21    4      1.46      0.00
   -1   21    4      1.38      0.00
    0   21    4     -2.07      0.00
    1   21    4     -1.85      0.00
    2   21    4      2.44      0.00
    3   21    4     -4.26      0.00
    4   21    4      6.64      0.00
    5   21    4     -4.39      0.00
    6   21    4     -8.60      0.00
    7   21    4     -6.29      0.00
    8   21    4     -3.32      0.00
   -3   22    4     -3.52      0.00
   -2   22    4     -2.87      0.00
   -1   22    4      1.06      0.00
    0   22    4     -2.04      0.00
    0    0    5     -6.34      0.00
    0    1    5      2.55      0.00
    1    1    5      1.90      0.00
   -1    2    5     -1.32      0.00
    0    2    5      0.83      0.00
    1    2    5      0.12      0.00
    2    2    5     -2.87      0.00
   -2    3    5    -23.89      0.00
   -1    3    5     -3.24      0.00
    0    3    5      5.63      0.00
    1    3    5     -4.25      0.00
    2    3    5    -24.36      0.00
    3    3    5      3.66      0.00
   -3    4    5    -17.20      0.00
   -2    4    5      7.81      0.00
   -1    4    5     15.98      0.00
    0    4    5     -0.61      0.00
    1    4    5    -27.56      0.00
    2    4    5      8.74      0.00
    3    4    5      9.42      0.00
    4    4    5     -7.30      0.00
   -4    5    5     -6.32      0.00
   -3    5    5      5.09      0.00
   -2    5    5     13.75      0.00
   -1    5    5     -7.74      0.00
    0    5    5    -22.61      0.00
    1    5    5     -4.75      0.00
    2    5    5     11.05      0.00
    3    5    5     -8.91      0.00
    4    5    5     -3.89      0.00
    5    5    5      4.92      0.00
   -5    6    5     -4.91      0.00
   -4    6    5     12.30      0.00
   -3    6    5      4.34      0.00
   -2    6    5     -3.21      0.00
   -1    6    5    -18.92      0.00
    0    6    5      9.46      0.00
    1    6    5      0.72      0.00
    2    6    5      0.07      0.00
    3    6    5     -6.43      0.00
    4    6    5     13.12      0.00
    5    6    5      0.71      0.00
    6    6    5      2.57      0.00
   -6    7    5      0.62      0.00
   -5    7    5      4.11      0.00
   -4    7    5      8.97      0.00
   -3    7    5     -1.72      0.00
   -2    7    5     -2.10      0.00
   -1    7    5      0.70      0.00
    0    7    5      7.75      0.00
    1    7    5     -4.93      0.00
    2    7    5      4.04      0.00
    3    7    5      0.62      0.00
    4    7    5      3.12      0.00
    5    7    5      0.69      0.00
    6    7    5      1.75      0.00
    7    7    5     -1.57      0.00
   -7    8    5     -0.80      0.00
   -6    8    5      7.50      0.00
   -5    8    5      5.17      0.00
   -4    8    5      1.51      0.00
   -3    8    5     -4.79      0.00
   -2    8    5      5.75      0.00
   -1    8    5      1.18      0.00
    0    8    5      0.72      0.00
    1    8    5     -5.09      0.00
    2    8    5      9.29      0.00
    3    8    5     -1.42      0.00
    4    8    5      3.69      0.00
    5    8    5     -2.74      0.00
    6    8    5      1.34      0.00
    7    8    5      4.35      0.00
    8    8    5      1.98      0.00
   -8    9    5     -3.81      0.00
   -7    9    5      3.74      0.00
   -6    9    5      6.29      0.00
   -5    9    5     -1.96      0.00
   -4    9    5     -2.30      0.00
   -3    9    5     -1.88      0.00
   -2    9    5      5.75      0.00
   -1    9    5     -1.23      0.00
    0    9    5      0.52      0.00
    1    9    5      2.17      0.00
    2    9    5      4.70      0.00
    3    9    5     -1.73      0.00
    4    9    5     -2.33      0.00
    5    9    5     -1.92      0.00
    6    9    5      5.08      0.00
    7    9    5     -0.66      0.00
    8    9    5     -3.95      0.00
    9    9    5      0.76      0.00
   -9   10    5     -1.36      0.00
   -8   10    5      4.30      0.00
   -7   10    5      4.29      0.00
   -6   10    5      0.27      0.00
   -5   10    5     -2.92      0.00
   -4   10    5      1.77      0.00
   -3   10    5      2.19      0.00
   -2   10    5      3.79      0.00
   -1   10    5     -4.60      0.00
    0   10    5      5.80      0.00
    1   10    5      0.83      0.00
    2   10    5     -0.17      0.00
    3   10    5     -6.75      0.00
    4   10    5      2.88      0.00
    5   10    5      6.14      0.00
    6   10    5      1.56      0.00
    7   10    5     -5.84      0.00
    8   10    5      3.10      0.00
    9   10    5      2.77      0.00
   10   10    5     -0.90      0.00
  -10   11    5     -0.51      0.00
   -9   11    5      3.94      0.00
   -8   11    5      2.73      0.00
   -7   11    5     -1.08      0.00
   -6   11    5     -3.28      0.00
   -5   11    5     -1.12      0.00
   -4   11    5      4.65      0.00
   -3   11    5      2.30      0.00
   -2   11    5      0.09      0.00
   -1   11    5     -0.94      0.00
    0   11    5      3.99      0.00
    1   11    5     -1.90      0.00
    2   11    5     -2.91      0.00
    3   11    5      1.99      0.00
    4   11    5      6.30      0.00
    5   11    5      0.26      0.00
    6   11    5     -2.45      0.00
    7   11    5      0.39      0.00
    8   11    5      1.69      0.00
    9   11    5     -2.76      0.00
   10   11    5     -2.56      0.00
   11   11    5     -0.77      0.00
  -11   12    5     -2.20      0.00
  -10   12    5      2.73      0.00
   -9   12    5      0.24      0.00
   -8   12    5     -1.08      0.00
   -7   12    5     -0.34      0.00
   -6   12    5      1.43      0.00
   -5   12    5      3.53      0.00
   -4   12    5      0.78      0.00
   -3   12    5     -0.64      0.00
   -2   12    5      1.40      0.00
   -1   12    5     -0.16      0.00
    0   12    5      2.19      0.00
    1   12    5     -6.07      0.00
    2   12    5      1.78      0.00
    3   12    5      5.02      0.00
    4   12    5      0.99      0.00
    5   12    5     -3.70      0.00
    6   12    5      1.44      0.00
    7   12    5      1.03      0.00
    8   12    5      0.73      0.00
    9   12    5      0.38      0.00
   10   12    5     -0.58      0.00
   11   12    5      2.59      0.00
   12   12    5      0.85      0.00
  -12   13    5      2.28      0.00
  -11   13    5      2.26      0.00
  -10   13    5     -0.88      0.00
   -9   13    5     -2.68      0.00
   -8   13    5      1.58      0.00
   -7   13    5     -0.26      0.00
   -6   13    5      2.43      0.00
   -5   13    5     -0.15      0.00
   -4   13    5     -1.72      0.00
   -3   13    5      0.68      0.00
   -2   13    5      1.47      0.00
   -1   13    5     -0.06      0.00
    0   13    5     -1.21      0.00
    1   13    5     -1.24      0.00
    2   13    5      4.72      0.00
    3   13    5     -0.02      0.00
    4   13    5     -2.60      0.00
    5   13    5     -1.68      0.00
    6   13    5      2.84      0.00
    7   13    5     -1.08      0.00
    8   13    5      0.30      0.00
    9   13    5     -1.89      0.00
   10   13    5     -0.28      0.00
   11   13    5      2.66      0.00
   12   13    5     -1.15      0.00
   13   13    5     -1.65      0.00
  -13   14    5     -2.11      0.00
  -12   14    5     -0.10      0.00
  -11   14    5     -2.70      0.00
  -10   14    5     -3.55      0.00
   -9   14    5      0.69      0.00
   -8   14    5      1.22      0.00
   -7   14    5     -1.41      0.00
   -6   14    5      0.60      0.00
   -5   14    5     -1.00      0.00
   -4   14    5      2.37      0.00
   -3   14    5      1.52      0.00
   -2   14    5     -0.44      0.00
   -1   14    5     -1.88      0.00
    0   14    5      2.01      0.00
    1   14    5      1.97      0.00
    2   14    5     -1.53      0.00
    3   14    5     -1.52      0.00
    4   14    5     -0.43      0.00
    5   14    5      3.18      0.00
    6   14    5     -1.37      0.00
    7   14    5     -0.91      0.00
    8   14    5      2.75      0.00
    9   14    5     -0.18      0.00
   10   14    5      1.69      0.00
   11   14    5      4.23      0.00
   12   14    5     -1.75      0.00
   13   14    5      0.65      0.00
   14   14    5      0.28      0.00
  -14   15    5      4.11      0.00
  -13   15    5      2.71      0.00
  -12   15    5     -0.11      0.00
  -11   15    5      0.29      0.00
  -10   15    5      1.29      0.00
   -9   15    5     -0.07      0.00
   -8   15    5     -0.18      0.00
   -7   15    5     -0.81      0.00
   -6   15    5      0.73      0.00
   -5   15    5     -0.39      0.00
   -4   15    5      2.14      0.00
   -3   15    5      0.45      0.00
   -2   15    5      2.14      0.00
   -1   15    5     -2.38      0.00
    0   15    5      0.64      0.00
    1   15    5     -2.82      0.00
    2   15    5     -1.28      0.00
    3   15    5      1.70      0.00
    4   15    5      1.96      0.00
    5   15    5      0.17      0.00
    6   15    5      2.01      0.00
    7   15    5      3.20      0.00
    8   15    5     -0.61      0.00
    9   15    5      0.45      0.00
   10   15    5      0.05      0.00
   11   15    5     -0.86      0.00
   12   15    5     -0.62      0.00
   13   15    5      2.51      0.00
   14   15    5      1.39      0.00
   15   15    5     -2.16      0.00
  -15   16    5      1.22      0.00
  -14   16    5     -2.09      0.00
  -13   16    5     -3.26      0.00
  -12   16    5      0.99      0.00
  -11   16    5      0.05      0.00
  -10   16    5     -0.01      0.00
   -9   16    5     -0.67      0.00
   -8   16    5     -1.99      0.00
   -7   16    5      2.32      0.00
   -6   16    5      1.98      0.00
   -5   16    5      3.79      0.00
   -4   16    5     -1.75      0.00
   -3   16    5     -0.40      0.00
   -2   16    5     -1.26      0.00
   -1   16    5      0.36      0.00
    0   16    5      0.65      0.00
    1   16    5     -1.10      0.00
    2   16    5      1.66      0.00
    3   16    5      3.21      0.00
    4   16    5     -2.54      0.00
    5   16    5      2.72      0.00
    6   16    5      2.67      0.00
    7   16    5     -2.22      0.00
    8   16    5      0.97      0.00
    9   16    5      2.47      0.00
   10   16    5     -1.26      0.00
   11   16    5      2.21      0.00
   12   16    5      0.60      0.00
   13   16    5      7.33      0.00
   14   16    5     -1.77      0.00
  -14   17    5      0.24      0.00
  -13   17    5      4.93      0.00
  -12   17    5     -3.27      0.00
  -11   17    5      2.27      0.00
  -10   17    5      1.09      0.00
   -9   17    5     -2.51      0.00
   -8   17    5      1.57      0.00
   -7   17    5      3.85      0.00
   -6   17    5      1.75      0.00
   -5   17    5     -1.32      0.00
   -4   17    5     -5.07      0.00
   -3   17    5     -0.10      0.00
   -2   17    5      0.07      0.00
   -1   17    5     -0.36      0.00
    0   17    5      0.51      0.00
    1   17    5     -4.39      0.00
    2   17    5      2.85      0.00
    3   17    5     -0.14      0.00
    4   17    5      2.41      0.00
    5   17    5      1.06      0.00
    6   17    5     -1.34      0.00
    7   17    5      0.05      0.00
    8   17    5      1.98      0.00
    9   17    5     -0.29      0.00
   10   17    5      0.93      0.00
   11   17    5     -1.29      0.00
   12   17    5     -4.63      0.00
   13   17    5      3.36      0.00
  -12   18    5     -0.25      0.00
  -11   18    5      2.19      0.00
  -10   18    5      0.74      0.00
   -9   18    5      3.08      0.00
   -8   18    5     -2.12      0.00
   -7   18    5     -0.81      0.00
   -6   18    5     -3.79      0.00
   -5   18    5      0.58      0.00
   -4   18    5      1.79      0.00
   -3   18    5      3.53      0.00
   -2   18    5      0.45      0.00
   -1   18    5     -3.16      0.00
    0   18    5     -1.39      0.00
    1   18    5      1.54      0.00
    2   18    5      0.77      0.00
    3   18    5      0.95      0.00
    4   18    5      1.77      0.00
    5   18    5      0.28      0.00
    6   18    5      0.43      0.00
    7   18    5      1.34      0.00
    8   18    5     -1.68      0.00
    9   18    5      0.68      0.00
   10   18    5      0.58      0.00
   11   18    5     -1.52      0.00
   12   18    5      2.54      0.00
  -11   19    5     -1.76      0.00
  -10   19    5     -2.44      0.00
   -9   19    5     -2.97      0.00
   -8   19    5      3.93      0.00
   -7   19    5      0.21      0.00
   -6   19    5     -2.87      0.00
   -5   19    5      1.62      0.00
   -4   19    5     -1.65      0.00
   -3   19    5      0.37      0.00
   -2   19    5     -4.17      0.00
   -1   19    5     -4.25      0.00
    0   19    5      1.36      0.00
    1   19    5      1.04      0.00
    2   19    5     -0.61      0.00
    3   19    5      0.55      0.00
    4   19    5      2.43      0.00
    5   19    5     -3.19      0.00
    6   19    5      0.13      0.00
    7   19    5      1.10      0.00
    8   19    5     -2.34      0.00
    9   19    5      1.33      0.00
   10   19    5     -7.60      0.00
   11   19    5      3.60      0.00
   -5   20    5     -1.00      0.00
   -4   20    5     -2.50      0.00
   -3   20    5      1.93      0.00
   -2   20    5      0.33      0.00
   -1   20    5      0.48      0.00
    0   20    5      5.46      0.00
    1   20    5      2.31      0.00
    2   20    5     -0.82      0.00
    3   20    5      2.83      0.00
    4   20    5     -1.62      0.00
    5   20    5      3.45      0.00
    6   20    5      4.04      0.00
    7   20    5     -1.40      0.00
    8   20    5     -0.16      0.00
   -6   21    5     -0.92      0.00
   -5   21    5      0.81      0.00
   -4   21    5     -0.34      0.00
   -3   21    5      5.25      0.00
   -2   21    5     -1.45      0.00
   -1   21    5      3.65      0.00
    0   21    5     -1.93      0.00
    1   21    5     -8.36      0.00
    4   21    5      4.31      0.00
    5   21    5      0.36      0.00
    6   21    5     -1.38      0.00
    7   21    5     -9.08      0.00
   -2   22    5      1.67      0.00
   -1   22    5      0.03      0.00
    0    0    6     21.91      0.00
    0    1    6     23.67      0.00
    1    1    6    -13.27      0.00
   -1    2    6     14.16      0.00
    0    2    6     -7.99      0.00
    1    2    6    -13.08      0.00
    2    2    6      9.06      0.00
   -2    3    6     -4.32      0.00
   -1    3    6     -1.79      0.00
    0    3    6     -6.48      0.00
    1    3    6      4.81      0.00
    2    3    6     -7.44      0.00
    3    3    6     -0.87      0.00
   -3    4    6      0.98      0.00
   -2    4    6      2.18      0.00
   -1    4    6      2.12      0.00
    0    4    6      6.10      0.00
    1    4    6    -12.31      0.00
    2    4    6     -0.82      0.00
    3    4    6      0.56      0.00
    4    4    6     -4.32      0.00
   -4    5    6      3.81      0.00
   -3    5    6     11.21      0.00
   -2    5    6     -0.69      0.00
   -1    5    6      1.78      0.00
    0    5    6     -7.20      0.00
    1    5    6     -1.89      0.00
    2    5    6      2.30      0.00
    3    5    6     -7.63      0.00
    4    5    6      3.54      0.00
    5    5    6      1.84      0.00
   -5    6    6      4.49      0.00
   -4    6    6      9.81      0.00
   -3    6    6     -3.66      0.00
   -2    6    6      2.17      0.00
   -1    6    6     -2.19      0.00
    0    6    6     -2.62      0.00
    1    6    6     -6.78      0.00
    2    6    6      1.65      0.00
    3    6    6      0.16      0.00
    4    6    6      0.77      0.00
    5    6    6     -6.42      0.00
    6    6    6      7.55      0.00
   -6    7    6      5.26      0.00
   -5    7    6      3.09      0.00
   -4    7    6      0.39      0.00
   -3    7    6     -1.45      0.00
   -2    7    6      3.32      0.00
   -1    7    6     -1.71      0.00
    0    7    6     -0.52      0.00
    1    7    6      1.79      0.00
    2    7    6      8.32      0.00
    3    7    6     -3.52      0.00
    4    7    6     -2.94      0.00
    5    7    6      5.30      0.00
    6    7    6      5.76      0.00
    7    7    6     -5.47      0.00
   -7    8    6      1.33      0.00
   -6    8    6      2.91      0.00
   -5    8    6      0.69      0.00
   -4    8    6      4.91      0.00
   -3    8    6      1.13      0.00
   -2    8    6      0.87      0.00
   -1    8    6     -2.03      0.00
    0    8    6      8.13      0.00
    1    8    6      2.71      0.00
    2    8    6     -2.39      0.00
    3    8    6     -7.87      0.00
    4    8    6      9.71      0.00
    5    8    6      1.76      0.00
    6    8    6     -4.20      0.00
    7    8    6     -1.89      0.00
    8    8    6      7.28      0.00
   -8    9    6      1.47      0.00
   -7    9    6     -1.03      0.00
   -6    9    6      0.59      0.00
   -5    9    6      0.32      0.00
   -4    9    6      0.88      0.00
   -3    9    6     -2.71      0.00
   -2    9    6      3.44      0.00
   -1    9    6      4.96      0.00
    0    9    6      2.94      0.00
    1    9    6     -2.43      0.00
    2    9    6     -1.85      0.00
    3    9    6      4.11      0.00
    4    9    6      1.80      0.00
    5    9    6     -5.71      0.00
    6    9    6      2.26      0.00
    7    9    6      2.71      0.00
    8    9    6     -0.65      0.00
    9    9    6     -1.53      0.00
   -9   10    6      0.54      0.00
   -8   10    6      2.56      0.00
   -7   10    6      0.18      0.00
   -6   10    6      2.83      0.00
   -5   10    6      0.41      0.00
   -4   10    6     -0.84      0.00
   -3   10    6      0.57      0.00
   -2   10    6      9.31      0.00
   -1   10    6     -0.79      0.00
    0   10    6     -0.21      0.00
    1   10    6     -4.59      0.00
    2   10    6      1.48      0.00
    3   10    6      0.40      0.00
    4   10    6     -0.98      0.00
    5   10    6     -0.77      0.00
    6   10    6      2.49      0.00
    7   10    6     -1.40      0.00
    8   10    6      2.42      0.00
    9   10    6      0.25      0.00
   10   10    6     -1.73      0.00
  -10   11    6      0.08      0.00
   -9   11    6      3.51      0.00
   -8   11    6     -0.99      0.00
   -7   11    6     -2.03      0.00
   -6   11    6      3.78      0.00
   -5   11    6     -0.82      0.00
   -4   11    6     -1.75      0.00
   -3   11    6      3.53      0.00
   -2   11    6      1.52      0.00
   -1   11    6     -3.77      0.00
    0   11    6     -0.34      0.00
    1   11    6     -0.05      0.00
    2   11    6      0.05      0.00
    3   11    6      0.96      0.00
    4   11    6      0.84      0.00
    5   11    6     -0.56      0.00
    6   11    6      1.86      0.00
    7   11    6      0.14      0.00
    8   11    6      0.46      0.00
    9   11    6     -4.14      0.00
   10   11    6     -0.77      0.00
   11   11    6      1.48      0.00
  -11   12    6     -0.99      0.00
  -10   12    6      1.61      0.00
   -9   12    6     -1.66      0.00
   -8   12    6     -2.28      0.00
   -7   12    6      2.67      0.00
   -6   12    6      2.39      0.00
   -5   12    6     -1.86      0.00
   -4   12    6      2.87      0.00
   -3   12    6      2.75      0.00
   -2   12    6     -0.26      0.00
   -1   12    6     -3.61      0.00
    0   12    6      4.28      0.00
    1   12    6     -0.09      0.00
    2   12    6      0.99      0.00
    3   12    6      0.72      0.00
    4   12    6     -1.57      0.00
    5   12    6      0.69      0.00
    6   12    6      2.86      0.00
    7   12    6     -2.11      0.00
    8   12    6      0.45      0.00
    9   12    6      1.46      0.00
   10   12    6      2.14      0.00
   11   12    6      2.95      0.00
   12   12    6      1.17      0.00
  -12   13    6      2.59      0.00
  -11   13    6      1.05      0.00
  -10   13    6      0.58      0.00
   -9   13    6     -2.06      0.00
   -8   13    6      2.43      0.00
   -7   13    6      1.24      0.00
   -6   13    6     -0.01      0.00
   -5   13    6     -1.11      0.00
   -4   13    6      1.48      0.00
   -3   13    6      1.83      0.00
   -2   13    6     -2.00      0.00
   -1   13    6      0.87      0.00
    0   13    6      1.28      0.00
    1   13    6     -1.40      0.00
    2   13    6      0.00      0.00
    3   13    6     -1.25      0.00
    4   13    6      0.96      0.00
    5   13    6      2.81      0.00
    6   13    6      1.06      0.00
    7   13    6     -1.94      0.00
    8   13    6      1.94      0.00
    9   13    6      0.26      0.00
   10   13    6     -0.70      0.00
   11   13    6      1.77      0.00
   12   13    6      4.37      0.00
   13   13    6      1.17      0.00
  -13   14    6      0.64      0.00
  -12   14    6      1.52      0.00
  -11   14    6     -2.50      0.00
  -10   14    6     -1.13      0.00
   -9   14    6      3.68      0.00
   -8   14    6     -1.41      0.00
   -7   14    6      0.03      0.00
   -6   14    6      0.87      0.00
   -5   14    6      0.13      0.00
   -4   14    6      0.41      0.00
   -3   14    6     -0.34      0.00
   -2   14    6      0.72      0.00
   -1   14    6      2.41      0.00
    0   14    6      1.67      0.00
    1   14    6     -1.47      0.00
    2   14    6     -1.22      0.00
    3   14    6      2.08      0.00
    4   14    6      0.65      0.00
    5   14    6     -0.93      0.00
    6   14    6     -1.04      0.00
    7   14    6     -0.64      0.00
    8   14    6      1.36      0.00
    9   14    6     -0.64      0.00
   10   14    6      0.98      0.00
   11   14    6      3.41      0.00
   12   14    6     -1.11      0.00
   13   14    6     -0.22      0.00
   14   14    6     -0.23      0.00
  -14   15    6      3.39      0.00
  -13   15    6      3.33      0.00
  -12   15    6      1.41      0.00
  -11   15    6     -1.84      0.00
  -10   15    6      2.25      0.00
   -9   15    6     -3.19      0.00
   -8   15    6     -0.64      0.00
   -7   15    6      1.30      0.00
   -6   15    6     -0.45      0.00
   -5   15    6     -1.56      0.00
   -4   15    6      1.20      0.00
   -3   15    6      0.05      0.00
   -2   15    6      0.84      0.00
   -1   15    6     -0.67      0.00
    0   15    6      1.67      0.00
    1   15    6     -2.85      0.00
    2   15    6     -0.42      0.00
    3   15    6      0.59      0.00
    4   15    6     -0.97      0.00
    5   15    6     -0.31      0.00
    6   15    6      0.99      0.00
    7   15    6      0.88      0.00
    8   15    6     -0.22      0.00
    9   15    6     -0.78      0.00
   10   15    6      3.01      0.00
   11   15    6      0.43      0.00
   12   15    6     -4.87      0.00
   13   15    6      1.39      0.00
   14   15    6      7.26      0.00
   15   15    6     -2.58      0.00
  -14   16    6     -0.61      0.00
  -13   16    6      0.62      0.00
  -12   16    6      1.05      0.00
  -11   16    6      0.26      0.00
  -10   16    6     -1.50      0.00
   -9   16    6      0.38      0.00
   -8   16    6      0.48      0.00
   -7   16    6     -0.69      0.00
   -6   16    6      0.26      0.00
   -5   16    6      2.15      0.00
   -4   16    6      2.29      0.00
   -3   16    6      2.17      0.00
   -2   16    6     -1.11      0.00
   -1   16    6     -0.39      0.00
    0   16    6      0.99      0.00
    1   16    6      1.47      0.00
    2   16    6     -2.03      0.00
    3   16    6      0.91      0.00
    4   16    6     -0.16      0.00
    5   16    6      3.95      0.00
    6   16    6     -1.49      0.00
    7   16    6     -3.03      0.00
    8   16    6      1.40      0.00
    9   16    6      3.79      0.00
   10   16    6      0.21      0.00
   11   16    6      2.28      0.00
   12   16    6     -0.45      0.00
   13   16    6      7.87      0.00
  -12   17    6     -3.83      0.00
  -11   17    6     -3.79      0.00
  -10   17    6     -0.12      0.00
   -9   17    6     -0.03      0.00
   -8   17    6      2.50      0.00
   -7   17    6      2.49      0.00
   -6   17    6     -3.96      0.00
   -5   17    6      0.75      0.00
   -4   17    6     -1.37      0.00
   -3   17    6     -1.43      0.00
   -2   17    6      0.47      0.00
   -1   17    6     -4.02      0.00
    0   17    6      0.83      0.00
    1   17    6     -3.96      0.00
    2   17    6      1.73      0.00
    3   17    6      0.21      0.00
    4   17    6      4.01      0.00
    5   17    6     -2.42      0.00
    6   17    6     -0.77      0.00
    7   17    6      2.66      0.00
    8   17    6      1.39      0.00
    9   17    6     -2.39      0.00
   10   17    6     -0.82      0.00
   11   17    6     -1.15      0.00
   12   17    6     -0.76      0.00
  -12   18    6     -1.93      0.00
  -11   18    6      6.07      0.00
  -10   18    6     -0.08      0.00
   -8   18    6     -1.64      0.00
   -7   18    6     -2.30      0.00
   -6   18    6     -1.61      0.00
   -5   18    6      2.29      0.00
   -4   18    6     -0.44      0.00
   -3   18    6      2.25      0.00
   -2   18    6      1.67      0.00
   -1   18    6     -0.54      0.00
    0   18    6      0.85      0.00
    1   18    6      0.52      0.00
    2   18    6      1.07      0.00
    3   18    6      1.80      0.00
    4   18    6     -0.92      0.00
    5   18    6     -1.02      0.00
    6   18    6      3.81      0.00
    7   18    6      0.70      0.00
    8   18    6     -1.83      0.00
    9   18    6      0.25      0.00
   10   18    6     -2.45      0.00
   11   18    6     -3.68      0.00
   -8   19    6     -3.70      0.00
   -7   19    6      2.13      0.00
   -6   19    6      0.73      0.00
   -5   19    6      0.46      0.00
   -4   19    6     -7.56      0.00
   -3   19    6      1.01      0.00
   -2   19    6      0.58      0.00
   -1   19    6     -3.10      0.00
    0   19    6     -0.70      0.00
    1   19    6     -5.50      0.00
    2   19    6     -0.03      0.00
    3   19    6      1.77      0.00
    4   19    6      1.94      0.00
    5   19    6     -1.15      0.00
    6   19    6     -0.03      0.00
    7   19    6     -2.72      0.00
    8   19    6     -2.16      0.00
    9   19    6      2.37      0.00
   -8   20    6     -3.60      0.00
   -7   20    6     -2.00      0.00
   -6   20    6     -3.77      0.00
   -5   20    6      5.58      0.00
   -4   20    6      0.02      0.00
   -3   20    6     -1.56      0.00
   -2   20    6     -0.05      0.00
   -1   20    6     -4.62      0.00
    0   20    6      1.67      0.00
    1   20    6      1.32      0.00
    2   20    6      0.27      0.00
    3   20    6      4.26      0.00
    4   20    6     -4.39      0.00
    5   20    6      1.73      0.00
    6   20    6      1.18      0.00
    7   20    6     -0.30      0.00
   -7   21    6      2.21      0.00
   -6   21    6     -7.63      0.00
   -5   21    6     -0.30      0.00
   -4   21    6    -13.89      0.00
   -3   21    6      1.91      0.00
   -2   21    6     -8.15      0.00
   -1   21    6     -0.05      0.00
    0    0    7     12.26      0.00
    0    1    7      4.55      0.00
    1    1    7     -7.93      0.00
   -1    2    7      1.53      0.00
    0    2    7     -3.12      0.00
    1    2    7     -2.71      0.00
    2    2    7      6.73      0.00
   -2    3    7      1.13      0.00
   -1    3    7     -0.14      0.00
    0    3    7      0.60      0.00
    1    3    7      6.58      0.00
    2    3    7     -0.01      0.00
    3    3    7     -6.90      0.00
   -3    4    7      4.00      0.00
   -2    4    7      0.82      0.00
   -1    4    7     -1.01      0.00
    0    4    7      2.80      0.00
    1    4    7     -4.94      0.00
    2    4    7     -4.34      0.00
    3    4    7     -2.05      0.00
    4    4    7      3.25      0.00
   -4    5    7      2.39      0.00
   -3    5    7      4.57      0.00
   -2    5    7     -4.46      0.00
   -1    5    7      2.54      0.00
    0    5    7      0.30      0.00
    1    5    7      1.57      0.00
    2    5    7      3.68      0.00
    3    5    7      2.02      0.00
    4    5    7      1.06      0.00
    5    5    7     -3.28      0.00
   -5    6    7      2.21      0.00
   -4    6    7      6.18      0.00
   -3    6    7     -1.03      0.00
   -2    6    7     -0.72      0.00
   -1    6    7      1.84      0.00
    0    6    7      6.30      0.00
    1    6    7     -1.49      0.00
    2    6    7     -1.65      0.00
    3    6    7     -4.36      0.00
    4    6    7     -2.67      0.00
    5    6    7     -1.85      0.00
    6    6    7      5.50      0.00
   -6    7    7     -0.62      0.00
   -5    7    7     -0.26      0.00
   -4    7    7     -1.72      0.00
   -3    7    7     -2.74      0.00
   -2    7    7      1.64      0.00
   -1    7    7      7.70      0.00
    0    7    7      2.24      0.00
    1    7    7     -1.53      0.00
    2    7    7      2.24      0.00
    3    7    7     -2.61      0.00
    4    7    7      2.06      0.00
    5    7    7      3.73      0.00
    6    7    7     -0.44      0.00
    7    7    7     -2.43      0.00
   -7    8    7     -2.84      0.00
   -6    8    7      2.36      0.00
   -5    8    7      1.08      0.00
   -4    8    7      2.81      0.00
   -3    8    7      1.46      0.00
   -2    8    7      9.14      0.00
   -1    8    7      4.97      0.00
    0    8    7      0.17      0.00
    1    8    7     -1.28      0.00
    2    8    7     -0.31      0.00
    3    8    7     -0.42      0.00
    4    8    7      5.28      0.00
    5    8    7     -3.31      0.00
    6    8    7     -1.98      0.00
    7    8    7      2.43      0.00
    8    8    7      2.39      0.00
   -8    9    7     -1.37      0.00
   -7    9    7     -0.26      0.00
   -6    9    7      3.27      0.00
   -5    9    7      2.10      0.00
   -4    9    7      0.82      0.00
   -3    9    7      1.30      0.00
   -2    9    7      4.64      0.00
   -1    9    7      0.05      0.00
    0    9    7      0.22      0.00
    1    9    7     -0.44      0.00
    2    9    7     -0.09      0.00
    3    9    7      2.44      0.00
    4    9    7     -0.65      0.00
    5    9    7     -4.38      0.00
    6    9    7      4.60      0.00
    7    9    7      0.61      0.00
    8    9    7     -2.28      0.00
    9    9    7     -0.49      0.00
   -9   10    7     -1.57      0.00
   -8   10    7      2.46      0.00
   -7   10    7      1.98      0.00
   -6   10    7      2.83      0.00
   -5   10    7      0.97      0.00
   -4   10    7      1.39      0.00
   -3   10    7      2.31      0.00
   -2   10    7      4.41      0.00
   -1   10    7     -2.12      0.00
    0   10    7      2.31      0.00
    1   10    7      0.58      0.00
    2   10    7      0.93      0.00
    3   10    7     -0.72      0.00
    4   10    7     -1.26      0.00
    5   10    7      0.54      0.00
    6   10    7      2.43      0.00
    7   10    7     -2.71      0.00
    8   10    7      1.13      0.00
    9   10    7      1.51      0.00
   10   10    7      0.59      0.00
  -10   11    7     -2.13      0.00
   -9   11    7      1.71      0.00
   -8   11    7      2.54      0.00
   -7   11    7     -0.40      0.00
   -6   11    7      0.83      0.00
   -5   11    7     -1.44      0.00
   -4   11    7     -0.58      0.00
   -3   11    7      3.76      0.00
   -2   11    7     -1.65      0.00
   -1   11    7     -2.77      0.00
    0   11    7     -0.81      0.00
    1   11    7     -1.07      0.00
    2   11    7      0.38      0.00
    3   11    7      0.68      0.00
    4   11    7      0.64      0.00
    5   11    7      0.03      0.00
    6   11    7      1.69      0.00
    7   11    7     -1.73      0.00
    8   11    7      0.06      0.00
    9   11    7     -0.43      0.00
   10   11    7     -2.25      0.00
   11   11    7     -1.32      0.00
  -11   12    7     -3.93      0.00
  -10   12    7     -0.49      0.00
   -9   12    7      2.01      0.00
   -8   12    7     -1.73      0.00
   -7   12    7     -1.29      0.00
   -6   12    7      1.65      0.00
   -5   12    7     -1.27      0.00
   -4   12    7      3.36      0.00
   -3   12    7     -1.19      0.00
   -2   12    7     -0.51      0.00
   -1   12    7      0.16      0.00
    0   12    7      3.91      0.00
    1   12    7      1.64      0.00
    2   12    7      0.95      0.00
    3   12    7      0.10      0.00
    4   12    7     -0.97      0.00
    5   12    7      1.53      0.00
    6   12    7      1.32      0.00
    7   12    7     -2.84      0.00
    8   12    7      2.08      0.00
    9   12    7      1.59      0.00
   10   12    7      0.17      0.00
   11   12    7      1.93      0.00
   12   12    7      3.38      0.00
  -12   13    7      1.95      0.00
  -11   13    7     -4.15      0.00
  -10   13    7      1.00      0.00
   -9   13    7     -1.82      0.00
   -8   13    7      2.14      0.00
   -7   13    7      2.08      0.00
   -6   13    7      1.41      0.00
   -5   13    7     -0.16      0.00
   -4   13    7     -0.16      0.00
   -3   13    7      0.25      0.00
   -2   13    7     -0.33      0.00
   -1   13    7      2.42      0.00
    0   13    7      2.22      0.00
    1   13    7      0.22      0.00
    2   13    7     -2.13      0.00
    3   13    7     -2.41      0.00
    4   13    7     -1.25      0.00
    5   13    7      2.51      0.00
    6   13    7     -0.54      0.00
    7   13    7      0.28      0.00
    8   13    7      2.51      0.00
    9   13    7     -1.27      0.00
   10   13    7     -0.41      0.00
   11   13    7      3.92      0.00
   12   13    7      1.95      0.00
   13   13    7      1.88      0.00
  -13   14    7     -0.96      0.00
  -12   14    7      1.13      0.00
  -11   14    7      1.32      0.00
  -10   14    7      0.26      0.00
   -9   14    7      5.60      0.00
   -8   14    7      0.62      0.00
   -7   14    7     -0.89      0.00
   -6   14    7     -0.66      0.00
   -5   14    7     -0.99      0.00
   -4   14    7      0.31      0.00
   -3   14    7      1.25      0.00
   -2   14    7      0.86      0.00
   -1   14    7      0.09      0.00
    0   14    7      1.17      0.00
    1   14    7      1.13      0.00
    2   14    7     -1.89      0.00
    3   14    7     -2.61      0.00
    4   14    7      1.06      0.00
    5   14    7     -0.06      0.00
    6   14    7      0.21      0.00
    7   14    7     -0.87      0.00
    8   14    7     -0.79      0.00
    9   14    7      0.13      0.00
   10   14    7      0.80      0.00
   11   14    7      2.60      0.00
   12   14    7      1.91      0.00
   13   14    7     -0.13      0.00
   14   14    7      0.45      0.00
  -12   15    7      1.14      0.00
  -11   15    7     -2.29      0.00
  -10   15    7      4.09      0.00
   -9   15    7     -0.95      0.00
   -8   15    7     -6.47      0.00
   -7   15    7      0.32      0.00
   -6   15    7     -1.08      0.00
   -5   15    7      1.01      0.00
   -4   15    7     -0.32      0.00
   -3   15    7     -1.50      0.00
   -2   15    7      1.63      0.00
   -1   15    7      0.83      0.00
    0   15    7     -1.18      0.00
    1   15    7     -2.16      0.00
    2   15    7     -3.71      0.00
    3   15    7     -0.28      0.00
    4   15    7      1.01      0.00
    5   15    7      0.51      0.00
    6   15    7     -0.55      0.00
    7   15    7     -3.43      0.00
    8   15    7      1.17      0.00
    9   15    7     -1.20      0.00
   10   15    7     -0.29      0.00
   11   15    7      2.17      0.00
   12   15    7      0.54      0.00
   13   15    7     -1.14      0.00
   14   15    7      5.21      0.00
  -10   16    7     -0.55      0.00
   -9   16    7     -3.50      0.00
   -8   16    7      1.82      0.00
   -7   16    7      0.12      0.00
   -6   16    7      0.49      0.00
   -5   16    7      1.17      0.00
   -4   16    7      0.43      0.00
   -3   16    7      3.24      0.00
   -2   16    7      1.77      0.00
   -1   16    7      1.73      0.00
    0   16    7     -1.07      0.00
    1   16    7      0.81      0.00
    2   16    7     -1.59      0.00
    3   16    7      4.33      0.00
    4   16    7     -0.36      0.00
    5   16    7      1.42      0.00
    6   16    7     -2.24      0.00
    7   16    7      1.72      0.00
    8   16    7     -0.08      0.00
    9   16    7      0.00      0.00
   10   16    7      1.85      0.00
   11   16    7      3.43      0.00
   12   16    7     -2.36      0.00
  -10   17    7     -1.56      0.00
   -9   17    7      0.81      0.00
   -8   17    7     -1.04      0.00
   -7   17    7      1.30      0.00
   -6   17    7     -0.54      0.00
   -5   17    7      0.10      0.00
   -4   17    7     -2.60      0.00
   -3   17    7     -1.00      0.00
   -2   17    7      1.36      0.00
   -1   17    7     -3.81      0.00
    0   17    7      2.16      0.00
    1   17    7     -2.08      0.00
    2   17    7      1.22      0.00
    3   17    7      0.74      0.00
    4   17    7      4.00      0.00
    5   17    7     -3.18      0.00
    6   17    7     -1.35      0.00
    7   17    7     -0.31      0.00
    8   17    7     -1.02      0.00
    9   17    7     -0.32      0.00
   10   17    7      1.99      0.00
   11   17    7     -4.27      0.00
   -9   18    7      1.56      0.00
   -8   18    7     -0.26      0.00
   -7   18    7     -2.14      0.00
   -6   18    7      1.22      0.00
   -5   18    7      1.80      0.00
   -4   18    7      0.76      0.00
   -3   18    7      2.30      0.00
   -2   18    7      1.83      0.00
   -1   18    7     -0.08      0.00
    0   18    7      1.09      0.00
    1   18    7      2.03      0.00
    2   18    7     -1.97      0.00
    3   18    7      1.49      0.00
    4   18    7     -2.16      0.00
    5   18    7     -3.08      0.00
    6   18    7      3.85      0.00
    7   18    7     -3.68      0.00
    8   18    7      0.03      0.00
    9   18    7      2.86      0.00
   10   18    7     -2.25      0.00
   -6   19    7    -11.61      0.00
   -5   19    7      0.30      0.00
   -4   19    7      3.20      0.00
   -3   19    7     -0.27      0.00
   -2   19    7     -3.05      0.00
   -1   19    7     -4.94      0.00
    1   19    7     -5.41      0.00
    2   19    7     -2.30      0.00
    3   19    7     -0.32      0.00
    4   19    7      1.06      0.00
    5   19    7      3.83      0.00
    6   19    7      1.22      0.00
    7   19    7     -2.27      0.00
    8   19    7      2.47      0.00
    9   19    7     -0.87      0.00
   -6   20    7      2.82      0.00
   -5   20    7     14.02      0.00
   -4   20    7      0.62      0.00
   -3   20    7     -6.54      0.00
   -2   20    7      1.76      0.00
    2   20    7      2.80      0.00
    3   20    7      3.21      0.00
    4   20    7     -2.35      0.00
    5   20    7      1.05      0.00
    6   20    7     -3.63      0.00
    7   20    7      1.38      0.00
   -4   21    7    -35.62      0.00
    0    0    8     -6.08      0.00
    0    1    8     -3.59      0.00
    1    1    8      4.63      0.00
   -1    2    8     -2.99      0.00
    0    2    8      4.65      0.00
    1    2    8      1.94      0.00
    2    2    8     -3.14      0.00
   -2    3    8      1.28      0.00
   -1    3    8      4.25      0.00
    0    3    8      1.32      0.00
    1    3    8     -1.66      0.00
    2    3    8      2.80      0.00
    3    3    8     -0.97      0.00
   -3    4    8      1.31      0.00
   -2    4    8      1.14      0.00
   -1    4    8     -3.71      0.00
    0    4    8     -2.55      0.00
    1    4    8      2.48      0.00
    2    4    8      2.10      0.00
    3    4    8     -0.68      0.00
    4    4    8      2.79      0.00
   -4    5    8     -4.05      0.00
   -3    5    8     -2.61      0.00
   -2    5    8     -6.06      0.00
   -1    5    8      0.50      0.00
    0    5    8      6.68      0.00
    1    5    8      7.15      0.00
    2    5    8      2.47      0.00
    3    5    8      0.03      0.00
    4    5    8     -3.43      0.00
    5    5    8      1.13      0.00
   -5    6    8     -1.21      0.00
   -4    6    8      2.54      0.00
   -3    6    8     -0.25      0.00
   -2    6    8      2.70      0.00
   -1    6    8      8.22      0.00
    0    6    8     10.32      0.00
    1    6    8     -1.83      0.00
    2    6    8     -3.38      0.00
    3    6    8     -4.41      0.00
    4    6    8      3.56      0.00
    5    6    8      2.39      0.00
    6    6    8     -1.06      0.00
   -6    7    8     -1.51      0.00
   -5    7    8      0.04      0.00
   -4    7    8     -1.39      0.00
   -3    7    8      0.62      0.00
   -2    7    8      3.96      0.00
   -1    7    8      8.37      0.00
    0    7    8     -0.40      0.00
    1    7    8     -4.64      0.00
    2    7    8      0.24      0.00
    3    7    8      3.20      0.00
    4    7    8      3.89      0.00
    5    7    8     -3.93      0.00
    6    7    8     -1.33      0.00
    7    7    8      3.05      0.00
   -7    8    8      2.65      0.00
   -6    8    8      2.76      0.00
   -5    8    8     -1.08      0.00
   -4    8    8      3.80      0.00
   -3    8    8      3.92      0.00
   -2    8    8      7.47      0.00
   -1    8    8      0.99      0.00
    0    8    8     -0.50      0.00
    1    8    8      3.34      0.00
    2    8    8      5.12      0.00
    3    8    8      1.19      0.00
    4    8    8     -2.02      0.00
    5    8    8     -2.56      0.00
    6    8    8      2.74      0.00
    7    8    8      0.47      0.00
    8    8    8     -2.96      0.00
   -8    9    8      4.69      0.00
   -7    9    8      2.32      0.00
   -6    9    8     -1.13      0.00
   -5    9    8     -0.18      0.00
   -4    9    8      2.75      0.00
   -3    9    8      2.64      0.00
   -2    9    8      0.26      0.00
   -1    9    8     -1.71      0.00
    0    9    8      1.83      0.00
    1    9    8      0.68      0.00
    2    9    8      0.49      0.00
    3    9    8     -2.70      0.00
    4    9    8      0.15      0.00
    5    9    8     -0.16      0.00
    6    9    8      1.65      0.00
    7    9    8     -2.36      0.00
    8    9    8      3.03      0.00
    9    9    8      1.00      0.00
   -9   10    8      3.64      0.00
   -8   10    8      1.68      0.00
   -7   10    8     -1.92      0.00
   -6   10    8      0.75      0.00
   -5   10    8      2.34      0.00
   -4   10    8      3.57      0.00
   -3   10    8      0.82      0.00
   -2   10    8      2.66      0.00
   -1   10    8      2.57      0.00
    0   10    8      2.34      0.00
    1   10    8      1.52      0.00
    2   10    8      1.36      0.00
    3   10    8      1.38      0.00
    4   10    8      1.24      0.00
    5   10    8      2.32      0.00
    6   10    8      1.47      0.00
    7   10    8     -0.74      0.00
    8   10    8      0.46      0.00
    9   10    8     -2.02      0.00
   10   10    8      1.41      0.00
  -10   11    8     -0.77      0.00
   -9   11    8      0.37      0.00
   -8   11    8      0.96      0.00
   -7   11    8      1.39      0.00
   -6   11    8     -0.72      0.00
   -5   11    8      2.87      0.00
   -4   11    8      0.37      0.00
   -3   11    8      0.93      0.00
   -2   11    8     -0.31      0.00
   -1   11    8     -1.45      0.00
    0   11    8     -0.03      0.00
    1   11    8     -0.65      0.00
    2   11    8      1.77      0.00
    3   11    8     -0.79      0.00
    4   11    8      0.02      0.00
    5   11    8      0.08      0.00
    6   11    8      1.20      0.00
    7   11    8     -2.51      0.00
    8   11    8     -2.44      0.00
    9   11    8      1.79      0.00
   10   11    8     -1.87      0.00
   11   11    8     -1.06      0.00
  -11   12    8     -1.79      0.00
  -10   12    8      0.76      0.00
   -9   12    8      0.08      0.00
   -8   12    8      0.14      0.00
   -7   12    8     -2.57      0.00
   -6   12    8      1.83      0.00
   -5   12    8      1.36      0.00
   -4   12    8     -0.70      0.00
   -3   12    8     -2.78      0.00
   -2   12    8      0.04      0.00
   -1   12    8     -0.36      0.00
    0   12    8      1.88      0.00
    1   12    8      4.23      0.00
    2   12    8      2.79      0.00
    3   12    8     -1.09      0.00
    4   12    8     -0.48      0.00
    5   12    8     -0.17      0.00
    6   12    8      0.85      0.00
    7   12    8      0.48      0.00
    8   12    8      3.22      0.00
    9   12    8     -0.13      0.00
   10   12    8     -0.61      0.00
   11   12    8      2.44      0.00
   12   12    8      1.35      0.00
  -12   13    8     -1.52      0.00
  -11   13    8     -3.91      0.00
  -10   13    8     -0.55      0.00
   -9   13    8     -0.61      0.00
   -8   13    8      2.01      0.00
   -7   13    8      0.46      0.00
   -6   13    8      2.03      0.00
   -5   13    8     -0.64      0.00
   -4   13    8     -2.01      0.00
   -3   13    8     -0.32      0.00
   -2   13    8      1.15      0.00
   -1   13    8      3.12      0.00
    0   13    8      0.55      0.00
    1   13    8      1.66      0.00
    2   13    8     -1.75      0.00
    3   13    8     -2.91      0.00
    4   13    8     -3.14      0.00
    5   13    8      0.94      0.00
    6   13    8     -0.73      0.00
    7   13    8      0.79      0.00
    8   13    8     -0.68      0.00
    9   13    8     -0.26      0.00
   10   13    8     -0.12      0.00
   11   13    8      0.99      0.00
   12   13    8     -0.82      0.00
   13   13    8      5.72      0.00
  -12   14    8      2.12      0.00
  -11   14    8      2.13      0.00
  -10   14    8      1.63      0.00
   -9   14    8      6.77      0.00
   -8   14    8      2.65      0.00
   -7   14    8     -4.91      0.00
   -6   14    8     -3.00      0.00
   -5   14    8     -0.84      0.00
   -4   14    8      1.74      0.00
   -3   14    8     -1.94      0.00
   -2   14    8     -0.30      0.00
   -1   14    8      1.85      0.00
    0   14    8      1.58      0.00
    1   14    8      0.81      0.00
    2   14    8     -2.24      0.00
    3   14    8     -5.80      0.00
    4   14    8      2.73      0.00
    5   14    8      1.96      0.00
    6   14    8     -0.06      0.00
    7   14    8      0.23      0.00
    8   14    8     -1.90      0.00
    9   14    8      1.47      0.00
   10   14    8     -0.18      0.00
   11   14    8      0.81      0.00
   12   14    8      6.29      0.00
  -10   15    8      1.48      0.00
   -9   15    8     -0.45      0.00
   -8   15    8    -10.31      0.00
   -7   15    8      1.03      0.00
   -6   15    8      0.32      0.00
   -5   15    8     -0.91      0.00
   -4   15    8     -2.72      0.00
   -3   15    8     -0.39      0.00
   -2   15    8      1.87      0.00
   -1   15    8      1.79      0.00
    0   15    8     -1.30      0.00
    1   15    8      1.29      0.00
    2   15    8     -6.36      0.00
    3   15    8      0.23      0.00
    4   15    8      1.38      0.00
    5   15    8     -2.37      0.00
    6   15    8     -0.50      0.00
    7   15    8     -3.30      0.00
    8   15    8      1.15      0.00
    9   15    8     -2.26      0.00
   10   15    8     -2.12      0.00
   11   15    8      3.93      0.00
   -8   16    8      2.55      0.00
   -7   16    8      2.30      0.00
   -6   16    8      0.09      0.00
   -5   16    8      0.99      0.00
   -4   16    8     -0.93      0.00
   -3   16    8      5.58      0.00
   -2   16    8      4.69      0.00
   -1   16    8      1.48      0.00
    0   16    8     -2.14      0.00
    1   16    8      2.00      0.00
    2   16    8     -1.79      0.00
    3   16    8      3.21      0.00
    4   16    8     -2.55      0.00
    5   16    8      1.20      0.00
    6   16    8      0.45      0.00
    7   16    8      1.43      0.00
    8   16    8     -2.86      0.00
    9   16    8     -0.54      0.00
   10   16    8      3.29      0.00
   -6   17    8     -3.06      0.00
   -5   17    8      1.57      0.00
   -4   17    8      4.53      0.00
   -3   17    8     -0.35      0.00
   -2   17    8      0.58      0.00
   -1   17    8     -1.11      0.00
    0   17    8     -0.32      0.00
    1   17    8     -0.21      0.00
    2   17    8      0.48      0.00
    3   17    8      0.93      0.00
    4   17    8      2.92      0.00
    5   17    8      2.05      0.00
    6   17    8     -0.76      0.00
    7   17    8     -5.95      0.00
    8   17    8     -1.88      0.00
    9   17    8      3.85      0.00
   -5   18    8      4.53      0.00
   -4   18    8      2.13      0.00
   -3   18    8     -0.09      0.00
   -2   18    8     -0.57      0.00
   -1   18    8     -2.34      0.00
    0   18    8     -4.05      0.00
    1   18    8      3.21      0.00
    2   18    8     -1.14      0.00
    3   18    8      1.22      0.00
    4   18    8     -1.48      0.00
    5   18    8     -3.84      0.00
    6   18    8      0.07      0.00
    7   18    8     -3.25      0.00
    8   18    8      6.19      0.00
    0   19    8      6.12      0.00
    1   19    8      2.88      0.00
    2   19    8     -1.71      0.00
    4   19    8      0.32      0.00
    5   19    8      3.55      0.00
    6   19    8      1.20      0.00
    7   19    8      2.81      0.00
    8   19    8      3.70      0.00
    0    0    9      1.47      0.00
    0    1    9     -4.63      0.00
    1    1    9     -2.36      0.00
   -1    2    9     -2.90      0.00
    0    2    9     -4.13      0.00
    1    2    9      3.08      0.00
    2    2    9      1.94      0.00
   -2    3    9     -0.60      0.00
   -1    3    9     -4.06      0.00
    0    3    9      1.71      0.00
    1    3    9      2.11      0.00
    2    3    9      1.88      0.00
    3    3    9      0.39      0.00
   -3    4    9      0.90      0.00
   -2    4    9     -5.15      0.00
   -1    4    9     -0.35      0.00
    0    4    9      5.67      0.00
    1    4    9      2.56      0.00
    2    4    9      1.85      0.00
    3    4    9      0.47      0.00
    4    4    9      3.59      0.00
   -4    5    9     -3.63      0.00
   -3    5    9     -8.16      0.00
   -2    5    9     -4.24      0.00
   -1    5    9      7.79      0.00
    0    5    9      2.53      0.00
    1    5    9     -0.51      0.00
    2    5    9      0.97      0.00
    3    5    9     -0.22      0.00
    4    5    9     -2.74      0.00
    5    5    9      2.02      0.00
   -5    6    9     -2.43      0.00
   -4    6    9     -1.46      0.00
   -3    6    9     -0.20      0.00
   -2    6    9     11.78      0.00
   -1    6    9      4.31      0.00
    0    6    9     -2.55      0.00
    1    6    9      2.81      0.00
    2    6    9      4.24      0.00
    3    6    9     -2.26      0.00
    4    6    9      3.50      0.00
    5    6    9      2.20      0.00
    6    6    9     -1.05      0.00
   -6    7    9     -1.15      0.00
   -5    7    9     -0.85      0.00
   -4    7    9     -0.92      0.00
   -3    7    9      7.46      0.00
   -2    7    9      0.66      0.00
   -1    7    9     -5.02      0.00
    0    7    9      1.59      0.00
    1    7    9      4.45      0.00
    2    7    9     -2.12      0.00
    3    7    9     -0.64      0.00
    4    7    9      3.79      0.00
    5    7    9     -3.23      0.00
    6    7    9     -3.71      0.00
    7    7    9     -0.37      0.00
   -7    8    9      0.46      0.00
   -6    8    9      0.20      0.00
   -5    8    9      0.08      0.00
   -4    8    9      6.56      0.00
   -3    8    9      1.15      0.00
   -2    8    9     -2.06      0.00
   -1    8    9      3.15      0.00
    0    8    9      8.70      0.00
    1    8    9     -0.14      0.00
    2    8    9      2.17      0.00
    3    8    9      5.20      0.00
    4    8    9     -0.01      0.00
    5    8    9     -1.90      0.00
    6    8    9      0.33      0.00
    7    8    9      0.45      0.00
    8    8    9      1.88      0.00
   -8    9    9      2.45      0.00
   -7    9    9     -2.26      0.00
   -6    9    9     -1.65      0.00
   -5    9    9      0.55      0.00
   -4    9    9     -0.23      0.00
   -3    9    9     -2.09      0.00
   -2    9    9      2.15      0.00
   -1    9    9      3.91      0.00
    0    9    9     -0.61      0.00
    1    9    9     -4.23      0.00
    2    9    9      3.44      0.00
    3    9    9     -1.21      0.00
    4    9    9     -1.47      0.00
    5    9    9     -1.23      0.00
    6    9    9      3.36      0.00
    7    9    9      1.10      0.00
    8    9    9     -2.03      0.00
    9    9    9     -1.80      0.00
   -9   10    9      1.95      0.00
   -8   10    9     -3.28      0.00
   -7   10    9      1.38      0.00
   -6   10    9      1.79      0.00
   -5   10    9     -0.03      0.00
   -4   10    9      2.98      0.00
   -3   10    9      2.11      0.00
   -2   10    9      3.89      0.00
   -1   10    9      1.13      0.00
    0   10    9     -1.47      0.00
    1   10    9      5.16      0.00
    2   10    9      4.53      0.00
    3   10    9      0.80      0.00
    4   10    9      0.95      0.00
    5   10    9      2.21      0.00
    6   10    9      3.64      0.00
    7   10    9      0.54      0.00
    8   10    9     -1.73      0.00
    9   10    9     -1.05      0.00
   10   10    9      1.78      0.00
  -10   11    9      1.09      0.00
   -9   11    9     -0.02      0.00
   -8   11    9      2.12      0.00
   -7   11    9      3.22      0.00
   -6   11    9     -2.59      0.00
   -5   11    9      4.12      0.00
   -4   11    9      2.01      0.00
   -3   11    9     -0.59      0.00
   -2   11    9     -0.06      0.00
   -1   11    9     -0.98      0.00
    0   11    9      2.82      0.00
    1   11    9      1.29      0.00
    2   11    9      0.80      0.00
    3   11    9     -2.06      0.00
    4   11    9      0.29      0.00
    5   11    9     -1.19      0.00
    6   11    9     -0.89      0.00
    7   11    9     -3.08      0.00
    8   11    9     -0.80      0.00
    9   11    9      0.75      0.00
   10   11    9     -0.44      0.00
   11   11    9      1.12      0.00
  -11   12    9      2.57      0.00
  -10   12    9      1.12      0.00
   -9   12    9      1.14      0.00
   -8   12    9      3.86      0.00
   -7   12    9     -4.76      0.00
   -6   12    9     -0.79      0.00
   -5   12    9      2.79      0.00
   -4   12    9     -1.94      0.00
   -3   12    9     -3.19      0.00
   -2   12    9     -1.33      0.00
   -1   12    9      0.59      0.00
    0   12    9      1.92      0.00
    1   12    9     -0.88      0.00
    2   12    9      1.86      0.00
    3   12    9     -0.01      0.00
    4   12    9      0.59      0.00
    5   12    9      2.79      0.00
    6   12    9      0.15      0.00
    7   12    9      1.52      0.00
    8   12    9      3.84      0.00
    9   12    9      0.08      0.00
   10   12    9      1.70      0.00
   11   12    9     -0.07      0.00
   12   12    9      0.29      0.00
  -11   13    9      0.85      0.00
  -10   13    9     -1.11      0.00
   -9   13    9     -0.92      0.00
   -8   13    9     -3.21      0.00
   -7   13    9      1.43      0.00
   -6   13    9      2.85      0.00
   -5   13    9     -4.16      0.00
   -4   13    9     -3.96      0.00
   -3   13    9      1.59      0.00
   -2   13    9      0.87      0.00
   -1   13    9      3.04      0.00
    0   13    9     -0.54      0.00
    1   13    9      0.54      0.00
    2   13    9      2.57      0.00
    3   13    9     -2.01      0.00
    4   13    9     -1.75      0.00
    5   13    9     -0.13      0.00
    6   13    9     -1.47      0.00
    7   13    9      2.51      0.00
    8   13    9     -1.92      0.00
    9   13    9      0.82      0.00
   10   13    9     -2.36      0.00
   11   13    9     -1.63      0.00
   12   13    9     -1.94      0.00
  -10   14    9      1.39      0.00
   -9   14    9     -2.67      0.00
   -8   14    9      2.22      0.00
   -7   14    9      0.16      0.00
   -6   14    9     -2.34      0.00
   -5   14    9     -4.11      0.00
   -4   14    9     -0.88      0.00
   -3   14    9      0.17      0.00
   -2   14    9      2.39      0.00
   -1   14    9     -1.44      0.00
    0   14    9     -3.67      0.00
    1   14    9      3.72      0.00
    2   14    9      3.91      0.00
    3   14    9     -4.74      0.00
    4   14    9      0.95      0.00
    5   14    9     -2.70      0.00
    6   14    9      0.11      0.00
    7   14    9      4.01      0.00
    8   14    9     -2.10      0.00
    9   14    9      0.28      0.00
   10   14    9     -0.37      0.00
   11   14    9      2.13      0.00
   -8   15    9     -2.37      0.00
   -7   15    9     -4.58      0.00
   -6   15    9     -3.51      0.00
   -5   15    9      0.78      0.00
   -4   15    9      1.64      0.00
   -3   15    9     -3.12      0.00
   -2   15    9     -1.44      0.00
   -1   15    9      3.89      0.00
    0   15    9     -0.28      0.00
    1   15    9      6.84      0.00
    2   15    9     -5.28      0.00
    3   15    9     -0.61      0.00
    4   15    9     -1.89      0.00
    5   15    9     -3.70      0.00
    6   15    9      2.71      0.00
    7   15    9     -2.61      0.00
    8   15    9     -3.11      0.00
    9   15    9      0.93      0.00
   10   15    9     -0.74      0.00
   -6   16    9     -1.67      0.00
   -5   16    9      4.94      0.00
   -4   16    9      1.47      0.00
   -3   16    9      0.78      0.00
   -2   16    9      3.39      0.00
   -1   16    9      2.79      0.00
    0   16    9     -0.21      0.00
    1   16    9     -0.88      0.00
    2   16    9     -4.48      0.00
    3   16    9     -1.50      0.00
    4   16    9     -1.60      0.00
    5   16    9      2.99      0.00
    6   16    9      0.92      0.00
    7   16    9     -1.50      0.00
    8   16    9     -1.18      0.00
   -4   17    9     -0.60      0.00
   -3   17    9      4.33      0.00
   -2   17    9      3.29      0.00
   -1   17    9     -1.38      0.00
    0   17    9     -1.49      0.00
    1   17    9      4.32      0.00
    2   17    9     -0.77      0.00
    3   17    9      2.05      0.00
    4   17    9      0.76      0.00
    5   17    9      2.39      0.00
    6   17    9      0.92      0.00
    7   17    9     -1.14      0.00
   -1   18    9     -0.83      0.00
    0   18    9     -5.41      0.00
    1   18    9      0.15      0.00
    2   18    9     -1.20      0.00
    4   18    9     -0.44      0.00
    5   18    9     -1.02      0.00
    6   18    9      1.62      0.00
    3   19    9      0.20      0.00
    4   19    9      0.32      0.00
    5   19    9      4.37      0.00
    6   19    9     -0.02      0.00
    0    0   10     -1.53      0.00
    0    1   10      3.04      0.00
    1    1   10      1.97      0.00
   -1    2   10      3.75      0.00
    0    2   10      2.05      0.00
    1    2   10     -3.33      0.00
    2    2   10     -1.45      0.00
   -2    3   10      4.27      0.00
   -1    3   10     -0.71      0.00
    0    3   10     -3.17      0.00
    1    3   10     -2.87      0.00
    2    3   10      3.15      0.00
    3    3   10      3.70      0.00
   -3    4   10      5.02      0.00
   -2    4   10      1.47      0.00
   -1    4   10     -2.27      0.00
    0    4   10      0.05      0.00
    1    4   10      3.40      0.00
    2    4   10      6.30      0.00
    3    4   10     -1.33      0.00
    4    4   10      0.89      0.00
   -4    5   10      1.67      0.00
   -3    5   10     -2.25      0.00
   -2    5   10     -6.05      0.00
   -1    5   10      0.18      0.00
    0    5   10      1.12      0.00
    1    5   10      2.43      0.00
    2    5   10      0.26      0.00
    3    5   10     -4.62      0.00
    4    5   10      0.27      0.00
    5    5   10      2.74      0.00
   -5    6   10     -0.38      0.00
   -4    6   10      1.51      0.00
   -3    6   10     -2.42      0.00
   -2    6   10      3.69      0.00
   -1    6   10      2.78      0.00
    0    6   10      1.17      0.00
    1    6   10      1.93      0.00
    2    6   10     -0.75      0.00
    3    6   10      1.85      0.00
    4    6   10      6.56      0.00
    5    6   10      1.00      0.00
    6    6   10     -1.39      0.00
   -6    7   10     -2.09      0.00
   -5    7   10      1.31      0.00
   -4    7   10     -3.16      0.00
   -3    7   10      3.30      0.00
   -2    7   10      0.58      0.00
   -1    7   10     -1.92      0.00
    0    7   10      0.26      0.00
    1    7   10     -0.07      0.00
    2    7   10     -1.90      0.00
    3    7   10      2.22      0.00
    4    7   10      1.14      0.00
    5    7   10     -5.52      0.00
    6    7   10      0.22      0.00
    7    7   10      0.95      0.00
   -7    8   10      3.82      0.00
   -6    8   10      4.18      0.00
   -5    8   10     -2.01      0.00
   -4    8   10      3.01      0.00
   -3    8   10      1.52      0.00
   -2    8   10      1.08      0.00
   -1    8   10      2.55      0.00
    0    8   10      2.63      0.00
    1    8   10      0.12      0.00
    2    8   10      3.07      0.00
    3    8   10      3.33      0.00
    4    8   10     -1.68      0.00
    5    8   10     -1.12      0.00
    6    8   10      4.31      0.00
    7    8   10     -1.62      0.00
    8    8   10     -1.89      0.00
   -8    9   10      0.86      0.00
   -7    9   10      0.71      0.00
   -6    9   10     -2.29      0.00
   -5    9   10     -2.20      0.00
   -4    9   10      0.70      0.00
   -3    9   10     -0.89      0.00
   -2    9   10     -0.46      0.00
   -1    9   10     -0.62      0.00
    0    9   10      0.65      0.00
    1    9   10     -0.79      0.00
    2    9   10      2.17      0.00
    3    9   10     -1.79      0.00
    4    9   10      0.27      0.00
    5    9   10      0.70      0.00
    6    9   10     -1.37      0.00
    7    9   10     -2.35      0.00
    8    9   10     -1.01      0.00
    9    9   10      2.47      0.00
   -9   10   10      3.51      0.00
   -8   10   10      2.63      0.00
   -7   10   10     -0.84      0.00
   -6   10   10     -1.43      0.00
   -5   10   10      0.93      0.00
   -4   10   10      4.04      0.00
   -3   10   10     -1.21      0.00
   -2   10   10     -1.83      0.00
   -1   10   10      2.26      0.00
    0   10   10      1.63      0.00
    1   10   10      0.18      0.00
    2   10   10      2.79      0.00
    3   10   10      2.85      0.00
    4   10   10      2.36      0.00
    5   10   10      0.54      0.00
    6   10   10      0.70      0.00
    7   10   10      0.08      0.00
    8   10   10      5.11      0.00
    9   10   10      0.89      0.00
   10   10   10     -3.24      0.00
  -10   11   10      4.05      0.00
   -9   11   10      1.30      0.00
   -8   11   10     -0.65      0.00
   -7   11   10      0.92      0.00
   -6   11   10      0.16      0.00
   -5   11   10     -0.31      0.00
   -4   11   10     -3.29      0.00
   -3   11   10     -0.71      0.00
   -2   11   10      4.94      0.00
   -1   11   10      2.53      0.00
    0   11   10      2.12      0.00
    1   11   10      0.79      0.00
    2   11   10      0.95      0.00
    3   11   10     -1.78      0.00
    4   11   10     -0.72      0.00
    5   11   10     -2.13      0.00
    6   11   10      0.62      0.00
    7   11   10     -0.05      0.00
    8   11   10      0.47      0.00
    9   11   10     -2.82      0.00
   10   11   10      0.17      0.00
   11   11   10     -1.02      0.00
  -11   12   10      4.00      0.00
  -10   12   10      0.63      0.00
   -9   12   10     -1.69      0.00
   -8   12   10      0.12      0.00
   -7   12   10     -1.02      0.00
   -6   12   10     -0.48      0.00
   -5   12   10     -1.41      0.00
   -4   12   10     -1.72      0.00
   -3   12   10      2.30      0.00
   -2   12   10      0.75      0.00
   -1   12   10     -2.65      0.00
    0   12   10     -1.08      0.00
    1   12   10     -3.72      0.00
    2   12   10      0.21      0.00
    3   12   10      2.07      0.00
    4   12   10      1.13      0.00
    5   12   10      2.07      0.00
    6   12   10      0.80      0.00
    7   12   10      1.26      0.00
    8   12   10      2.12      0.00
    9   12   10      1.37      0.00
   10   12   10      3.65      0.00
   11   12   10     -1.85      0.00
   -9   13   10      3.67      0.00
   -8   13   10     -1.94      0.00
   -7   13   10     -1.95      0.00
   -6   13   10     -0.43      0.00
   -5   13   10      0.22      0.00
   -4   13   10      0.20      0.00
   -3   13   10     -2.22      0.00
   -2   13   10     -1.40      0.00
   -1   13   10      3.94      0.00
    0   13   10     -1.62      0.00
    1   13   10     -0.74      0.00
    2   13   10      7.80      0.00
    3   13   10      1.67      0.00
    4   13   10      0.71      0.00
    5   13   10     -2.82      0.00
    6   13   10     -2.01      0.00
    7   13   10      4.59      0.00
    8   13   10      0.01      0.00
    9   13   10      0.75      0.00
   10   13   10     -3.00      0.00
   -8   14   10      1.13      0.00
   -7   14   10      0.52      0.00
   -6   14   10     -3.37      0.00
   -5   14   10     -0.40      0.00
   -4   14   10      0.22      0.00
   -3   14   10     -1.13      0.00
   -2   14   10      1.30      0.00
   -1   14   10     -4.34      0.00
    0   14   10     -4.46      0.00
    1   14   10      4.05      0.00
    2   14   10      5.06      0.00
    3   14   10     -3.70      0.00
    4   14   10     -1.89      0.00
    5   14   10     -3.18      0.00
    6   14   10      1.18      0.00
    7   14   10      3.36      0.00
    8   14   10     -2.27      0.00
    9   14   10     -1.70      0.00
   -6   15   10     -0.12      0.00
   -5   15   10     -4.03      0.00
   -4   15   10     -1.46      0.00
   -3   15   10      1.83      0.00
   -2   15   10     -4.46      0.00
   -1   15   10     -0.17      0.00
    0   15   10      3.99      0.00
    1   15   10      8.74      0.00
    2   15   10     -2.57      0.00
    3   15   10     -1.12      0.00
    4   15   10     -4.50      0.00
    5   15   10     -0.45      0.00
    6   15   10      4.08      0.00
    7   15   10      0.31      0.00
   -4   16   10     -0.45      0.00
   -3   16   10     -0.95      0.00
   -2   16   10      1.31      0.00
   -1   16   10      1.03      0.00
    0   16   10     -0.89      0.00
    1   16   10     -3.07      0.00
    2   16   10     -0.17      0.00
    3   16   10     -4.86      0.00
    4   16   10     -0.29      0.00
    5   16   10      1.76      0.00
    6   16   10      1.03      0.00
   -1   17   10      5.85      0.00
    0   17   10      2.38      0.00
    1   17   10      6.90      0.00
    2   17   10     -4.41      0.00
    3   17   10      0.85      0.00
    4   17   10      2.21      0.00
    2   18   10     -6.31      0.00
    3   18   10      2.66      0.00
    4   18   10      2.31      0.00
    0    0   11      0.70      0.00
    0    1   11      2.01      0.00
    1    1   11      1.01      0.00
   -1    2   11      0.71      0.00
    0    2   11      2.17      0.00
    1    2   11      0.48      0.00
    2    2   11      2.88      0.00
   -2    3   11     -0.09      0.00
   -1    3   11     -2.19      0.00
    0    3   11      0.16      0.00
    1    3   11     -0.55      0.00
    2    3   11     -2.76      0.00
    3    3   11     -2.11      0.00
   -3    4   11      2.20      0.00
   -2    4   11      1.38      0.00
   -1    4   11     -0.35      0.00
    0    4   11      0.98      0.00
    1    4   11     -2.84      0.00
    2    4   11      0.54      0.00
    3    4   11      3.77      0.00
    4    4   11      2.50      0.00
   -4    5   11     -0.29      0.00
   -3    5   11     -0.30      0.00
   -2    5   11     -0.53      0.00
   -1    5   11     -1.94      0.00
    0    5   11     -0.71      0.00
    1    5   11     -0.23      0.00
    2    5   11      3.48      0.00
    3    5   11     -2.10      0.00
    4    5   11     -1.18      0.00
    5    5   11      1.93      0.00
   -5    6   11     -2.14      0.00
   -4    6   11      2.30      0.00
   -3    6   11      0.42      0.00
   -2    6   11      0.99      0.00
   -1    6   11      1.44      0.00
    0    6   11      1.84      0.00
    1    6   11      2.96      0.00
    2    6   11     -2.38      0.00
    3    6   11     -0.58      0.00
    4    6   11      6.30      0.00
    5    6   11      0.88      0.00
    6    6   11      2.25      0.00
   -6    7   11     -2.68      0.00
   -5    7   11     -0.06      0.00
   -4    7   11     -0.24      0.00
   -3    7   11     -0.41      0.00
   -2    7   11     -2.13      0.00
   -1    7   11      1.59      0.00
    0    7   11     -0.31      0.00
    1    7   11     -2.54      0.00
    2    7   11     -0.24      0.00
    3    7   11      2.06      0.00
    4    7   11      0.39      0.00
    5    7   11     -4.03      0.00
    6    7   11      1.15      0.00
    7    7   11     -1.67      0.00
   -7    8   11      2.16      0.00
   -6    8   11      0.69      0.00
   -5    8   11      1.40      0.00
   -4    8   11      3.55      0.00
   -3    8   11     -0.74      0.00
   -2    8   11      0.37      0.00
   -1    8   11      2.42      0.00
    0    8   11     -1.57      0.00
    1    8   11     -0.98      0.00
    2    8   11     -0.93      0.00
    3    8   11      0.33      0.00
    4    8   11     -1.06      0.00
    5    8   11      0.00      0.00
    6    8   11      2.36      0.00
    7    8   11     -6.51      0.00
    8    8   11      2.53      0.00
   -8    9   11      0.95      0.00
   -7    9   11      0.82      0.00
   -6    9   11     -0.33      0.00
   -5    9   11     -2.04      0.00
   -4    9   11     -4.99      0.00
   -3    9   11     -0.56      0.00
   -2    9   11      3.11      0.00
   -1    9   11     -3.14      0.00
    0    9   11     -1.05      0.00
    1    9   11      0.69      0.00
    2    9   11     -0.72      0.00
    3    9   11      0.53      0.00
    4    9   11      1.76      0.00
    5    9   11     -0.13      0.00
    6    9   11     -4.01      0.00
    7    9   11     -2.17      0.00
    8    9   11      0.14      0.00
    9    9   11      2.98      0.00
   -9   10   11      0.85      0.00
   -8   10   11      1.57      0.00
   -7   10   11      0.32      0.00
   -6   10   11      1.69      0.00
   -5   10   11     -3.39      0.00
   -4   10   11     -0.33      0.00
   -3   10   11      0.52      0.00
   -2   10   11     -0.55      0.00
   -1   10   11     -2.16      0.00
    0   10   11      0.32      0.00
    1   10   11     -0.17      0.00
    2   10   11      2.11      0.00
    3   10   11      0.93      0.00
    4   10   11      0.52      0.00
    5   10   11     -2.40      0.00
    6   10   11      2.31      0.00
    7   10   11      1.49      0.00
    8   10   11      4.01      0.00
    9   10   11      2.66      0.00
   10   10   11     -1.69      0.00
  -10   11   11     -0.96      0.00
   -9   11   11      3.26      0.00
   -8   11   11      0.81      0.00
   -7   11   11     -2.88      0.00
   -6   11   11     -1.58      0.00
   -5   11   11     -2.06      0.00
   -4   11   11     -0.20      0.00
   -3   11   11     -1.74      0.00
   -2   11   11      1.77      0.00
   -1   11   11      3.09      0.00
    0   11   11      3.62      0.00
    1   11   11      2.74      0.00
    2   11   11      0.20      0.00
    3   11   11     -2.93      0.00
    4   11   11      1.10      0.00
    5   11   11     -1.06      0.00
    6   11   11      2.54      0.00
    7   11   11      2.98      0.00
    8   11   11     -0.22      0.00
    9   11   11     -2.79      0.00
   10   11   11     -3.59      0.00
   -9   12   11     -0.59      0.00
   -8   12   11     -0.67      0.00
   -7   12   11     -1.41      0.00
   -6   12   11     -2.10      0.00
   -5   12   11     -0.52      0.00
   -4   12   11      1.85      0.00
   -3   12   11      1.73      0.00
   -2   12   11     -1.05      0.00
   -1   12   11     -1.94      0.00
    0   12   11     -2.38      0.00
    1   12   11     -4.63      0.00
    2   12   11     -2.63      0.00
    3   12   11      3.70      0.00
    4   12   11      1.36      0.00
    5   12   11     -1.62      0.00
    6   12   11      2.23      0.00
    7   12   11     -2.67      0.00
    8   12   11      0.96      0.00
    9   12   11     -1.00      0.00
   -9   13   11      5.20      0.00
   -8   13   11     -0.33      0.00
   -7   13   11     -1.85      0.00
   -6   13   11      0.99      0.00
   -5   13   11     -2.65      0.00
   -4   13   11     -0.72      0.00
   -3   13   11     -0.32      0.00
   -2   13   11      0.60      0.00
   -1   13   11     -0.22      0.00
    0   13   11      1.22      0.00
    1   13   11      1.72      0.00
    2   13   11      6.08      0.00
    3   13   11      2.97      0.00
    4   13   11      0.15      0.00
    5   13   11      0.38      0.00
    6   13   11      0.15      0.00
    7   13   11      1.92      0.00
    8   13   11      3.13      0.00
    9   13   11      0.38      0.00
   -5   14   11      1.41      0.00
   -4   14   11     -0.23      0.00
   -3   14   11     -0.05      0.00
   -2   14   11      0.47      0.00
   -1   14   11     -6.60      0.00
    0   14   11      0.94      0.00
    1   14   11     -0.75      0.00
    2   14   11     -1.01      0.00
    3   14   11     -0.76      0.00
    4   14   11     -0.95      0.00
    5   14   11     -1.27      0.00
    6   14   11      0.13      0.00
   -3   15   11     -0.05      0.00
   -2   15   11     -6.81      0.00
   -1   15   11      2.79      0.00
    0   15   11      4.69      0.00
    1   15   11      0.67      0.00
    2   15   11      1.60      0.00
    3   15   11      2.81      0.00
    4   15   11     -1.31      0.00
   -1   16   11      1.76      0.00
    0   16   11     -3.32      0.00
    1   16   11     -3.77      0.00
    2   16   11      4.68      0.00
    3   16   11     -4.78      0.00
    4   16   11      1.46      0.00
    2   17   11     -2.83      0.00
    3   17   11     -2.17      0.00
    0    0   12      2.36      0.00
    0    1   12      0.76      0.00
    1    1   12     -0.92      0.00
   -1    2   12     -0.19      0.00
    0    2   12      2.31      0.00
    1    2   12      0.45      0.00
    2    2   12      3.74      0.00
   -2    3   12      0.77      0.00
   -1    3   12     -1.03      0.00
    0    3   12      0.59      0.00
    1    3   12     -0.21      0.00
    2    3   12     -1.91      0.00
    3    3   12     -1.98      0.00
   -3    4   12      0.64      0.00
   -2    4   12      1.84      0.00
   -1    4   12      0.58      0.00
    0    4   12      0.71      0.00
    1    4   12     -1.30      0.00
    2    4   12     -1.17      0.00
    3    4   12     -0.59      0.00
    4    4   12      1.08      0.00
   -4    5   12      1.02      0.00
   -3    5   12     -1.23      0.00
   -2    5   12      1.68      0.00
   -1    5   12     -0.26      0.00
    0    5   12     -0.84      0.00
    1    5   12     -2.67      0.00
    2    5   12      2.85      0.00
    3    5   12     -0.82      0.00
    4    5   12     -1.34      0.00
    5    5   12      2.20      0.00
   -5    6   12     -0.04      0.00
   -4    6   12      2.83      0.00
   -3    6   12      1.01      0.00
   -2    6   12      1.17      0.00
   -1    6   12      1.03      0.00
    0    6   12      0.33      0.00
    1    6   12      1.77      0.00
    2    6   12     -1.18      0.00
    3    6   12     -0.74      0.00
    4    6   12      2.57      0.00
    5    6   12     -0.49      0.00
    6    6   12      2.21      0.00
   -6    7   12     -1.19      0.00
   -5    7   12     -2.11      0.00
   -4    7   12     -2.98      0.00
   -3    7   12     -0.76      0.00
   -2    7   12      1.70      0.00
   -1    7   12     -0.89      0.00
    0    7   12     -0.56      0.00
    1    7   12      0.40      0.00
    2    7   12      0.79      0.00
    3    7   12      0.18      0.00
    4    7   12      1.02      0.00
    5    7   12      1.26      0.00
    6    7   12     -0.33      0.00
    7    7   12     -3.80      0.00
   -7    8   12     -1.26      0.00
   -6    8   12      0.87      0.00
   -5    8   12      0.12      0.00
   -4    8   12      0.30      0.00
   -3    8   12      0.32      0.00
   -2    8   12      1.47      0.00
   -1    8   12     -0.87      0.00
    0    8   12     -2.11      0.00
    1    8   12      2.58      0.00
    2    8   12     -3.91      0.00
    3    8   12     -5.13      0.00
    4    8   12      0.60      0.00
    5    8   12     -2.36      0.00
    6    8   12     -0.20      0.00
    7    8   12     -1.95      0.00
    8    8   12      2.16      0.00
   -8    9   12     -1.68      0.00
   -7    9   12     -0.63      0.00
   -6    9   12     -0.32      0.00
   -5    9   12      1.99      0.00
   -4    9   12     -2.57      0.00
   -3    9   12     -3.17      0.00
   -2    9   12      0.17      0.00
   -1    9   12      1.34      0.00
    0    9   12     -0.37      0.00
    1    9   12     -1.44      0.00
    2    9   12     -3.75      0.00
    3    9   12      1.54      0.00
    4    9   12      0.88      0.00
    5    9   12     -3.03      0.00
    6    9   12     -0.42      0.00
    7    9   12      2.81      0.00
    8    9   12     -1.53      0.00
    9    9   12      0.97      0.00
   -9   10   12     -0.33      0.00
   -8   10   12      3.95      0.00
   -7   10   12      0.20      0.00
   -6   10   12      0.55      0.00
   -5   10   12     -2.72      0.00
   -4   10   12      1.24      0.00
   -3   10   12      0.21      0.00
   -2   10   12     -0.42      0.00
   -1   10   12     -3.92      0.00
    0   10   12     -2.62      0.00
    1   10   12     -0.77      0.00
    2   10   12      0.82      0.00
    3   10   12      0.26      0.00
    4   10   12     -1.13      0.00
    5   10   12     -3.39      0.00
    6   10   12      4.48      0.00
    7   10   12     -0.27      0.00
    8   10   12      1.32      0.00
    9   10   12     -0.42      0.00
   -9   11   12      5.21      0.00
   -8   11   12      1.77      0.00
   -7   11   12     -2.90      0.00
   -6   11   12      0.91      0.00
   -5   11   12     -3.78      0.00
   -4   11   12     -2.30      0.00
   -3   11   12     -0.68      0.00
   -2   11   12      1.90      0.00
   -1   11   12     -1.69      0.00
    0   11   12      3.96      0.00
    1   11   12      3.83      0.00
    2   11   12     -1.20      0.00
    3   11   12     -1.21      0.00
    4   11   12      3.26      0.00
    5   11   12      3.32      0.00
    6   11   12      1.80      0.00
    7   11   12      0.19      0.00
    8   11   12     -1.90      0.00
    9   11   12      1.90      0.00
  -10   12   12      2.50      0.00
   -9   12   12     -3.38      0.00
   -8   12   12     -5.15      0.00
   -7   12   12     -0.61      0.00
   -6   12   12     -0.03      0.00
   -5   12   12     -2.35      0.00
   -4   12   12     -1.04      0.00
   -3   12   12      1.06      0.00
   -2   12   12     -1.90      0.00
   -1   12   12     -1.26      0.00
    0   12   12     -0.51      0.00
    1   12   12     -2.95      0.00
    2   12   12     -4.04      0.00
    3   12   12      3.33      0.00
    4   12   12      1.46      0.00
    5   12   12     -5.69      0.00
    6   12   12      0.77      0.00
    7   12   12     -6.19      0.00
    8   12   12      1.71      0.00
    9   12   12      2.50      0.00
   -7   13   12     -2.52      0.00
   -6   13   12     -1.61      0.00
   -5   13   12     -2.90      0.00
   -4   13   12      1.56      0.00
   -3   13   12     -2.07      0.00
   -2   13   12      1.58      0.00
   -1   13   12      0.79      0.00
    0   13   12      3.22      0.00
    1   13   12      2.83      0.00
    2   13   12      2.69      0.00
    3   13   12      0.71      0.00
    4   13   12     -0.51      0.00
    5   13   12      3.36      0.00
    6   13   12      2.53      0.00
    7   13   12      0.97      0.00
   -3   14   12      0.13      0.00
   -2   14   12      2.17      0.00
   -1   14   12     -4.59      0.00
    0   14   12     -0.20      0.00
    1   14   12     -2.99      0.00
    2   14   12     -2.68      0.00
    3   14   12      0.25      0.00
    4   14   12      2.17      0.00
    0   15   12      3.08      0.00
    1   15   12     -0.88      0.00
    2   15   12      2.45      0.00
    3   15   12      5.07      0.00
    3   16   12     -1.01      0.00
    0    0   13      5.19      0.00
    0    1   13     -1.52      0.00
    1    1   13     -2.37      0.00
   -1    2   13      1.10      0.00
    0    2   13      0.06      0.00
    1    2   13     -0.55      0.00
    2    2   13      4.96      0.00
   -2    3   13      2.72      0.00
   -1    3   13      0.63      0.00
    0    3   13     -1.24      0.00
    1    3   13     -0.22      0.00
    2    3   13      3.37      0.00
    3    3   13      0.23      0.00
   -3    4   13      1.62      0.00
   -2    4   13      1.98      0.00
   -1    4   13     -0.37      0.00
    0    4   13     -0.06      0.00
    1    4   13      1.45      0.00
    2    4   13      0.19      0.00
    3    4   13     -1.81      0.00
    4    4   13     -0.31      0.00
   -4    5   13     -1.33      0.00
   -3    5   13     -0.99      0.00
   -2    5   13      0.85      0.00
   -1    5   13     -3.88      0.00
    0    5   13      0.83      0.00
    1    5   13     -0.43      0.00
    2    5   13     -1.37      0.00
    3    5   13     -0.70      0.00
    4    5   13     -1.80      0.00
    5    5   13      2.46      0.00
   -5    6   13      0.66      0.00
   -4    6   13     -1.11      0.00
   -3    6   13     -1.90      0.00
   -2    6   13      0.12      0.00
   -1    6   13      0.92      0.00
    0    6   13      0.71      0.00
    1    6   13      3.45      0.00
    2    6   13     -0.39      0.00
    3    6   13     -4.43      0.00
    4    6   13     -1.12      0.00
    5    6   13      2.35      0.00
    6    6   13      0.52      0.00
   -6    7   13     -0.90      0.00
   -5    7   13     -0.25      0.00
   -4    7   13     -1.78      0.00
   -3    7   13     -3.96      0.00
   -2    7   13      3.43      0.00
   -1    7   13      2.13      0.00
    0    7   13      1.00      0.00
    1    7   13      0.85      0.00
    2    7   13     -0.18      0.00
    3    7   13      1.38      0.00
    4    7   13      1.00      0.00
    5    7   13      2.85      0.00
    6    7   13     -1.34      0.00
    7    7   13      1.10      0.00
   -7    8   13     -1.83      0.00
   -6    8   13     -1.79      0.00
   -5    8   13     -1.78      0.00
   -4    8   13      2.84      0.00
   -3    8   13      2.71      0.00
   -2    8   13     -0.01      0.00
   -1    8   13     -1.55      0.00
    0    8   13      1.91      0.00
    1    8   13     -0.30      0.00
    2    8   13     -3.73      0.00
    3    8   13     -2.00      0.00
    4    8   13      0.78      0.00
    5    8   13     -4.94      0.00
    6    8   13     -1.94      0.00
    7    8   13      1.29      0.00
    8    8   13      2.29      0.00
   -8    9   13     -0.76      0.00
   -7    9   13      0.64      0.00
   -6    9   13      1.38      0.00
   -5    9   13      2.96      0.00
   -4    9   13     -1.75      0.00
   -3    9   13     -0.96      0.00
   -2    9   13     -1.34      0.00
   -1    9   13      2.67      0.00
    0    9   13     -1.73      0.00
    1    9   13     -4.43      0.00
    2    9   13     -3.44      0.00
    3    9   13      1.46      0.00
    4    9   13     -0.87      0.00
    5    9   13     -0.71      0.00
    6    9   13      0.74      0.00
    7    9   13      1.95      0.00
    8    9   13      0.85      0.00
    9    9   13      1.54      0.00
   -9   10   13      0.69      0.00
   -8   10   13      1.44      0.00
   -7   10   13      0.65      0.00
   -6   10   13      3.92      0.00
   -5   10   13     -2.32      0.00
   -4   10   13     -1.86      0.00
   -3   10   13     -2.16      0.00
   -2   10   13      2.46      0.00
   -1   10   13     -3.00      0.00
    0   10   13     -6.60      0.00
    1   10   13      1.16      0.00
    2   10   13      1.44      0.00
    3   10   13     -0.08      0.00
    4   10   13     -1.32      0.00
    5   10   13     -3.28      0.00
    6   10   13      2.73      0.00
    7   10   13     -1.98      0.00
    8   10   13     -0.07      0.00
    9   10   13     -3.03      0.00
   -9   11   13      4.71      0.00
   -7   11   13     -2.63      0.00
   -6   11   13     -2.57      0.00
   -5   11   13     -0.89      0.00
   -4   11   13      0.05      0.00
   -3   11   13     -4.15      0.00
   -2   11   13      1.95      0.00
   -1   11   13     -1.77      0.00
    0   11   13      4.43      0.00
    1   11   13      3.19      0.00
    2   11   13     -0.61      0.00
    3   11   13      0.14      0.00
    4   11   13      0.15      0.00
    5   11   13      4.65      0.00
    6   11   13      2.01      0.00
    7   11   13      1.81      0.00
    8   11   13     -2.92      0.00
    9   11   13      2.60      0.00
   -8   12   13     -6.44      0.00
   -7   12   13     -4.92      0.00
   -6   12   13      0.36      0.00
   -5   12   13      0.54      0.00
   -4   12   13     -3.27      0.00
   -3   12   13      0.79      0.00
   -2   12   13      0.15      0.00
   -1   12   13     -0.59      0.00
    0   12   13     -2.77      0.00
    1   12   13     -0.61      0.00
    2   12   13      0.87      0.00
    3   12   13     -2.17      0.00
    4   12   13      1.00      0.00
    5   12   13     -3.20      0.00
    6   12   13     -0.91      0.00
    7   12   13     -2.77      0.00
    8   12   13      0.84      0.00
   -4   13   13     -1.01      0.00
   -1   13   13     -2.39      0.00
    0   13   13      0.76      0.00
    1   13   13      4.66      0.00
    2   13   13      0.76      0.00
    3   13   13     -0.78      0.00
    1   14   13     -1.16      0.00
    2   14   13     -4.90      0.00
    0    0   14     -0.96      0.00
    0    1   14     -3.40      0.00
    1    1   14      1.49      0.00
   -1    2   14     -0.76      0.00
    0    2   14      5.11      0.00
    1    2   14      1.41      0.00
    2    2   14     -1.09      0.00
   -2    3   14      0.96      0.00
   -1    3   14      2.32      0.00
    0    3   14      2.00      0.00
    1    3   14     -2.62      0.00
    2    3   14     -0.40      0.00
    3    3   14      2.37      0.00
   -3    4   14     -1.05      0.00
   -2    4   14      4.07      0.00
   -1    4   14     -0.16      0.00
    0    4   14     -2.53      0.00
    1    4   14      1.38      0.00
    2    4   14      3.51      0.00
    3    4   14      0.11      0.00
    4    4   14     -2.21      0.00
   -4    5   14      0.03      0.00
   -3    5   14     -2.46      0.00
   -2    5   14     -1.32      0.00
   -1    5   14     -3.97      0.00
    0    5   14     -0.04      0.00
    1    5   14      0.33      0.00
    2    5   14     -0.79      0.00
    3    5   14      0.57      0.00
    4    5   14     -2.64      0.00
    5    5   14     -0.44      0.00
   -5    6   14     -1.32      0.00
   -4    6   14     -2.24      0.00
   -3    6   14     -3.14      0.00
   -2    6   14     -2.35      0.00
   -1    6   14      2.03      0.00
    0    6   14      1.83      0.00
    1    6   14     -0.99      0.00
    2    6   14     -0.54      0.00
    3    6   14      0.36      0.00
    4    6   14     -1.26      0.00
    5    6   14     -1.13      0.00
    6    6   14     -3.86      0.00
   -6    7   14      0.32      0.00
   -5    7   14     -1.10      0.00
   -4    7   14     -0.91      0.00
   -3    7   14      0.26      0.00
   -2    7   14      2.65      0.00
   -1    7   14     -0.71      0.00
    0    7   14      1.66      0.00
    1    7   14      1.32      0.00
    2    7   14     -1.50      0.00
    3    7   14      4.24      0.00
    4    7   14     -1.83      0.00
    5    7   14      1.93      0.00
    6    7   14     -0.70      0.00
    7    7   14      3.01      0.00
   -7    8   14     -2.88      0.00
   -6    8   14      2.12      0.00
   -5    8   14      1.04      0.00
   -4    8   14      0.32      0.00
   -3    8   14      0.94      0.00
   -2    8   14     -0.21      0.00
   -1    8   14     -0.48      0.00
    0    8   14      2.60      0.00
    1    8   14     -0.45      0.00
    2    8   14      1.89      0.00
    3    8   14     -1.71      0.00
    4    8   14     -4.11      0.00
    5    8   14      1.05      0.00
    6    8   14      2.04      0.00
    7    8   14     -0.84      0.00
   -7    9   14     -1.31      0.00
   -6    9   14      2.09      0.00
   -5    9   14      3.50      0.00
   -4    9   14     -0.73      0.00
   -3    9   14     -3.69      0.00
   -2    9   14     -1.66      0.00
   -1    9   14      5.34      0.00
    0    9   14     -2.72      0.00
    1    9   14     -3.15      0.00
    2    9   14     -1.37      0.00
    3    9   14     -2.06      0.00
    4    9   14     -1.86      0.00
    5    9   14      4.68      0.00
    6    9   14     -1.10      0.00
    7    9   14      0.24      0.00
   -6   10   14      1.76      0.00
   -5   10   14     -3.06      0.00
   -4   10   14     -0.43      0.00
   -3   10   14     -1.50      0.00
   -2   10   14      3.88      0.00
   -1   10   14     -2.17      0.00
    0   10   14     -6.80      0.00
    1   10   14      2.12      0.00
    2   10   14      1.23      0.00
    3   10   14     -0.03      0.00
    4   10   14      1.39      0.00
    5   10   14     -3.03      0.00
    6   10   14     -3.47      0.00
   -6   11   14     -1.87      0.00
   -5   11   14     -1.64      0.00
   -4   11   14      0.01      0.00
   -3   11   14      0.74      0.00
   -1   11   14     -4.70      0.00
    0   11   14      3.42      0.00
    1   11   14      3.33      0.00
    2   11   14      1.02      0.00
    3   11   14      0.64      0.00
    4   11   14     -3.27      0.00
    5   11   14      3.43      0.00
    6   11   14      2.19      0.00
   -5   12   14     -0.12      0.00
   -4   12   14     -2.14      0.00
    0   12   14      1.07      0.00
    1   12   14     -1.54      0.00
    2   12   14     -0.64      0.00
    3   12   14     -2.15      0.00
    4   12   14      4.25      0.00
    5   12   14      1.22      0.00
    0    1   15     -5.51      0.00
    1    1   15     -1.33      0.00
   -1    2   15     -3.29      0.00
    0    2   15      0.19      0.00
    1    2   15      4.63      0.00
    2    2   15     -0.27      0.00
   -2    3   15     -0.44      0.00
   -1    3   15      1.04      0.00
    0    3   15      3.68      0.00
    1    3   15     -2.20      0.00
    2    3   15     -2.01      0.00
    3    3   15      2.41      0.00
   -3    4   15     -1.46      0.00
   -2    4   15      1.37      0.00
   -1    4   15      2.21      0.00
    0    4   15      0.79      0.00
    1    4   15     -2.24      0.00
    2    4   15      0.60      0.00
    3    4   15      2.92      0.00
    4    4   15      0.89      0.00
   -4    5   15      0.79      0.00
   -3    5   15     -0.62      0.00
   -2    5   15     -0.76      0.00
   -1    5   15     -3.15      0.00
    0    5   15     -0.49      0.00
    1    5   15     -0.48      0.00
    2    5   15     -1.84      0.00
    3    5   15      2.85      0.00
    4    5   15      0.83      0.00
   -3    6   15     -2.46      0.00
   -2    6   15      0.17      0.00
    1    6   15     -1.74      0.00
    2    6   15      2.54      0.00
    3    6   15      1.47      0.00
    4    6   15     -4.98      0.00
   -3    7   15      0.42      0.00
   -2    7   15      1.02      0.00
    2    7   15      2.44      0.00
    3    7   15      1.80      0.00
   -2    8   15     -2.23      0.00
    2    8   15      3.09      0.00
   -1    9   15      2.52      0.00
    0    9   15      3.44      0.00
    1    9   15      0.70      0.00
    1   10   15     -4.43      0.00
    1    1    0   -179.16      0.00
    0    2    0     -5.03      0.00
   15   17    0      5.48      0.00
   14   18    0      0.86      0.00
   11   19    0      1.48      0.00
   13   19    0     -4.49      0.00
  -12   20    0      5.11      0.00
  -10   20    0     -1.84      0.00
    8   20    0      1.48      0.00
   10   20    0      5.07      0.00
   12   20    0     -7.63      0.00
  -11   21    0     -3.18      0.00
   -9   21    0      0.91      0.00
   -7   21    0      0.07      0.00
    7   21    0     -0.95      0.00
    9   21    0      0.26      0.00
   11   21    0     -6.25      0.00
   -8   22    0     -0.63      0.00
   -6   22    0     -1.73      0.00
    2   22    0     -0.62      0.00
    4   22    0     -2.30      0.00
    6   22    0     -0.20      0.00
    8   22    0     -1.98      0.00
   -5   23    0      2.09      0.00
   -3   23    0      0.81      0.00
   -1   23    0     -1.33      0.00
    1   23    0      0.51      0.00
    3   23    0     -0.25      0.00
    5   23    0     -0.41      0.00
    0    0    1    227.81      0.00
    0    1    1      9.70      0.00
    1    1    1    -52.10      0.00
    0    2    1    115.33      0.00
  -16   17    1      5.40      0.00
   16   17    1      8.01      0.00
  -15   18    1     -2.28      0.00
   13   18    1      0.87      0.00
   14   18    1      0.43      0.00
   15   18    1      0.39      0.00
  -14   19    1      1.05      0.00
  -13   19    1     -0.23      0.00
   13   19    1     -3.76      0.00
   14   19    1      0.31      0.00
  -10   20    1     -0.28      0.00
   -9   20    1     -6.41      0.00
    8   20    1     -0.83      0.00
    9   20    1     -0.35      0.00
   10   20    1      3.31      0.00
  -11   21    1     -2.86      0.00
  -10   21    1     -1.69      0.00
   -9   21    1      3.08      0.00
   -8   21    1      2.80      0.00
   -7   21    1     -2.60      0.00
    6   21    1      2.02      0.00
    7   21    1     -0.99      0.00
    8   21    1     -0.54      0.00
    9   21    1     -1.02      0.00
   10   21    1     -0.08      0.00
   11   21    1     -3.57      0.00
   -9   22    1      0.36      0.00
   -8   22    1     -1.67      0.00
   -7   22    1     -2.14      0.00
   -6   22    1     -0.07      0.00
    2   22    1     -0.90      0.00
    3   22    1     -3.11      0.00
    4   22    1     -2.49      0.00
    5   22    1      3.88      0.00
    6   22    1     -0.01      0.00
    7   22    1     -0.53      0.00
    8   22    1      0.35      0.00
    9   22    1      0.08      0.00
   -6   23    1     -1.00      0.00
   -5   23    1      0.03      0.00
   -3   23    1     -0.88      0.00
   -2   23    1      1.84      0.00
   -1   23    1     -0.85      0.00
    0   23    1      1.88      0.00
    1   23    1     -0.43      0.00
    2   23    1     -0.48      0.00
    3   23    1      0.71      0.00
    4   23    1      1.85      0.00
    5   23    1     -1.50      0.00
    6   23    1     -1.80      0.00
  -16   17    2      4.54      0.00
   16   17    2      1.74      0.00
  -15   18    2     -3.68      0.00
   13   18    2      5.21      0.00
   14   18    2     -2.70      0.00
   15   18    2     -7.47      0.00
  -14   19    2      5.08      0.00
  -13   19    2      0.19      0.00
   13   19    2     -1.21      0.00
   14   19    2     -4.06      0.00
  -12   20    2      2.76      0.00
   12   20    2      1.29      0.00
  -10   21    2     -0.63      0.00
   -9   21    2      1.99      0.00
   -8   21    2      2.66      0.00
   -7   21    2     -2.33      0.00
   -6   21    2     -1.98      0.00
    5   21    2     -7.12      0.00
    6   21    2     -4.37      0.00
    7   21    2     -1.52      0.00
    8   21    2     -1.19      0.00
    9   21    2     -1.17      0.00
   10   21    2      2.18      0.00
   -8   22    2     -2.87      0.00
   -7   22    2     -3.03      0.00
   -6   22    2      2.55      0.00
   -5   22    2     -1.10      0.00
    0   22    2     -2.31      0.00
    2   22    2     -0.67      0.00
    3   22    2     -1.39      0.00
    4   22    2     -3.89      0.00
    5   22    2     -0.08      0.00
    6   22    2      1.88      0.00
    7   22    2      2.62      0.00
    8   22    2      2.06      0.00
   -5   23    2     -1.26      0.00
   -4   23    2      2.56      0.00
   -2   23    2      4.23      0.00
   -1   23    2      0.63      0.00
    0   23    2     -1.38      0.00
    1   23    2     -1.43      0.00
    2   23    2      1.96      0.00
    3   23    2     -0.52      0.00
    4   23    2      0.12      0.00
    5   23    2     -0.09      0.00
   16   16    3     -3.99      0.00
  -16   17    3      1.52      0.00
   16   17    3      0.11      0.00
  -15   18    3     -0.53      0.00
   15   18    3     -3.80      0.00
  -13   19    3      1.11      0.00
   13   19    3     -1.96      0.00
  -12   20    3      1.68      0.00
  -11   20    3     -6.01      0.00
   11   20    3     -0.13      0.00
   12   20    3      4.57      0.00
  -10   21    3      4.20      0.00
   -9   21    3     -1.48      0.00
   -8   21    3      0.29      0.00
   -7   21    3      1.57      0.00
   -6   21    3      1.53      0.00
   -5   21    3     -2.36      0.00
   10   21    3      2.26      0.00
   -8   22    3      1.90      0.00
   -7   22    3     -0.04      0.00
   -6   22    3     -1.37      0.00
   -5   22    3     -1.82      0.00
    2   22    3     -1.73      0.00
    3   22    3      0.91      0.00
    4   22    3     -3.26      0.00
    5   22    3     -3.77      0.00
    6   22    3      1.69      0.00
    7   22    3      3.42      0.00
    8   22    3      0.80      0.00
   -4   23    3      1.28      0.00
   -3   23    3     -4.46      0.00
   -2   23    3      5.45      0.00
   -1   23    3     -1.47      0.00
    0   23    3     -1.18      0.00
    1   23    3     -0.02      0.00
    2   23    3     -1.10      0.00
    3   23    3     -2.17      0.00
    4   23    3      1.06      0.00
   16   16    4     -4.86      0.00
  -15   17    4      2.40      0.00
   15   17    4     -1.38      0.00
  -14   18    4     -0.50      0.00
   14   18    4     -0.85      0.00
  -13   19    4      1.36      0.00
  -12   19    4      0.24      0.00
   10   19    4     -3.76      0.00
   13   19    4      0.27      0.00
  -11   20    4     -2.76      0.00
  -10   20    4     -1.48      0.00
   -9   20    4      1.60      0.00
    9   20    4     -7.12      0.00
   10   20    4     -3.18      0.00
   11   20    4      0.05      0.00
   -9   21    4     -0.25      0.00
   -8   21    4      3.97      0.00
   -7   21    4      0.42      0.00
   -6   21    4      0.15      0.00
   -5   21    4      0.43      0.00
    9   21    4     -5.54      0.00
   -7   22    4     -2.96      0.00
   -6   22    4      0.30      0.00
   -5   22    4      4.32      0.00
   -4   22    4      2.04      0.00
    1   22    4      5.94      0.00
    2   22    4     -1.11      0.00
    3   22    4      2.70      0.00
    4   22    4     -0.48      0.00
    5   22    4     -4.60      0.00
    6   22    4     -2.45      0.00
    7   22    4     -0.01      0.00
   -2   23    4      1.81      0.00
   -1   23    4     -0.08      0.00
    0   23    4     -1.22      0.00
    1   23    4     -1.93      0.00
    2   23    4     -0.24      0.00
   15   16    5      0.77      0.00
   16   16    5     -0.99      0.00
  -15   17    5      3.27      0.00
   14   17    5     -2.51      0.00
   15   17    5      0.35      0.00
  -13   18    5     -2.49      0.00
   13   18    5      0.37      0.00
  -12   19    5      2.00      0.00
   12   19    5     -0.61      0.00
  -10   20    5     -2.49      0.00
   -9   20    5      1.12      0.00
   -8   20    5     -2.80      0.00
   -7   20    5     -1.58      0.00
   -6   20    5     -5.61      0.00
    9   20    5     -4.38      0.00
   10   20    5     -4.04      0.00
   -8   21    5     -1.97      0.00
   -7   21    5     -0.48      0.00
    2   21    5      3.66      0.00
    3   21    5     -3.05      0.00
    8   21    5     -3.33      0.00
   -5   22    5      3.64      0.00
   -4   22    5      4.63      0.00
   -3   22    5     -0.17      0.00
    0   22    5     -3.15      0.00
    1   22    5      4.32      0.00
    2   22    5      1.60      0.00
    3   22    5      4.31      0.00
    4   22    5      1.17      0.00
    5   22    5     -3.64      0.00
  -15   16    6     -0.63      0.00
   14   16    6     -1.39      0.00
   15   16    6      0.87      0.00
  -14   17    6      0.83      0.00
  -13   17    6      4.77      0.00
   13   17    6      0.58      0.00
   14   17    6     -5.04      0.00
  -13   18    6     -2.73      0.00
   -9   18    6      2.93      0.00
   12   18    6      1.44      0.00
   13   18    6      2.81      0.00
  -11   19    6     -0.96      0.00
  -10   19    6      1.59      0.00
   -9   19    6     -2.00      0.00
   10   19    6     -5.83      0.00
   11   19    6      0.91      0.00
   -9   20    6     -0.54      0.00
    8   20    6     -2.38      0.00
    9   20    6     -1.94      0.00
    0   21    6      4.15      0.00
    1   21    6     -5.06      0.00
    2   21    6      0.40      0.00
    3   21    6     -4.63      0.00
    4   21    6      3.52      0.00
    5   21    6      2.04      0.00
    6   21    6      1.46      0.00
    7   21    6     -2.92      0.00
   -3   22    6      5.84      0.00
   -2   22    6      3.10      0.00
   -1   22    6      1.06      0.00
    0   22    6     -1.12      0.00
    1   22    6      1.98      0.00
    2   22    6      1.48      0.00
    3   22    6      1.50      0.00
  -14   15    7      4.18      0.00
  -13   15    7     -1.31      0.00
   15   15    7     -2.11      0.00
  -14   16    7     -1.09      0.00
  -13   16    7      0.76      0.00
  -12   16    7      2.21      0.00
  -11   16    7      2.56      0.00
   13   16    7      7.46      0.00
   14   16    7     -0.78      0.00
  -13   17    7      1.63      0.00
  -12   17    7     -1.87      0.00
  -11   17    7     -4.95      0.00
   12   17    7     -2.21      0.00
   13   17    7     -0.81      0.00
  -12   18    7     -1.79      0.00
  -11   18    7      3.46      0.00
  -10   18    7      0.29      0.00
   11   18    7     -2.16      0.00
   12   18    7     -1.43      0.00
  -10   19    7     -0.91      0.00
   -9   19    7      1.18      0.00
   -8   19    7     -0.22      0.00
   -7   19    7      1.99      0.00
    0   19    7      4.56      0.00
   10   19    7     -4.94      0.00
   -8   20    7     -0.35      0.00
   -7   20    7     -1.87      0.00
   -1   20    7     -4.90      0.00
    0   20    7     -2.40      0.00
    1   20    7     -3.02      0.00
    8   20    7      0.63      0.00
   -5   21    7     -1.94      0.00
   -3   21    7     -0.87      0.00
   -2   21    7      0.64      0.00
   -1   21    7     -3.91      0.00
    0   21    7      1.37      0.00
    1   21    7      0.09      0.00
    2   21    7      1.99      0.00
    3   21    7     -2.83      0.00
    4   21    7      1.64      0.00
    5   21    7     -0.30      0.00
  -13   14    8     -2.50      0.00
   13   14    8      4.29      0.00
   14   14    8     -0.47      0.00
  -14   15    8      1.41      0.00
  -13   15    8     -3.65      0.00
  -12   15    8      3.05      0.00
  -11   15    8     -0.67      0.00
   12   15    8      0.37      0.00
   13   15    8     -4.29      0.00
   14   15    8      2.66      0.00
  -13   16    8      1.05      0.00
  -12   16    8      3.92      0.00
  -11   16    8      1.56      0.00
  -10   16    8     -1.07      0.00
   -9   16    8     -6.76      0.00
   11   16    8      3.40      0.00
   12   16    8     -4.96      0.00
   13   16    8      3.70      0.00
  -12   17    8     -0.22      0.00
  -11   17    8     -4.42      0.00
  -10   17    8     -4.17      0.00
   -9   17    8      2.12      0.00
   -8   17    8      0.15      0.00
   -7   17    8     -0.78      0.00
   10   17    8      1.28      0.00
   11   17    8     -4.53      0.00
   12   17    8      1.41      0.00
  -10   18    8      1.28      0.00
   -9   18    8      0.00      0.00
   -8   18    8      2.57      0.00
   -7   18    8      0.85      0.00
   -6   18    8      2.30      0.00
    9   18    8      1.26      0.00
   10   18    8     -3.92      0.00
   -9   19    8      3.56      0.00
   -8   19    8     -2.05      0.00
   -7   19    8     -1.94      0.00
   -6   19    8     -3.48      0.00
   -5   19    8     -0.25      0.00
   -4   19    8    -10.56      0.00
   -3   19    8     -4.19      0.00
   -2   19    8      4.38      0.00
   -1   19    8     -5.54      0.00
    3   19    8     -0.83      0.00
    9   19    8     -3.29      0.00
   -6   20    8      5.81      0.00
   -5   20    8      8.22      0.00
   -4   20    8      2.36      0.00
   -3   20    8     -0.59      0.00
   -2   20    8      2.14      0.00
   -1   20    8     -0.64      0.00
    0   20    8      2.50      0.00
    1   20    8     -7.03      0.00
    2   20    8     -2.22      0.00
    3   20    8      1.98      0.00
    4   20    8      1.72      0.00
    5   20    8     -0.33      0.00
    6   20    8     -1.52      0.00
   -1   21    8     -2.78      0.00
    0   21    8      2.67      0.00
    1   21    8     -1.15      0.00
  -12   13    9     -0.01      0.00
   13   13    9      6.77      0.00
  -13   14    9     -1.10      0.00
  -12   14    9      4.92      0.00
  -11   14    9      0.64      0.00
   12   14    9      4.77      0.00
   13   14    9      3.04      0.00
   14   14    9     -0.27      0.00
  -13   15    9     -0.57      0.00
  -12   15    9      1.15      0.00
  -11   15    9     -2.24      0.00
  -10   15    9     -4.08      0.00
   -9   15    9      3.24      0.00
   11   15    9      0.70      0.00
   12   15    9     -0.77      0.00
   13   15    9     -2.44      0.00
  -12   16    9      1.81      0.00
  -11   16    9     -1.90      0.00
  -10   16    9      1.28      0.00
   -9   16    9     -1.27      0.00
   -8   16    9     -0.68      0.00
   -7   16    9     -0.41      0.00
    9   16    9      1.14      0.00
   10   16    9     -0.37      0.00
   11   16    9      1.20      0.00
   12   16    9     -1.14      0.00
  -11   17    9     -1.95      0.00
  -10   17    9     -1.51      0.00
   -9   17    9      0.25      0.00
   -8   17    9     -1.62      0.00
   -7   17    9     -0.10      0.00
   -6   17    9      1.52      0.00
   -5   17    9     -0.35      0.00
    8   17    9     -1.09      0.00
    9   17    9      1.43      0.00
   10   17    9      0.43      0.00
   11   17    9     -0.05      0.00
   -9   18    9     -1.49      0.00
   -8   18    9      3.26      0.00
   -7   18    9      1.84      0.00
   -6   18    9      3.45      0.00
   -5   18    9      5.69      0.00
   -4   18    9      1.37      0.00
   -3   18    9      0.00      0.00
   -2   18    9     -3.41      0.00
    3   18    9      1.58      0.00
    7   18    9     -2.35      0.00
    8   18    9      3.20      0.00
    9   18    9      0.09      0.00
   -7   19    9     -1.41      0.00
   -6   19    9     -3.46      0.00
   -5   19    9     -3.10      0.00
   -4   19    9     -5.49      0.00
   -3   19    9     -6.37      0.00
   -2   19    9      0.32      0.00
   -1   19    9     -0.41      0.00
    0   19    9      5.05      0.00
    1   19    9      6.10      0.00
    2   19    9     -0.01      0.00
    7   19    9     -0.80      0.00
   -3   20    9      6.07      0.00
   -2   20    9      1.91      0.00
   -1   20    9     -1.02      0.00
    0   20    9      3.78      0.00
    1   20    9     -3.53      0.00
    2   20    9     -5.02      0.00
    3   20    9     -0.53      0.00
   12   12   10      3.83      0.00
  -12   13   10      1.66      0.00
  -11   13   10     -2.04      0.00
  -10   13   10     -2.93      0.00
   11   13   10      0.24      0.00
   12   13   10     -2.45      0.00
   13   13   10      0.55      0.00
  -13   14   10      2.28      0.00
  -12   14   10      3.59      0.00
  -11   14   10     -3.73      0.00
  -10   14   10      1.48      0.00
   -9   14   10     -4.08      0.00
   10   14   10      0.94      0.00
   11   14   10      2.81      0.00
   12   14   10      1.54      0.00
   13   14   10      0.93      0.00
  -12   15   10     -3.54      0.00
  -11   15   10      0.07      0.00
  -10   15   10     -0.48      0.00
   -9   15   10      1.87      0.00
   -8   15   10      0.39      0.00
   -7   15   10     -3.70      0.00
    8   15   10     -4.90      0.00
    9   15   10      1.76      0.00
   10   15   10      1.27      0.00
   11   15   10     -0.40      0.00
   12   15   10     -2.36      0.00
  -10   16   10      1.93      0.00
   -9   16   10     -1.92      0.00
   -8   16   10     -4.42      0.00
   -7   16   10      1.71      0.00
   -6   16   10     -0.23      0.00
   -5   16   10      1.63      0.00
    7   16   10     -1.89      0.00
    8   16   10      0.29      0.00
    9   16   10      2.30      0.00
   10   16   10     -1.03      0.00
   -9   17   10     -2.22      0.00
   -8   17   10      1.56      0.00
   -7   17   10     -0.95      0.00
   -6   17   10     -0.73      0.00
   -5   17   10      0.44      0.00
   -4   17   10     -0.42      0.00
   -3   17   10      0.47      0.00
   -2   17   10     -0.48      0.00
    5   17   10      1.15      0.00
    6   17   10     -0.29      0.00
    7   17   10      0.69      0.00
    8   17   10     -0.16      0.00
    9   17   10      2.01      0.00
   -7   18   10      0.37      0.00
   -6   18   10      1.21      0.00
   -5   18   10      2.20      0.00
   -4   18   10      2.90      0.00
   -3   18   10      3.39      0.00
   -2   18   10     -1.58      0.00
   -1   18   10      2.72      0.00
    0   18   10     -2.90      0.00
    1   18   10     -5.42      0.00
    5   18   10      1.86      0.00
    6   18   10      1.65      0.00
    7   18   10     -2.30      0.00
   -3   19   10     -2.64      0.00
   -2   19   10      0.94      0.00
   -1   19   10     -1.17      0.00
    0   19   10     -2.83      0.00
    1   19   10      4.52      0.00
    2   19   10      3.93      0.00
    3   19   10      1.95      0.00
   11   11   11      0.13      0.00
  -11   12   11     -2.20      0.00
  -10   12   11     -1.65      0.00
   10   12   11      3.36      0.00
   11   12   11      3.79      0.00
   12   12   11      4.55      0.00
  -12   13   11     -3.92      0.00
  -11   13   11     -0.96      0.00
  -10   13   11      2.29      0.00
   10   13   11      0.26      0.00
   11   13   11      0.55      0.00
   12   13   11     -4.60      0.00
  -11   14   11      1.27      0.00
  -10   14   11      3.55      0.00
   -9   14   11     -4.07      0.00
   -8   14   11     -5.93      0.00
   -7   14   11      0.31      0.00
   -6   14   11     -0.73      0.00
    7   14   11      0.19      0.00
    8   14   11     -0.80      0.00
    9   14   11      0.88      0.00
   10   14   11      1.59      0.00
   11   14   11     -0.70      0.00
  -10   15   11     -1.37      0.00
   -9   15   11     -2.14      0.00
   -8   15   11      2.99      0.00
   -7   15   11     -1.59      0.00
   -6   15   11      0.75      0.00
   -5   15   11     -0.91      0.00
   -4   15   11     -2.75      0.00
    5   15   11      1.44      0.00
    6   15   11     -0.68      0.00
    7   15   11      1.65      0.00
    8   15   11     -0.29      0.00
    9   15   11      2.65      0.00
   10   15   11     -0.60      0.00
   -8   16   11     -1.62      0.00
   -7   16   11      0.43      0.00
   -6   16   11     -1.29      0.00
   -5   16   11     -1.19      0.00
   -4   16   11      1.12      0.00
   -3   16   11     -2.88      0.00
   -2   16   11     -1.36      0.00
    5   16   11      0.32      0.00
    6   16   11      0.71      0.00
    7   16   11     -0.72      0.00
    8   16   11      0.53      0.00
   -6   17   11      0.14      0.00
   -5   17   11     -1.99      0.00
   -4   17   11     -2.66      0.00
   -3   17   11      1.35      0.00
   -2   17   11      1.29      0.00
   -1   17   11      3.58      0.00
    0   17   11      1.26      0.00
    1   17   11      9.47      0.00
    4   17   11      0.12      0.00
    5   17   11     -0.68      0.00
    6   17   11     -0.26      0.00
   -3   18   11      3.77      0.00
   -2   18   11      1.67      0.00
   -1   18   11      1.21      0.00
    0   18   11     -1.14      0.00
    1   18   11     -4.59      0.00
    2   18   11     -4.90      0.00
    3   18   11      1.47      0.00
   10   10   12     -2.51      0.00
  -10   11   12      1.47      0.00
   10   11   12     -1.45      0.00
   11   11   12      2.68      0.00
  -11   12   12      1.36      0.00
   10   12   12      2.18      0.00
   11   12   12     -0.71      0.00
   12   12   12      0.02      0.00
  -11   13   12      2.46      0.00
  -10   13   12     -1.32      0.00
   -9   13   12      1.58      0.00
   -8   13   12      4.68      0.00
    8   13   12      4.66      0.00
    9   13   12      0.13      0.00
   10   13   12     -0.48      0.00
   11   13   12     -1.08      0.00
   -9   14   12      0.87      0.00
   -8   14   12     -6.26      0.00
   -7   14   12     -2.77      0.00
   -6   14   12     -0.29      0.00
   -5   14   12      2.62      0.00
   -4   14   12      1.40      0.00
    5   14   12      0.45      0.00
    6   14   12      0.05      0.00
    7   14   12     -0.19      0.00
    8   14   12     -0.05      0.00
    9   14   12     -1.07      0.00
   -8   15   12      0.74      0.00
   -7   15   12      1.69      0.00
   -6   15   12      3.23      0.00
   -5   15   12     -1.03      0.00
   -4   15   12     -3.90      0.00
   -3   15   12      2.97      0.00
   -2   15   12     -3.80      0.00
   -1   15   12     -0.99      0.00
    4   15   12     -0.71      0.00
    5   15   12      0.85      0.00
    6   15   12     -1.26      0.00
    7   15   12      0.82      0.00
    8   15   12      1.49      0.00
   -5   16   12     -2.52      0.00
   -4   16   12      1.76      0.00
   -3   16   12     -1.79      0.00
   -2   16   12     -3.00      0.00
   -1   16   12      0.52      0.00
    0   16   12      0.32      0.00
    1   16   12     -3.48      0.00
    2   16   12      3.20      0.00
    4   16   12     -0.13      0.00
    5   16   12     -1.14      0.00
   -1   17   12      2.90      0.00
    0   17   12     -0.10      0.00
    1   17   12      2.96      0.00
   10   10   13     -1.07      0.00
  -10   11   13      1.57      0.00
   -8   11   13      3.78      0.00
   10   11   13      0.38      0.00
   11   11   13      1.28      0.00
   -9   12   13     -0.92      0.00
    9   12   13      0.10      0.00
   -8   13   13      1.11      0.00
   -7   13   13      0.61      0.00
   -6   13   13      3.51      0.00
   -5   13   13     -5.85      0.00
   -3   13   13      1.90      0.00
   -2   13   13      2.94      0.00
    4   13   13      1.23      0.00
    5   13   13      1.81      0.00
    6   13   13      2.77      0.00
    7   13   13      0.73      0.00
    8   13   13      2.05      0.00
   -6   14   13     -1.60      0.00
   -5   14   13     -2.16      0.00
   -4   14   13      3.33      0.00
   -3   14   13      1.75      0.00
   -2   14   13     -1.06      0.00
   -1   14   13     -2.98      0.00
    0   14   13      3.10      0.00
    3   14   13      2.89      0.00
    4   14   13      4.13      0.00
    5   14   13     -1.31      0.00
    6   14   13      0.42      0.00
   -4   15   13      0.13      0.00
   -3   15   13      0.04      0.00
   -2   15   13     -1.24      0.00
   -1   15   13      0.35      0.00
    0   15   13      2.85      0.00
    1   15   13     -1.49      0.00
    2   15   13      0.34      0.00
    3   15   13      3.96      0.00
    4   15   13     -1.84      0.00
    8    8   14     -0.60      0.00
   -8    9   14      1.30      0.00
    8    9   14      2.02      0.00
    9    9   14     -0.40      0.00
   -9   10   14      1.15      0.00
   -8   10   14     -1.15      0.00
   -7   10   14      0.52      0.00
    7   10   14      0.10      0.00
    8   10   14      1.89      0.00
    9   10   14     -3.38      0.00
   -8   11   14      1.80      0.00
   -7   11   14      1.23      0.00
   -2   11   14      2.72      0.00
    7   11   14      2.95      0.00
    8   11   14     -1.28      0.00
   -6   12   14      0.26      0.00
   -3   12   14      1.87      0.00
   -2   12   14     -1.78      0.00
   -1   12   14      0.52      0.00
    6   12   14     -2.51      0.00
   -4   13   14      0.85      0.00
   -3   13   14     -1.67      0.00
   -2   13   14      0.87      0.00
   -1   13   14      0.83      0.00
    0   13   14      0.21      0.00
    1   13   14      0.99      0.00
    2   13   14     -1.20      0.00
    3   13   14      2.18      0.00
    4   13   14      2.93      0.00
    0    0   15      5.51      0.00
    5    5   15     -2.31      0.00
   -5    6   15      0.60      0.00
   -4    6   15     -5.04      0.00
   -1    6   15     -1.06      0.00
    0    6   15     -0.83      0.00
    5    6   15     -0.96      0.00
    6    6   15      0.54      0.00
   -6    7   15      0.17      0.00
   -5    7   15      0.03      0.00
   -4    7   15     -0.63      0.00
   -1    7   15     -1.94      0.00
    0    7   15     -2.32      0.00
    1    7   15      1.74      0.00
    4    7   15     -5.51      0.00
    5    7   15      2.11      0.00
    6    7   15      2.03      0.00
    7    7   15      2.95      0.00
   -7    8   15     -0.77      0.00
   -6    8   15      0.85      0.00
   -5    8   15     -0.89      0.00
   -4    8   15      1.40      0.00
   -3    8   15      1.63      0.00
   -1    8   15     -1.43      0.00
    0    8   15      1.89      0.00
    1    8   15      3.01      0.00
    3    8   15     -2.53      0.00
    4    8   15     -1.98      0.00
    5    8   15      3.91      0.00
    6    8   15      0.57      0.00
    7    8   15     -0.44      0.00
    8    8   15     -0.57      0.00
   -7    9   15      0.50      0.00
   -6    9   15      0.91      0.00
   -5    9   15     -1.49      0.00
   -4    9   15      0.93      0.00
   -3    9   15     -0.75      0.00
   -2    9   15     -3.05      0.00
    2    9   15     -5.62      0.00
    3    9   15     -2.26      0.00
    4    9   15      1.13      0.00
    5    9   15      5.66      0.00
    6    9   15     -3.44      0.00
    7    9   15     -1.98      0.00
   -6   10   15      1.14      0.00
   -5   10   15     -0.27      0.00
   -4   10   15     -0.32      0.00
   -3   10   15     -1.60      0.00
   -2   10   15      2.80      0.00
   -1   10   15      2.12      0.00
    0   10   15     -1.94      0.00
    2   10   15     -1.56      0.00
    3   10   15      3.06      0.00
    4   10   15      2.20      0.00
    5   10   15     -0.77      0.00
    6   10   15     -3.61      0.00
   -3   11   15      0.14      0.00
   -2   11   15      1.84      0.00
   -1   11   15     -1.85      0.00
    0   11   15     -0.23      0.00
    1   11   15      1.49      0.00
    2   11   15      2.30      0.00
    3   11   15      2.17      0.00
    0    0    0      0.00      0.00
loop_
  _platon_squeeze_void_nr
  _platon_squeeze_void_average_x
  _platon_squeeze_void_average_y
  _platon_squeeze_void_average_z
  _platon_squeeze_void_volume
  _platon_squeeze_void_count_electrons
  _platon_squeeze_void_content
   1  0.001 -0.002 -0.001      1454       441 ' '
   2  0.250  0.750  0.500        64         5 ' '
   3  0.750  0.250  0.500        64         5 ' '
loop_
  _platon_missing_refln_index_h
  _platon_missing_refln_index_k
  _platon_missing_refln_index_l
  _platon_missing_refln_theta
    1    1    0     1.678
    0    2    0     2.373
    0    0    1     1.641
    0    1    1     2.025
    1    1    1     2.348
    0    2    1     2.886
_platon_squeeze_void_probe_radius                  1.20
_platon_squeeze_details
)
TITL shelx     P 4/n        R = 0.17
CELL   17.1627   17.1627   12.4070     90.00     90.00     90.00
SPGR P4/n
C101 0.250 0.252 0.453 !       6.58 eA-3
C102 0.750 0.751 0.328 !       5.05 eA-3
C103 0.500 1.000 0.000 !       3.74 eA-3
C104 0.154 0.313 0.154 !       3.31 eA-3
C105 0.996 0.062 0.049 !       2.11 eA-3
C106 0.033 0.529 0.080 !       2.11 eA-3
C107 0.033 0.972 0.920 !       2.11 eA-3
C108 0.593 0.534 0.121 !       2.08 eA-3
C109 0.516 0.942 0.122 !       2.00 eA-3
C110 0.562 0.934 0.168 !       1.86 eA-3
Q111 0.203 0.155 0.258 !       1.81 eA-3
C112 0.330 0.126 0.110 !       1.78 eA-3
C113 0.373 0.248 0.328 !       1.64 eA-3
C114 0.613 0.703 0.208 !       1.50 eA-3
C115 0.252 0.733 0.472 !       1.50 eA-3
Q116 0.140 0.284 0.296 !       1.45 eA-3
C117 0.743 0.887 0.207 !       1.30 eA-3
C118 0.964 0.888 0.099 !       1.30 eA-3
C119 0.709 0.612 0.062 !       1.29 eA-3
C120 0.980 0.875 0.021 !       1.26 eA-3
C121 0.750 0.744 0.422 !       1.23 eA-3
C122 0.706 0.657 0.177 !       1.22 eA-3
C123 0.938 0.904 0.041 !       1.22 eA-3
C124 0.143 0.248-0.006 !       1.19 eA-3
Q125 0.351 0.686 0.180 !       1.18 eA-3
C126 0.897 0.610 0.158 !       1.16 eA-3
C127 0.876 0.749 0.038 !       1.16 eA-3
C128 0.848 0.609 0.206 !       1.11 eA-3
C129 0.809 0.595 0.032 !       1.10 eA-3
C130 0.649 0.853 0.223 !       1.10 eA-3
C131 0.934 0.766 0.061 !       1.06 eA-3
C132 0.570 0.745 0.138 !       1.03 eA-3
C133 0.717 0.972 0.110 !       1.03 eA-3
C134 0.593 0.969 0.202 !       1.01 eA-3
C135 0.534 0.673 0.090 !       1.01 eA-3
C136 0.827 0.869 0.080 !       1.00 eA-3
C137 0.598 0.705 0.105 !       1.00 eA-3
C138 0.859 0.923 0.109 !       1.00 eA-3
C139 0.644 0.829 0.126 !       0.99 eA-3
C140 0.848 0.622 0.127 !       0.99 eA-3
C141 0.933 0.075 0.098 !       0.98 eA-3
C142 0.717 0.808 0.043 !       0.97 eA-3
C143 0.919 0.861 0.099 !       0.97 eA-3
C144 0.636 0.924 0.091 !       0.96 eA-3
C145 0.082 0.502 0.126 !       0.93 eA-3
Q146 0.871 0.076 0.358 !       0.92 eA-3
C147 0.389 0.279 0.056 !       0.91 eA-3
C148 0.368 0.064 0.087 !       0.91 eA-3
C149 0.732 0.721 0.469 !       0.89 eA-3
C150 0.378 0.967 0.090 !       0.89 eA-3
C151 0.615 0.846 0.192 !       0.87 eA-3
C152 0.863 0.564 0.139 !       0.87 eA-3
Q153 0.060 0.394 0.266 !       0.87 eA-3
C154 0.819 0.642 0.077 !       0.86 eA-3
Q155 0.570 0.456 0.376 !       0.85 eA-3
C156 0.704 0.806 0.126 !       0.85 eA-3
Q157 0.294 0.060 0.345 !       0.85 eA-3
Q158 0.030 0.485 0.465 !       0.82 eA-3
C159 0.679 0.750 0.186 !       0.82 eA-3
C160 0.828 0.985 0.148 !       0.81 eA-3
Q161 0.405 0.653 0.192 !       0.80 eA-3
C162 0.827 0.830 0.073 !       0.79 eA-3
C163 0.711 0.609 0.171 !       0.78 eA-3
C164 0.722 0.653 0.091 !       0.78 eA-3
C165 0.046 0.544 0.162 !       0.77 eA-3
C166 0.266 0.798 0.389 !       0.77 eA-3
C167 0.917 0.665 0.142 !       0.77 eA-3
Q168 0.544 0.095 0.382 !       0.76 eA-3
Q169 0.506 0.076 0.342 !       0.76 eA-3
Q170 0.043 0.421 0.084 !       0.75 eA-3
C171 0.782 0.280 0.406 !       0.75 eA-3
C172 0.807 0.935 0.111 !       0.74 eA-3
Q173 0.124 0.590 0.328 !       0.74 eA-3
C174 0.759 0.299 0.484 !       0.74 eA-3
C175 0.599 0.658 0.013 !       0.74 eA-3
C176 0.079 0.404 0.024 !       0.74 eA-3
C177 0.045 0.186 0.109 !       0.73 eA-3
C178 0.166 0.235 0.212 !       0.72 eA-3
Q179 0.905 0.688 0.233 !       0.72 eA-3
C180 0.390 0.234 0.024 !       0.72 eA-3
C181 0.647 0.954 0.216 !       0.72 eA-3
Q182 0.717 0.175 0.406 !       0.71 eA-3
C183 0.066 0.108 0.053 !       0.71 eA-3
C184 0.802 0.564 0.190 !       0.71 eA-3
C185 0.896 0.609 0.044 !       0.70 eA-3
Q186 0.687 0.906 0.473 !       0.70 eA-3
Q187 0.161 0.879 0.238 !       0.69 eA-3
Q188 0.081 0.150 0.176 !       0.68 eA-3
Q189 0.236 0.471 0.387 !       0.68 eA-3
C190 0.970 0.996 0.192 !       0.68 eA-3
Q191 0.072 0.298 0.260 !       0.68 eA-3
Q192 0.366 0.487 0.281 !       0.68 eA-3
Q193 0.294 0.647 0.032 !       0.68 eA-3
C194 0.756 0.827 0.032 !       0.67 eA-3
Q195 0.963 0.184 0.437 !       0.66 eA-3
C196 0.737 0.876 0.296 !       0.66 eA-3
Q197 0.533 0.188 0.131 !       0.66 eA-3
Q198 0.360 0.561 0.249 !       0.66 eA-3
Q199 0.964 0.532 0.486 !       0.66 eA-3
)
;
_shelx_fab_checksum              59491
loop_
_space_group_symop_operation_xyz
'x, y, z'
'-x+1/2, -y+1/2, z'
'-y+1/2, x, z'
'y, -x+1/2, z'
'-x, -y, -z'
'x-1/2, y-1/2, -z'
'y-1/2, -x, -z'
'-y, x-1/2, -z'
loop_
_atom_site_label
_atom_site_type_symbol
_atom_site_fract_x
_atom_site_fract_y
_atom_site_fract_z
_atom_site_U_iso_or_equiv
_atom_site_adp_type
_atom_site_occupancy
_atom_site_site_symmetry_order
_atom_site_calc_flag
_atom_site_refinement_flags_posn
_atom_site_refinement_flags_adp
_atom_site_refinement_flags_occupancy
Zn1 Zn 0.0000 0.5000 0.5000 0.0462(3) Uani 1 2 d S . P
O1 O -0.05053(18) 0.42321(18) 0.3770(3) 0.0611(9) Uani 1 1 d . . .
C13 C -0.2500 0.2500 0.0000 0.0360(18) Uani 1 4 d S T P
N2 N -0.1141(2) 0.5300(2) 0.5410(3) 0.0590(11) Uani 1 1 d . . .
H2 H -0.1106 0.5629 0.6074 0.071 Uiso 1 1 calc R U .
C10 C -0.1871(2) 0.2858(2) 0.0755(3) 0.0358(9) Uani 1 1 d . . .
O2 O 0.0475(2) 0.3811(3) 0.2797(3) 0.0955(14) Uani 1 1 d . . .
C7 C -0.0799(2) 0.3521(2) 0.2200(3) 0.0431(10) Uani 1 1 d . . .
C8 C -0.1578(2) 0.3671(2) 0.2296(3) 0.0481(11) Uani 1 1 d . . .
H8 H -0.1758 0.4004 0.2856 0.058 Uiso 1 1 calc R U .
C9 C -0.2105(2) 0.3345(2) 0.1590(3) 0.0469(11) Uani 1 1 d . . .
H9 H -0.2644 0.3455 0.1675 0.056 Uiso 1 1 calc R U .
N1 N -0.0071(2) 0.5928(2) 0.3871(3) 0.0643(11) Uani 1 1 d . . .
H1 H -0.0188 0.5695 0.3149 0.077 Uiso 1 1 calc R U .
C6 C -0.0205(3) 0.3894(3) 0.3009(4) 0.0550(12) Uani 1 1 d . . .
C11 C -0.1086(3) 0.2699(2) 0.0663(3) 0.0512(12) Uani 1 1 d . . .
H11 H -0.0907 0.2359 0.0112 0.061 Uiso 1 1 calc R U .
C12 C -0.0552(2) 0.3036(3) 0.1378(4) 0.0552(12) Uani 1 1 d . . .
H12 H -0.0012 0.2931 0.1297 0.066 Uiso 1 1 calc R U .
C4 C -0.1414(3) 0.5811(3) 0.4545(5) 0.0737(16) Uani 1 1 d . . .
H4B H -0.1874 0.6109 0.4792 0.088 Uiso 1 1 calc R U .
H4A H -0.1570 0.5494 0.3914 0.088 Uiso 1 1 calc R U .
C3 C -0.1660(3) 0.4634(3) 0.5680(4) 0.0682(14) Uani 1 1 d . . .
H3A H -0.1750 0.4321 0.5021 0.082 Uiso 1 1 calc R U .
H3B H -0.2169 0.4838 0.5924 0.082 Uiso 1 1 calc R U .
C2 C -0.1330(3) 0.4118(4) 0.6538(5) 0.0796(16) Uani 1 1 d . . .
H2A H -0.1751 0.3768 0.6792 0.096 Uiso 1 1 calc R U .
H2B H -0.1178 0.4450 0.7155 0.096 Uiso 1 1 calc R U .
C5 C -0.0776(3) 0.6366(3) 0.4225(5) 0.0775(16) Uani 1 1 d . . .
H5A H -0.0961 0.6704 0.3630 0.093 Uiso 1 1 calc R U .
H5B H -0.0642 0.6704 0.4845 0.093 Uiso 1 1 calc R U .
C1 C 0.0633(3) 0.6384(3) 0.3765(5) 0.0819(17) Uani 1 1 d . . .
H1B H 0.0741 0.6651 0.4456 0.098 Uiso 1 1 calc R U .
H1A H 0.0555 0.6788 0.3206 0.098 Uiso 1 1 calc R U .
loop_
_atom_site_aniso_label
_atom_site_aniso_U_11
_atom_site_aniso_U_22
_atom_site_aniso_U_33
_atom_site_aniso_U_23
_atom_site_aniso_U_13
_atom_site_aniso_U_12
Zn1 0.0426(4) 0.0470(5) 0.0490(5) -0.0090(3) -0.0034(3) 0.0030(3)
O1 0.059(2) 0.069(2) 0.055(2) -0.0296(17) -0.0078(16) -0.0035(17)
C13 0.038(3) 0.038(3) 0.031(4) 0.000 0.000 0.000
N2 0.051(2) 0.058(2) 0.069(3) -0.028(2) 0.003(2) 0.0003(19)
C10 0.038(2) 0.041(2) 0.028(2) -0.0025(19) -0.0010(18) 0.0042(17)
O2 0.056(2) 0.136(3) 0.095(3) -0.063(3) -0.015(2) 0.001(2)
C7 0.049(3) 0.041(2) 0.040(3) -0.010(2) -0.007(2) 0.0023(19)
C8 0.054(3) 0.054(3) 0.036(3) -0.007(2) -0.003(2) 0.005(2)
C9 0.038(2) 0.061(3) 0.042(3) -0.012(2) -0.002(2) 0.009(2)
N1 0.068(3) 0.057(2) 0.068(3) -0.001(2) -0.010(2) -0.006(2)
C6 0.051(3) 0.054(3) 0.060(3) -0.006(3) 0.001(3) 0.011(2)
C11 0.057(3) 0.055(3) 0.041(3) -0.014(2) 0.001(2) 0.005(2)
C12 0.043(3) 0.064(3) 0.059(3) -0.023(2) -0.001(2) 0.003(2)
C4 0.053(3) 0.060(3) 0.108(5) -0.009(3) -0.016(3) 0.009(3)
C3 0.051(3) 0.083(4) 0.071(4) -0.017(3) 0.002(3) -0.011(3)
C2 0.073(4) 0.093(4) 0.073(4) -0.002(3) 0.005(3) -0.014(3)
C5 0.065(3) 0.060(3) 0.108(5) 0.005(3) -0.019(3) 0.004(3)
C1 0.081(4) 0.079(4) 0.085(4) 0.007(3) 0.001(3) -0.021(3)
loop_
_atom_type_symbol
_atom_type_description
_atom_type_scat_dispersion_real
_atom_type_scat_dispersion_imag
_atom_type_scat_source
C C 0.0033 0.0016 'International Tables Vol C Tables 4.2.6.8 and 6.1.1.4'
H H 0.0000 0.0000 'International Tables Vol C Tables 4.2.6.8 and 6.1.1.4'
N N 0.0061 0.0033 'International Tables Vol C Tables 4.2.6.8 and 6.1.1.4'
O O 0.0106 0.0060 'International Tables Vol C Tables 4.2.6.8 and 6.1.1.4'
Zn Zn 0.2839 1.4301 'International Tables Vol C Tables 4.2.6.8 and 6.1.1.4'
loop_
_geom_angle_atom_site_label_1
_geom_angle_atom_site_label_2
_geom_angle_atom_site_label_3
_geom_angle
_geom_angle_site_symmetry_1
_geom_angle_site_symmetry_3
N2 Zn1 N2 180.0 . 5_566
N2 Zn1 N1 85.53(16) . .
N2 Zn1 N1 94.47(16) 5_566 .
N2 Zn1 N1 94.47(16) . 5_566
N2 Zn1 N1 85.53(16) 5_566 5_566
N1 Zn1 N1 180.0(3) . 5_566
N2 Zn1 O1 86.97(13) . .
N2 Zn1 O1 93.03(13) 5_566 .
N1 Zn1 O1 88.20(14) . .
N1 Zn1 O1 91.80(14) 5_566 .
N2 Zn1 O1 93.03(13) . 5_566
N2 Zn1 O1 86.97(13) 5_566 5_566
N1 Zn1 O1 91.80(14) . 5_566
N1 Zn1 O1 88.20(14) 5_566 5_566
O1 Zn1 O1 180.0 . 5_566
C6 O1 Zn1 131.0(3) . .
C10 C13 C10 111.26(14) . 7
C10 C13 C10 106.0(3) . 2_455
C10 C13 C10 111.26(14) 7 2_455
C10 C13 C10 111.25(14) . 8_565
C10 C13 C10 106.0(3) 7 8_565
C10 C13 C10 111.26(14) 2_455 8_565
C4 N2 C3 115.7(4) . .
C4 N2 Zn1 105.6(3) . .
C3 N2 Zn1 115.3(3) . .
C4 N2 H2 106.5 . .
C3 N2 H2 106.5 . .
Zn1 N2 H2 106.5 . .
C11 C10 C9 117.6(4) . .
C11 C10 C13 123.3(3) . .
C9 C10 C13 119.0(3) . .
C8 C7 C12 118.6(4) . .
C8 C7 C6 120.2(4) . .
C12 C7 C6 121.2(4) . .
C7 C8 C9 120.6(4) . .
C7 C8 H8 119.7 . .
C9 C8 H8 119.7 . .
C8 C9 C10 121.9(4) . .
C8 C9 H9 119.1 . .
C10 C9 H9 119.1 . .
C1 N1 C5 115.6(4) . .
C1 N1 Zn1 114.7(3) . .
C5 N1 Zn1 103.3(3) . .
C1 N1 H1 107.6 . .
C5 N1 H1 107.6 . .
Zn1 N1 H1 107.6 . .
O2 C6 O1 129.3(5) . .
O2 C6 C7 116.2(4) . .
O1 C6 C7 114.5(4) . .
C10 C11 C12 120.3(4) . .
C10 C11 H11 119.8 . .
C12 C11 H11 119.8 . .
C7 C12 C11 121.0(4) . .
C7 C12 H12 119.5 . .
C11 C12 H12 119.5 . .
N2 C4 C5 109.9(4) . .
N2 C4 H4B 109.7 . .
C5 C4 H4B 109.7 . .
N2 C4 H4A 109.7 . .
C5 C4 H4A 109.7 . .
H4B C4 H4A 108.2 . .
N2 C3 C2 112.9(4) . .
N2 C3 H3A 109.0 . .
C2 C3 H3A 109.0 . .
N2 C3 H3B 109.0 . .
C2 C3 H3B 109.0 . .
H3A C3 H3B 107.8 . .
C3 C2 C1 117.1(5) . 5_566
C3 C2 H2A 108.0 . .
C1 C2 H2A 108.0 5_566 .
C3 C2 H2B 108.0 . .
C1 C2 H2B 108.0 5_566 .
H2A C2 H2B 107.3 . .
N1 C5 C4 110.4(4) . .
N1 C5 H5A 109.6 . .
C4 C5 H5A 109.6 . .
N1 C5 H5B 109.6 . .
C4 C5 H5B 109.6 . .
H5A C5 H5B 108.1 . .
N1 C1 C2 111.9(4) . 5_566
N1 C1 H1B 109.2 . .
C2 C1 H1B 109.2 5_566 .
N1 C1 H1A 109.2 . .
C2 C1 H1A 109.2 5_566 .
H1B C1 H1A 107.9 . .
loop_
_geom_bond_atom_site_label_1
_geom_bond_atom_site_label_2
_geom_bond_distance
_geom_bond_site_symmetry_2
Zn1 N2 2.087(3) .
Zn1 N2 2.087(3) 5_566
Zn1 N1 2.125(4) .
Zn1 N1 2.125(4) 5_566
Zn1 O1 2.195(3) .
Zn1 O1 2.195(3) 5_566
O1 C6 1.222(5) .
C13 C10 1.557(4) .
C13 C10 1.557(4) 7
C13 C10 1.557(4) 2_455
C13 C10 1.557(4) 8_565
N2 C4 1.464(6) .
N2 C3 1.487(6) .
N2 H2 1.0000 .
C10 C11 1.379(5) .
C10 C9 1.389(5) .
O2 C6 1.206(5) .
C7 C8 1.366(5) .
C7 C12 1.383(5) .
C7 C6 1.568(6) .
C8 C9 1.379(5) .
C8 H8 0.9500 .
C9 H9 0.9500 .
N1 C1 1.445(6) .
N1 C5 1.491(6) .
N1 H1 1.0000 .
C11 C12 1.400(6) .
C11 H11 0.9500 .
C12 H12 0.9500 .
C4 C5 1.503(7) .
C4 H4B 0.9900 .
C4 H4A 0.9900 .
C3 C2 1.496(7) .
C3 H3A 0.9900 .
C3 H3B 0.9900 .
C2 C1 1.522(7) 5_566
C2 H2A 0.9900 .
C2 H2B 0.9900 .
C5 H5A 0.9900 .
C5 H5B 0.9900 .
C1 C2 1.522(7) 5_566
C1 H1B 0.9900 .
C1 H1A 0.9900 .
loop_
_geom_torsion_atom_site_label_1
_geom_torsion_atom_site_label_2
_geom_torsion_atom_site_label_3
_geom_torsion_atom_site_label_4
_geom_torsion
_geom_torsion_site_symmetry_1
_geom_torsion_site_symmetry_4
C10 C13 C10 C11 7.3(4) 7 .
C10 C13 C10 C11 128.4(4) 2_455 .
C10 C13 C10 C11 -110.6(5) 8_565 .
C10 C13 C10 C9 -170.6(3) 7 .
C10 C13 C10 C9 -49.5(3) 2_455 .
C10 C13 C10 C9 71.5(2) 8_565 .
C12 C7 C8 C9 0.1(7) . .
C6 C7 C8 C9 -179.8(4) . .
C7 C8 C9 C10 -0.3(7) . .
C11 C10 C9 C8 1.0(6) . .
C13 C10 C9 C8 179.0(3) . .
Zn1 O1 C6 O2 10.2(8) . .
Zn1 O1 C6 C7 -169.5(3) . .
C8 C7 C6 O2 -171.4(5) . .
C12 C7 C6 O2 8.7(7) . .
C8 C7 C6 O1 8.3(6) . .
C12 C7 C6 O1 -171.6(4) . .
C9 C10 C11 C12 -1.5(6) . .
C13 C10 C11 C12 -179.4(3) . .
C8 C7 C12 C11 -0.6(7) . .
C6 C7 C12 C11 179.4(4) . .
C10 C11 C12 C7 1.3(7) . .
C3 N2 C4 C5 -169.9(4) . .
Zn1 N2 C4 C5 -41.1(5) . .
C4 N2 C3 C2 177.7(4) . .
Zn1 N2 C3 C2 53.8(5) . .
N2 C3 C2 C1 -70.9(6) . 5_566
C1 N1 C5 C4 -167.2(5) . .
Zn1 N1 C5 C4 -41.1(5) . .
N2 C4 C5 N1 58.2(6) . .
C5 N1 C1 C2 176.8(4) . 5_566
Zn1 N1 C1 C2 56.8(5) . 5_566
