#------------------------------------------------------------------------------
#$Date: 2016-05-06 04:55:06 +0300 (Fri, 06 May 2016) $
#$Revision: 182748 $
#$URL: svn://www.crystallography.net/cod/cif/7/03/84/7038405.cif $
#------------------------------------------------------------------------------
#
# This file is available in the Crystallography Open Database (COD),
# http://www.crystallography.net/
#
# All data on this site have been placed in the public domain by the
# contributors.
#
data_7038405
loop_
_publ_author_name
'Vinogradov, A. V.'
'Milichko, V. A.'
'Zaake-Hertling, H'
'Aleksovska, A.'
'Gruschinski, S.'
'Schmorl, S.'
'Kersting, B.'
'Zolnhofer, E. M.'
'Sutter, J.'
'Meyer, K.'
'L\"onnecke, P'
'Hey-Hawkins, E'
_publ_section_title
;
 Unique anisotropic optical properties of a highly stable metal-organic
 framework based on trinuclear iron(iii) secondary building units linked
 by tetracarboxylic linkers with an anthracene core.
;
_journal_issue                   17
_journal_name_full
'Dalton transactions (Cambridge, England : 2003)'
_journal_page_first              7244
_journal_page_last               7249
_journal_paper_doi               10.1039/c6dt00390g
_journal_volume                  45
_journal_year                    2016
_chemical_formula_sum            'C114 H110 Cl Fe3 N6 O22'
_chemical_formula_weight         2119.07
_space_group_crystal_system      triclinic
_space_group_IT_number           2
_space_group_name_Hall           '-P 1'
_space_group_name_H-M_alt        'P -1'
_symmetry_space_group_name_Hall  '-P 1'
_symmetry_space_group_name_H-M   'P -1'
_atom_sites_solution_hydrogens   geom
_atom_sites_solution_primary     direct
_atom_sites_solution_secondary   difmap
_audit_creation_method           SHELXL-2014/7
_audit_update_record
;
2015-04-30 deposited with the CCDC.
2016-02-12 downloaded from the CCDC.
;
_cell_angle_alpha                118.491(4)
_cell_angle_beta                 99.961(4)
_cell_angle_gamma                100.101(4)
_cell_formula_units_Z            1
_cell_length_a                   13.3774(7)
_cell_length_b                   17.0481(7)
_cell_length_c                   17.4322(7)
_cell_measurement_reflns_used    13226
_cell_measurement_temperature    130(2)
_cell_measurement_theta_max      27.19
_cell_measurement_theta_min      3.081
_cell_volume                     3285.2(3)
_computing_cell_refinement
;
        CrysAlisPro, Agilent Technologies,
        Version 1.171.36.28 (release 01-02-2013 CrysAlis171 .NET)
        (compiled Feb  1 2013,16:14:44)
;
_computing_data_collection
;
        CrysAlisPro, Agilent Technologies,
        Version 1.171.36.28 (release 01-02-2013 CrysAlis171 .NET)
        (compiled Feb  1 2013,16:14:44)
;
_computing_data_reduction
;
        CrysAlisPro, Agilent Technologies,
        Version 1.171.36.28 (release 01-02-2013 CrysAlis171 .NET)
        (compiled Feb  1 2013,16:14:44)
;
_computing_molecular_graphics
;
 ORTEP3 for Windows
 L. J. Farrugia, J. Appl. Crystallogr. 1997, 30, 565.
;
_computing_publication_material
;
 WINGX
 L.J. Farrugia,
 J. Appl. Cryst., 2012, 45, 849-854.
;
_computing_structure_refinement  'SHELXL-2014/7 (Sheldrick, 2014)'
_computing_structure_solution
;
 SHELXS-2013
 Program for Crystal Structure Analysis (Release 2013-1)
 G. M. Sheldrick, Instit\"ut f\"ur Anorganische Chemie der Universit\"at,
 Tammanstrasse 4, D-3400 G\"ottingen, Germany.
 G. M. Sheldrick, Acta. Cryst., 2008, A64, 112 - 122 
;
_diffrn_ambient_temperature      130(2)
_diffrn_detector_area_resol_mean 16.356
_diffrn_measured_fraction_theta_full 0.998
_diffrn_measured_fraction_theta_max 0.999
_diffrn_measurement_device_type  'Xcalibur, Sapphire3, Gemini'
_diffrn_measurement_method       '\w scans'
_diffrn_radiation_type           MoK\a
_diffrn_radiation_wavelength     0.71073
_diffrn_reflns_av_R_equivalents  0.0674
_diffrn_reflns_av_unetI/netI     0.0683
_diffrn_reflns_Laue_measured_fraction_full 0.998
_diffrn_reflns_Laue_measured_fraction_max 0.999
_diffrn_reflns_limit_h_max       16
_diffrn_reflns_limit_h_min       -16
_diffrn_reflns_limit_k_max       21
_diffrn_reflns_limit_k_min       -21
_diffrn_reflns_limit_l_max       21
_diffrn_reflns_limit_l_min       -21
_diffrn_reflns_number            55391
_diffrn_reflns_point_group_measured_fraction_full 0.998
_diffrn_reflns_point_group_measured_fraction_max 0.999
_diffrn_reflns_theta_full        25.242
_diffrn_reflns_theta_max         26.371
_diffrn_reflns_theta_min         2.784
_exptl_absorpt_coefficient_mu    0.407
_exptl_absorpt_correction_T_max  1
_exptl_absorpt_correction_T_min  0.98597
_exptl_absorpt_correction_type   multi-scan
_exptl_absorpt_process_details
;
        CrysAlisPro, Agilent Technologies,
        Version 1.171.36.28 (release 01-02-2013 CrysAlis171 .NET)
        (compiled Feb  1 2013,16:14:44)
        Empirical absorption correction using spherical harmonics,
 implemented in SCALE3 ABSPACK scaling algorithm.
;
_exptl_crystal_colour            'clear intense red'
_exptl_crystal_density_diffrn    1.071
_exptl_crystal_description       prism
_exptl_crystal_F_000             1107
_exptl_crystal_size_max          0.2
_exptl_crystal_size_mid          0.15
_exptl_crystal_size_min          0.05
_platon_squeeze_details
;
All attempts to locate highly disordered solvent molecules failed. The 
electron density for these highly disordered solvent molecules had been 
removed with the SQUEEZE routine implemented in PLATON.

Based on magnetic measurements the oxidation state of all iron cations 
seems to be +3. From the squeeze electron count we suggest to remove the 
electron density of 6 poorly defined and diffuse oriented DEF 
(Diethylformamide) molecules from the unit cell and one chloride anion 
for charge neutrality reasons ((6 x 56) + (1 x 17) = 353 electrons). 

These values correspond well with the estimated "squeezed" electron density 
of 344 electrons. A volume of 322 A^3^ for one DEF molecule (Approximately 
46 A^3^ for each non-hydrogen atom) is acceptable for extremely loosely 
packed and disordered solvent molecules. 
;
_refine_diff_density_max         0.618
_refine_diff_density_min         -0.605
_refine_diff_density_rms         0.073
_refine_ls_extinction_method     none
_refine_ls_goodness_of_fit_ref   1.035
_refine_ls_hydrogen_treatment    constr
_refine_ls_matrix_type           full
_refine_ls_number_parameters     466
_refine_ls_number_reflns         13416
_refine_ls_number_restraints     0
_refine_ls_restrained_S_all      1.035
_refine_ls_R_factor_all          0.0817
_refine_ls_R_factor_gt           0.0541
_refine_ls_shift/su_max          0.001
_refine_ls_shift/su_mean         0.000
_refine_ls_structure_factor_coef Fsqd
_refine_ls_weighting_details
'w=1/[\s^2^(Fo^2^)+(0.0953P)^2^+1.1599P] where P=(Fo^2^+2Fc^2^)/3'
_refine_ls_weighting_scheme      calc
_refine_ls_wR_factor_gt          0.1647
_refine_ls_wR_factor_ref         0.1772
_reflns_Friedel_coverage         0.000
_reflns_number_gt                9248
_reflns_number_total             13416
_reflns_threshold_expression     'I > 2\s(I)'
_cod_data_source_file            c6dt00390g1.cif
_cod_data_source_block           x1842sqfin
_cod_depositor_comments          'Adding full bibliography for 7038405.cif.'
_cod_original_cell_volume        3285.1(3)
_cod_database_code               7038405
_shelx_shelxl_version_number     2014/7
_shelx_space_group_comment
;
The symmetry employed for this shelxl refinement is uniquely defined
by the following loop, which should always be used as a source of
symmetry information in preference to the above space-group names.
They are only intended as comments.
;
_shelx_res_file
;
 
    x1842sqfin.res created by SHELXL-2014/7
 
TITL x1842fin in P-1
CELL  0.71073  13.3774  17.0481  17.4322  118.491   99.961  100.101
ZERR     1.00   0.0007   0.0007   0.0007    0.004    0.004    0.004
LATT   1
SFAC  FE   O    N    C    H    CL
UNIT  3    22   6    114  110  1
MERG   2
SHEL  0.8  100
FMAP   2
PLAN   5
ACTA
L.S. 10 0  194
TEMP  -143.00
ABIN
WGHT    0.095300    1.159900
FVAR       0.20433
FE1   1    0.952383    0.906659    0.763822    11.00000    0.03754    0.01603 =
         0.02136    0.01096    0.01255    0.01228
FE2   1    1.000000    1.000000    1.000000    10.50000    0.03061    0.01671 =
         0.02601    0.01285    0.01360    0.00992
O1    2    0.855691    0.766518    0.746569    11.00000    0.05540    0.02337 =
         0.03066    0.01747    0.00561    0.01292
O2    2    0.988406    0.875463    0.865885    11.00000    0.03547    0.01678 =
         0.02422    0.01365    0.01395    0.01162
O3    2    0.964774    0.185966    0.335866    11.00000    0.05760    0.04576 =
         0.02866    0.01756    0.01783    0.02399
O4    2    1.102577    0.144151    0.373969    11.00000    0.06231    0.04001 =
         0.02848    0.01872    0.02452    0.02937
O5    2    0.922573    0.976083    1.174338    11.00000    0.05749    0.02655 =
         0.04030    0.01869    0.01842   -0.00135
O6    2    0.899663    0.914849    1.024915    11.00000    0.03826    0.01905 =
         0.03682    0.01630    0.02182    0.00810
O7    2    0.158530    1.024341    1.210436    11.00000    0.06331    0.03622 =
         0.02937    0.01692    0.01945    0.03551
O8    2    0.136666    0.979616    1.063259    11.00000    0.03626    0.02811 =
         0.03239    0.01951    0.01453    0.01777
C1    4    0.923597    0.792399    0.819437    11.00000    0.03627    0.02078 =
         0.02423    0.01325    0.01460    0.01445
C2    4    0.935634    0.727174    0.851939    11.00000    0.03435    0.01503 =
         0.02063    0.01002    0.01156    0.01122
C3    4    0.857383    0.642413    0.815006    11.00000    0.03305    0.02243 =
         0.02707    0.01560    0.00683    0.01130
AFIX  43
H3    5    0.795381    0.624648    0.767392    11.00000   -1.20000
AFIX   0
C4    4    0.870645    0.584239    0.848216    11.00000    0.03242    0.01831 =
         0.02499    0.01194    0.00950    0.00739
AFIX  43
H4    5    0.816743    0.527158    0.824128    11.00000   -1.20000
AFIX   0
C5    4    0.961659    0.608703    0.916058    11.00000    0.03247    0.01714 =
         0.02268    0.01309    0.01686    0.01565
C6    4    1.040412    0.691229    0.949106    11.00000    0.02999    0.02044 =
         0.02935    0.01505    0.00651    0.00841
AFIX  43
H6    5    1.104877    0.706992    0.993400    11.00000   -1.20000
AFIX   0
C7    4    1.026250    0.751104    0.918289    11.00000    0.03306    0.01646 =
         0.02711    0.01270    0.00912    0.00791
AFIX  43
H7    5    1.079567    0.808761    0.943321    11.00000   -1.20000
AFIX   0
C8    4    0.978629    0.550482    0.957181    11.00000    0.02261    0.01533 =
         0.02350    0.01309    0.01041    0.00738
C9    4    0.996343    0.464436    0.907257    11.00000    0.02097    0.01750 =
         0.02336    0.01298    0.01276    0.00926
C10   4    0.996963    0.426473    0.815049    11.00000    0.03257    0.02353 =
         0.02569    0.01611    0.01368    0.01311
AFIX  43
H10   5    0.981812    0.459723    0.785807    11.00000   -1.20000
AFIX   0
C11   4    1.018549    0.343824    0.766694    11.00000    0.03948    0.02536 =
         0.02553    0.01443    0.01671    0.01712
C12   4    1.040924    0.294196    0.811279    11.00000    0.04749    0.02271 =
         0.02868    0.01398    0.01893    0.02152
AFIX  43
H12   5    1.056339    0.236851    0.778664    11.00000   -1.20000
AFIX   0
C13   4    1.040647    0.326924    0.898565    11.00000    0.03613    0.02060 =
         0.02863    0.01554    0.01480    0.01481
AFIX  43
H13   5    1.055599    0.291918    0.925863    11.00000   -1.20000
AFIX   0
C14   4    1.018439    0.412888    0.950988    11.00000    0.02327    0.01537 =
         0.02559    0.01275    0.01237    0.00904
C15   4    1.023614    0.306797    0.672276    11.00000    0.05090    0.02708 =
         0.02575    0.01493    0.01874    0.01889
C16   4    0.951788    0.312765    0.608734    11.00000    0.05817    0.04505 =
         0.03076    0.02023    0.02247    0.03454
AFIX  43
H16   5    0.899344    0.342829    0.626778    11.00000   -1.20000
AFIX   0
C17   4    0.955483    0.275801    0.520114    11.00000    0.06339    0.04907 =
         0.03158    0.02320    0.02151    0.03378
AFIX  43
H17   5    0.905850    0.280660    0.477689    11.00000   -1.20000
AFIX   0
C18   4    1.031606    0.231345    0.492397    11.00000    0.05412    0.03153 =
         0.02641    0.01440    0.02005    0.01978
C19   4    1.104481    0.227376    0.555576    11.00000    0.05402    0.04208 =
         0.03228    0.01811    0.02369    0.02913
AFIX  43
H19   5    1.158428    0.199199    0.538089    11.00000   -1.20000
AFIX   0
C20   4    1.099957    0.263797    0.643746    11.00000    0.05107    0.04065 =
         0.02829    0.01860    0.01846    0.02741
AFIX  43
H20   5    1.150295    0.259398    0.686089    11.00000   -1.20000
AFIX   0
C21   4    1.032357    0.185236    0.394986    11.00000    0.05401    0.02805 =
         0.02823    0.01363    0.01932    0.01623
C22   4    0.881066    0.913189    1.091931    11.00000    0.03224    0.01810 =
         0.03856    0.01725    0.01683    0.01121
C23   4    0.799460    0.827894    1.072453    11.00000    0.02650    0.01858 =
         0.04039    0.01932    0.01941    0.01156
C24   4    0.778232    0.819275    1.143688    11.00000    0.03252    0.02358 =
         0.03717    0.01854    0.00783    0.00562
AFIX  43
H24   5    0.813659    0.868063    1.205261    11.00000   -1.20000
AFIX   0
C25   4    0.704638    0.738626    1.124356    11.00000    0.03392    0.03077 =
         0.04763    0.02961    0.01993    0.01271
AFIX  43
H25   5    0.690367    0.732678    1.173168    11.00000   -1.20000
AFIX   0
C26   4    0.652270    0.667375    1.035420    11.00000    0.02478    0.01781 =
         0.04648    0.01901    0.01838    0.01249
C27   4    0.673671    0.676668    0.965346    11.00000    0.04077    0.01838 =
         0.04237    0.01163    0.01905    0.00592
AFIX  43
H27   5    0.638297    0.627656    0.903852    11.00000   -1.20000
AFIX   0
C28   4    0.746150    0.756562    0.983173    11.00000    0.04392    0.02175 =
         0.03908    0.01500    0.02418    0.00979
AFIX  43
H28   5    0.759276    0.762384    0.934004    11.00000   -1.20000
AFIX   0
C29   4    0.573272    0.580780    1.015964    11.00000    0.02460    0.02129 =
         0.05147    0.02220    0.01728    0.01111
C30   4    0.474405    0.585088    1.030174    11.00000    0.02407    0.01988 =
         0.05115    0.02204    0.01781    0.01192
C31   4    0.442277    0.667209    1.057199    11.00000    0.02523    0.02011 =
         0.05454    0.02268    0.01661    0.01024
AFIX  43
H31   5    0.490119    0.721094    1.065991    11.00000   -1.20000
AFIX   0
C32   4    0.346138    0.671996    1.071003    11.00000    0.03057    0.02062 =
         0.04863    0.02095    0.01552    0.01351
C33   4    0.274170    0.591014    1.057602    11.00000    0.02627    0.02603 =
         0.06090    0.02549    0.02092    0.01436
AFIX  43
H33   5    0.207513    0.593987    1.068806    11.00000   -1.20000
AFIX   0
C34   4    0.299237    0.510117    1.029226    11.00000    0.02483    0.02348 =
         0.05698    0.02291    0.02019    0.01122
AFIX  43
H34   5    0.248762    0.456786    1.018982    11.00000   -1.20000
AFIX   0
C35   4    0.399908    0.502868    1.014251    11.00000    0.02614    0.01994 =
         0.05172    0.02148    0.02013    0.01286
C36   4    0.311747    0.756998    1.094707    11.00000    0.02588    0.02040 =
         0.04231    0.01576    0.01107    0.01132
C37   4    0.254910    0.787069    1.157525    11.00000    0.03731    0.02677 =
         0.03594    0.02036    0.01364    0.01819
AFIX  43
H37   5    0.242971    0.756288    1.189859    11.00000   -1.20000
AFIX   0
C38   4    0.215725    0.861174    1.173300    11.00000    0.04346    0.02966 =
         0.03324    0.01810    0.01846    0.02157
AFIX  43
H38   5    0.179751    0.882654    1.218427    11.00000   -1.20000
AFIX   0
C39   4    0.227951    0.904998    1.124310    11.00000    0.02951    0.01998 =
         0.02974    0.01107    0.00753    0.01072
C40   4    0.286229    0.875976    1.062314    11.00000    0.03510    0.02372 =
         0.04466    0.02015    0.01686    0.01343
AFIX  43
H40   5    0.296287    0.905751    1.028825    11.00000   -1.20000
AFIX   0
C41   4    0.329637    0.804213    1.048992    11.00000    0.03016    0.02353 =
         0.05137    0.02010    0.02082    0.01501
AFIX  43
H41   5    0.371882    0.786927    1.008497    11.00000   -1.20000
AFIX   0
C42   4    0.170191    0.975460    1.132934    11.00000    0.03220    0.02115 =
         0.03372    0.01461    0.01212    0.01498
HKLF    4
 
REM  x1842fin in P-1
REM R1 =  0.0541 for    9248 Fo > 4sig(Fo)  and  0.0817 for all   13416 data
REM    466 parameters refined using      0 restraints
 
END
 
WGHT      0.0953      1.1599
 
REM Highest difference peak  0.618,  deepest hole -0.605,  1-sigma level  0.073
Q1    1   1.0426  1.0317  1.0722  11.00000  0.05    0.62
Q2    1   0.9850  0.9160  0.8289  11.00000  0.05    0.46
Q3    1   0.9175  0.8837  0.7008  11.00000  0.05    0.43
Q4    1   0.8981  0.9274  0.7948  11.00000  0.05    0.36
Q5    1   1.0378  0.9355  0.7923  11.00000  0.05    0.35
;
_shelx_res_checksum              93392
_shelx_fab_file
;
    2    0    0    -39.54      0.00
    3    0    0     54.09      0.00
    4    0    0    -34.69      0.00
    5    0    0     13.32      0.00
    6    0    0     -2.46      0.00
    7    0    0     -0.33      0.00
    8    0    0     -0.89      0.00
    9    0    0      1.20      0.00
   10    0    0      1.27      0.00
   11    0    0     -2.17      0.00
   12    0    0      0.80      0.00
   13    0    0      2.39      0.00
   14    0    0     -0.53      0.00
   15    0    0     -0.18      0.00
  -15    1    0      1.59      0.00
  -14    1    0     -0.44      0.00
  -13    1    0     -1.29      0.00
  -12    1    0      0.73      0.00
  -11    1    0      3.97      0.00
  -10    1    0     -3.86      0.00
   -9    1    0      2.67      0.00
   -8    1    0      1.67      0.00
   -7    1    0    -10.76      0.00
   -6    1    0     16.73      0.00
   -5    1    0    -11.74      0.00
   -4    1    0     -0.03      0.00
   -3    1    0     30.50      0.00
   -2    1    0    -50.71      0.00
    2    1    0     12.97      0.00
    3    1    0    -17.20      0.00
    4    1    0      0.09      0.00
    5    1    0      8.88      0.00
    6    1    0     -4.57      0.00
    7    1    0      1.21      0.00
    8    1    0      0.17      0.00
    9    1    0     -2.09      0.00
   10    1    0      2.43      0.00
   11    1    0      1.26      0.00
   12    1    0     -0.16      0.00
   13    1    0     -0.24      0.00
   14    1    0     -0.38      0.00
   15    1    0     -0.09      0.00
  -16    2    0     -0.31      0.00
  -15    2    0     -0.73      0.00
  -14    2    0     -2.80      0.00
  -13    2    0      1.88      0.00
  -12    2    0     -2.55      0.00
  -11    2    0      1.77      0.00
  -10    2    0      0.38      0.00
   -9    2    0     -1.10      0.00
   -8    2    0      0.61      0.00
   -7    2    0      3.84      0.00
   -6    2    0     -5.21      0.00
   -5    2    0      6.11      0.00
   -4    2    0     -0.80      0.00
   -3    2    0      4.94      0.00
   -2    2    0    -28.89      0.00
    0    2    0     81.75      0.00
    1    2    0      5.82      0.00
    2    2    0     12.46      0.00
    3    2    0    -28.51      0.00
    4    2    0     21.09      0.00
    5    2    0     -3.26      0.00
    6    2    0     -9.16      0.00
    7    2    0      9.10      0.00
    8    2    0     -4.25      0.00
    9    2    0      0.01      0.00
   10    2    0     -0.11      0.00
   11    2    0      0.53      0.00
   12    2    0     -0.54      0.00
   13    2    0      2.53      0.00
   14    2    0     -2.19      0.00
   15    2    0     -1.17      0.00
  -16    3    0      1.39      0.00
  -15    3    0      1.67      0.00
  -14    3    0     -1.41      0.00
  -13    3    0      2.31      0.00
  -12    3    0     -0.79      0.00
  -11    3    0      0.55      0.00
  -10    3    0      2.40      0.00
   -9    3    0     -1.14      0.00
   -8    3    0     -3.66      0.00
   -7    3    0      3.32      0.00
   -6    3    0      0.24      0.00
   -5    3    0      0.94      0.00
   -4    3    0      5.64      0.00
   -3    3    0      4.72      0.00
   -2    3    0    -11.49      0.00
   -1    3    0    -24.59      0.00
    0    3    0     24.20      0.00
    1    3    0     14.42      0.00
    2    3    0      6.81      0.00
    3    3    0    -12.60      0.00
    4    3    0      2.13      0.00
    5    3    0     -3.70      0.00
    6    3    0     10.89      0.00
    7    3    0     -4.08      0.00
    8    3    0     -4.10      0.00
    9    3    0      5.19      0.00
   10    3    0     -2.32      0.00
   11    3    0      0.39      0.00
   12    3    0      1.45      0.00
   13    3    0      1.26      0.00
   14    3    0     -0.37      0.00
  -16    4    0     -0.48      0.00
  -15    4    0     -3.37      0.00
  -14    4    0      1.27      0.00
  -13    4    0     -0.44      0.00
  -12    4    0     -1.95      0.00
  -11    4    0     -0.44      0.00
  -10    4    0      0.90      0.00
   -9    4    0      2.67      0.00
   -8    4    0     -3.56      0.00
   -7    4    0     -3.30      0.00
   -6    4    0      7.21      0.00
   -5    4    0      7.40      0.00
   -4    4    0    -11.32      0.00
   -3    4    0     -7.88      0.00
   -2    4    0      4.05      0.00
   -1    4    0    -11.77      0.00
    0    4    0     10.15      0.00
    1    4    0      3.24      0.00
    2    4    0     -4.34      0.00
    3    4    0     14.04      0.00
    4    4    0     -8.19      0.00
    5    4    0      1.13      0.00
    6    4    0      2.91      0.00
    7    4    0     -1.98      0.00
    8    4    0      0.43      0.00
    9    4    0      1.24      0.00
   10    4    0     -0.73      0.00
   11    4    0     -2.13      0.00
   12    4    0      0.46      0.00
   13    4    0     -0.77      0.00
   14    4    0     -0.82      0.00
  -16    5    0     -2.61      0.00
  -15    5    0      1.41      0.00
  -14    5    0     -0.15      0.00
  -13    5    0      0.91      0.00
  -12    5    0      0.85      0.00
  -11    5    0      0.11      0.00
  -10    5    0     -0.67      0.00
   -9    5    0      1.65      0.00
   -8    5    0      0.18      0.00
   -7    5    0     -5.78      0.00
   -6    5    0      0.87      0.00
   -5    5    0     12.32      0.00
   -4    5    0     -5.64      0.00
   -3    5    0      8.08      0.00
   -2    5    0     -3.40      0.00
   -1    5    0     -4.99      0.00
    0    5    0     17.21      0.00
    1    5    0     11.29      0.00
    2    5    0      0.01      0.00
    3    5    0     -9.72      0.00
    4    5    0      4.42      0.00
    5    5    0      1.13      0.00
    6    5    0      3.93      0.00
    7    5    0     -3.83      0.00
    8    5    0      1.55      0.00
    9    5    0     -0.15      0.00
   10    5    0     -1.35      0.00
   11    5    0      2.13      0.00
   12    5    0     -2.62      0.00
   13    5    0      0.22      0.00
  -16    6    0     -0.27      0.00
  -15    6    0     -0.33      0.00
  -14    6    0     -1.50      0.00
  -13    6    0      2.74      0.00
  -12    6    0     -2.91      0.00
  -11    6    0     -0.04      0.00
  -10    6    0      2.96      0.00
   -9    6    0     -1.45      0.00
   -8    6    0     -1.20      0.00
   -7    6    0     -0.98      0.00
   -6    6    0      4.08      0.00
   -5    6    0      1.22      0.00
   -4    6    0    -10.69      0.00
   -3    6    0     -1.85      0.00
   -2    6    0     -6.36      0.00
   -1    6    0     -8.55      0.00
    0    6    0     -1.86      0.00
    1    6    0     -4.30      0.00
    2    6    0      1.98      0.00
    3    6    0      6.71      0.00
    4    6    0     -4.66      0.00
    5    6    0      3.32      0.00
    6    6    0     -0.99      0.00
    7    6    0      2.82      0.00
    8    6    0     -1.77      0.00
    9    6    0     -0.70      0.00
   10    6    0      1.39      0.00
   11    6    0     -3.02      0.00
   12    6    0      0.60      0.00
   13    6    0      0.81      0.00
  -16    7    0     -2.23      0.00
  -15    7    0      0.07      0.00
  -14    7    0      0.42      0.00
  -13    7    0      2.75      0.00
  -12    7    0     -1.18      0.00
  -11    7    0     -1.57      0.00
  -10    7    0      1.06      0.00
   -9    7    0      2.49      0.00
   -8    7    0     -4.04      0.00
   -7    7    0     -2.37      0.00
   -6    7    0      4.17      0.00
   -5    7    0      6.10      0.00
   -4    7    0     -1.58      0.00
   -3    7    0      1.02      0.00
   -2    7    0     -1.84      0.00
   -1    7    0      3.08      0.00
    0    7    0      5.15      0.00
    1    7    0      1.14      0.00
    2    7    0      1.27      0.00
    3    7    0     -4.61      0.00
    4    7    0      5.82      0.00
    5    7    0     -1.06      0.00
    6    7    0      1.36      0.00
    7    7    0      2.48      0.00
    8    7    0     -1.82      0.00
    9    7    0      0.92      0.00
   10    7    0     -0.37      0.00
   11    7    0     -3.85      0.00
   12    7    0     -0.25      0.00
  -16    8    0     -0.76      0.00
  -15    8    0      2.96      0.00
  -14    8    0     -1.25      0.00
  -13    8    0      0.23      0.00
  -12    8    0      0.28      0.00
  -11    8    0     -0.16      0.00
  -10    8    0     -0.02      0.00
   -9    8    0      0.54      0.00
   -8    8    0     -1.83      0.00
   -7    8    0     -2.18      0.00
   -6    8    0      4.09      0.00
   -5    8    0      0.10      0.00
   -4    8    0     -1.79      0.00
   -3    8    0     -8.41      0.00
   -2    8    0     -1.14      0.00
   -1    8    0     -3.62      0.00
    0    8    0     -7.56      0.00
    1    8    0      1.25      0.00
    2    8    0     -2.37      0.00
    3    8    0      1.71      0.00
    4    8    0     -0.03      0.00
    5    8    0      0.67      0.00
    6    8    0      0.85      0.00
    7    8    0      0.98      0.00
    8    8    0     -0.42      0.00
    9    8    0     -0.06      0.00
   10    8    0      0.52      0.00
   11    8    0     -0.73      0.00
   12    8    0      1.33      0.00
  -16    9    0      0.44      0.00
  -15    9    0      0.08      0.00
  -14    9    0     -0.90      0.00
  -13    9    0      1.06      0.00
  -12    9    0      0.40      0.00
  -11    9    0     -1.33      0.00
  -10    9    0     -2.16      0.00
   -9    9    0      5.37      0.00
   -8    9    0     -2.46      0.00
   -7    9    0     -3.60      0.00
   -6    9    0      2.36      0.00
   -5    9    0      3.74      0.00
   -4    9    0     -1.32      0.00
   -3    9    0     -2.40      0.00
   -2    9    0     -0.08      0.00
   -1    9    0      1.60      0.00
    0    9    0     -0.94      0.00
    1    9    0     -1.24      0.00
    2    9    0     -1.72      0.00
    3    9    0      0.19      0.00
    4    9    0      1.26      0.00
    5    9    0     -1.80      0.00
    6    9    0      1.32      0.00
    7    9    0     -0.09      0.00
    8    9    0     -0.54      0.00
    9    9    0      0.88      0.00
   10    9    0     -3.00      0.00
   11    9    0     -1.03      0.00
  -15   10    0      1.02      0.00
  -14   10    0      0.17      0.00
  -13   10    0      0.06      0.00
  -12   10    0      1.54      0.00
  -11   10    0      1.43      0.00
  -10   10    0     -4.23      0.00
   -9   10    0      2.93      0.00
   -8   10    0      0.84      0.00
   -7   10    0     -4.20      0.00
   -6   10    0      5.06      0.00
   -5   10    0      2.33      0.00
   -4   10    0     -2.41      0.00
   -3   10    0     -2.67      0.00
   -2   10    0     -1.59      0.00
   -1   10    0     -2.52      0.00
    0   10    0     -3.28      0.00
    1   10    0      1.06      0.00
    2   10    0     -1.49      0.00
    3   10    0     -2.88      0.00
    4   10    0      1.53      0.00
    5   10    0     -1.65      0.00
    6   10    0      1.97      0.00
    7   10    0     -0.16      0.00
    8   10    0      0.01      0.00
    9   10    0      0.92      0.00
   10   10    0      2.37      0.00
  -15   11    0      1.06      0.00
  -14   11    0     -0.76      0.00
  -13   11    0     -2.69      0.00
  -12   11    0     -0.04      0.00
  -11   11    0     -0.79      0.00
  -10   11    0     -2.62      0.00
   -9   11    0      3.44      0.00
   -8   11    0     -0.11      0.00
   -7   11    0     -2.95      0.00
   -6   11    0      1.12      0.00
   -5   11    0      1.99      0.00
   -4   11    0      0.20      0.00
   -3   11    0     -1.60      0.00
   -2   11    0      0.62      0.00
   -1   11    0     -2.52      0.00
    0   11    0     -1.23      0.00
    1   11    0     -0.99      0.00
    2   11    0     -2.28      0.00
    3   11    0      0.88      0.00
    4   11    0     -1.55      0.00
    5   11    0      0.44      0.00
    6   11    0     -0.93      0.00
    7   11    0     -0.41      0.00
    8   11    0     -0.93      0.00
    9   11    0     -2.18      0.00
  -15   12    0     -0.50      0.00
  -14   12    0      4.53      0.00
  -13   12    0     -1.39      0.00
  -12   12    0      0.58      0.00
  -11   12    0      1.93      0.00
  -10   12    0     -1.53      0.00
   -9   12    0     -0.07      0.00
   -8   12    0      0.64      0.00
   -7   12    0      0.49      0.00
   -6   12    0      1.11      0.00
   -5   12    0      0.68      0.00
   -4   12    0     -1.71      0.00
   -3   12    0      1.05      0.00
   -2   12    0     -2.39      0.00
   -1   12    0     -1.29      0.00
    0   12    0     -0.95      0.00
    1   12    0      0.46      0.00
    2   12    0     -1.64      0.00
    3   12    0     -1.54      0.00
    4   12    0      0.88      0.00
    5   12    0     -1.13      0.00
    6   12    0     -1.46      0.00
    7   12    0     -0.63      0.00
    8   12    0      0.93      0.00
  -14   13    0      0.16      0.00
  -13   13    0     -2.02      0.00
  -12   13    0     -0.06      0.00
  -11   13    0      0.02      0.00
  -10   13    0     -1.51      0.00
   -9   13    0      0.53      0.00
   -8   13    0     -0.62      0.00
   -7   13    0     -2.32      0.00
   -6   13    0      2.93      0.00
   -5   13    0      0.13      0.00
   -4   13    0     -0.71      0.00
   -3   13    0      1.34      0.00
   -2   13    0     -0.75      0.00
   -1   13    0     -1.61      0.00
    0   13    0     -1.81      0.00
    1   13    0     -2.28      0.00
    2   13    0      1.05      0.00
    3   13    0     -1.79      0.00
    4   13    0      1.00      0.00
    5   13    0      1.49      0.00
    6   13    0      0.66      0.00
    7   13    0     -1.22      0.00
  -14   14    0      3.49      0.00
  -13   14    0     -0.87      0.00
  -12   14    0      0.10      0.00
  -11   14    0      1.68      0.00
  -10   14    0     -0.59      0.00
   -9   14    0      0.42      0.00
   -8   14    0      0.04      0.00
   -7   14    0     -0.81      0.00
   -6   14    0      0.44      0.00
   -5   14    0     -0.41      0.00
   -4   14    0      0.85      0.00
   -3   14    0     -1.02      0.00
   -2   14    0      0.09      0.00
   -1   14    0      1.02      0.00
    0   14    0     -1.24      0.00
    1   14    0     -0.37      0.00
    2   14    0     -2.31      0.00
    3   14    0     -2.76      0.00
    4   14    0      0.32      0.00
    5   14    0      0.04      0.00
    6   14    0     -1.38      0.00
  -13   15    0     -0.96      0.00
  -12   15    0     -0.92      0.00
  -11   15    0      3.88      0.00
  -10   15    0     -1.95      0.00
   -9   15    0      0.41      0.00
   -8   15    0     -0.77      0.00
   -7   15    0     -0.89      0.00
   -6   15    0      2.46      0.00
   -5   15    0     -0.13      0.00
   -4   15    0     -0.55      0.00
   -3   15    0      1.47      0.00
   -2   15    0     -1.09      0.00
   -1   15    0     -1.14      0.00
    0   15    0     -0.77      0.00
    1   15    0      0.52      0.00
    2   15    0      0.63      0.00
    3   15    0     -2.06      0.00
    4   15    0     -0.09      0.00
    5   15    0      2.37      0.00
  -12   16    0     -0.09      0.00
  -11   16    0     -0.37      0.00
  -10   16    0     -0.03      0.00
   -9   16    0      1.93      0.00
   -8   16    0     -2.00      0.00
   -7   16    0     -0.98      0.00
   -6   16    0     -0.23      0.00
   -5   16    0     -1.56      0.00
   -4   16    0      1.09      0.00
   -3   16    0     -1.39      0.00
   -2   16    0      1.96      0.00
   -1   16    0      0.74      0.00
    0   16    0     -1.16      0.00
    1   16    0     -0.24      0.00
    2   16    0     -2.82      0.00
    3   16    0     -1.22      0.00
  -11   17    0      1.62      0.00
  -10   17    0      0.41      0.00
   -9   17    0      0.51      0.00
   -8   17    0      0.48      0.00
   -7   17    0      1.31      0.00
   -6   17    0      0.60      0.00
   -5   17    0      1.00      0.00
   -4   17    0      2.10      0.00
   -3   17    0     -0.48      0.00
   -2   17    0      0.20      0.00
   -1   17    0     -0.08      0.00
    0   17    0     -1.07      0.00
    1   17    0      1.57      0.00
    2   17    0      1.06      0.00
   -9   18    0      0.10      0.00
   -8   18    0     -0.44      0.00
   -7   18    0     -1.00      0.00
   -6   18    0     -0.18      0.00
   -5   18    0     -1.46      0.00
   -4   18    0     -0.43      0.00
   -3   18    0     -1.13      0.00
   -2   18    0      1.41      0.00
   -1   18    0      0.05      0.00
    3  -19    1     -0.87      0.00
    4  -19    1     -0.78      0.00
    5  -19    1      0.56      0.00
    6  -19    1     -0.20      0.00
   -1  -18    1     -0.01      0.00
    0  -18    1     -1.61      0.00
    1  -18    1      1.23      0.00
    2  -18    1     -0.12      0.00
    3  -18    1     -2.02      0.00
    4  -18    1      1.41      0.00
    5  -18    1      1.01      0.00
    6  -18    1      0.60      0.00
    7  -18    1      1.55      0.00
    8  -18    1      0.27      0.00
    9  -18    1      0.57      0.00
   -3  -17    1      0.98      0.00
   -2  -17    1     -0.50      0.00
   -1  -17    1     -0.11      0.00
    0  -17    1     -0.60      0.00
    1  -17    1      0.39      0.00
    2  -17    1     -0.84      0.00
    3  -17    1      1.34      0.00
    4  -17    1     -0.45      0.00
    5  -17    1     -0.90      0.00
    6  -17    1     -0.94      0.00
    7  -17    1     -0.69      0.00
    8  -17    1     -0.76      0.00
    9  -17    1     -0.20      0.00
   10  -17    1     -0.63      0.00
   11  -17    1     -0.95      0.00
   -4  -16    1      1.23      0.00
   -3  -16    1      2.22      0.00
   -2  -16    1      0.06      0.00
   -1  -16    1      2.35      0.00
    0  -16    1      0.15      0.00
    1  -16    1      0.15      0.00
    2  -16    1     -1.34      0.00
    3  -16    1      0.07      0.00
    4  -16    1      0.44      0.00
    5  -16    1     -0.22      0.00
    6  -16    1      1.41      0.00
    7  -16    1      0.58      0.00
    8  -16    1     -0.73      0.00
    9  -16    1      1.10      0.00
   10  -16    1     -0.05      0.00
   11  -16    1     -1.53      0.00
   12  -16    1     -0.09      0.00
   -6  -15    1     -2.39      0.00
   -5  -15    1      0.14      0.00
   -4  -15    1     -0.78      0.00
   -3  -15    1      1.35      0.00
   -2  -15    1      0.19      0.00
   -1  -15    1      1.00      0.00
    0  -15    1      0.78      0.00
    1  -15    1      0.67      0.00
    2  -15    1      0.30      0.00
    3  -15    1     -0.32      0.00
    4  -15    1     -0.17      0.00
    5  -15    1     -0.26      0.00
    6  -15    1     -0.18      0.00
    7  -15    1     -0.71      0.00
    8  -15    1     -0.56      0.00
    9  -15    1      1.31      0.00
   10  -15    1      1.44      0.00
   11  -15    1     -2.92      0.00
   12  -15    1     -1.32      0.00
   13  -15    1      2.40      0.00
   -7  -14    1      3.51      0.00
   -6  -14    1     -0.84      0.00
   -5  -14    1     -0.30      0.00
   -4  -14    1     -0.81      0.00
   -3  -14    1      1.17      0.00
   -2  -14    1      1.72      0.00
   -1  -14    1     -0.20      0.00
    0  -14    1      0.95      0.00
    1  -14    1      0.16      0.00
    2  -14    1      0.86      0.00
    3  -14    1      2.33      0.00
    4  -14    1     -1.86      0.00
    5  -14    1      1.88      0.00
    6  -14    1     -0.37      0.00
    7  -14    1     -2.01      0.00
    8  -14    1      0.47      0.00
    9  -14    1      0.13      0.00
   10  -14    1      0.64      0.00
   11  -14    1     -1.44      0.00
   12  -14    1     -0.99      0.00
   13  -14    1      0.85      0.00
   14  -14    1     -2.75      0.00
   -8  -13    1      1.94      0.00
   -7  -13    1      1.88      0.00
   -6  -13    1     -1.80      0.00
   -5  -13    1     -0.20      0.00
   -4  -13    1     -0.80      0.00
   -3  -13    1      1.48      0.00
   -2  -13    1     -1.07      0.00
   -1  -13    1      2.58      0.00
    0  -13    1      0.50      0.00
    1  -13    1      0.23      0.00
    2  -13    1      1.60      0.00
    3  -13    1     -1.32      0.00
    4  -13    1      0.29      0.00
    5  -13    1      0.21      0.00
    6  -13    1     -1.50      0.00
    7  -13    1      0.03      0.00
    8  -13    1      0.96      0.00
    9  -13    1      0.54      0.00
   10  -13    1     -0.97      0.00
   11  -13    1      0.82      0.00
   12  -13    1      2.02      0.00
   13  -13    1      0.36      0.00
   14  -13    1     -0.46      0.00
   -9  -12    1     -0.99      0.00
   -8  -12    1     -2.07      0.00
   -7  -12    1      1.20      0.00
   -6  -12    1      1.05      0.00
   -5  -12    1     -0.68      0.00
   -4  -12    1     -0.63      0.00
   -3  -12    1      1.30      0.00
   -2  -12    1     -0.26      0.00
   -1  -12    1      0.47      0.00
    0  -12    1      1.58      0.00
    1  -12    1     -1.20      0.00
    2  -12    1      3.77      0.00
    3  -12    1      0.09      0.00
    4  -12    1      0.71      0.00
    5  -12    1      1.15      0.00
    6  -12    1     -3.67      0.00
    7  -12    1     -0.97      0.00
    8  -12    1      0.01      0.00
    9  -12    1      3.29      0.00
   10  -12    1     -1.42      0.00
   11  -12    1     -2.26      0.00
   12  -12    1      1.14      0.00
   13  -12    1     -1.87      0.00
   14  -12    1     -0.79      0.00
   15  -12    1     -1.37      0.00
  -10  -11    1      1.16      0.00
   -9  -11    1      1.01      0.00
   -8  -11    1      0.14      0.00
   -7  -11    1      0.17      0.00
   -6  -11    1      0.41      0.00
   -5  -11    1     -1.49      0.00
   -4  -11    1      0.30      0.00
   -3  -11    1      1.02      0.00
   -2  -11    1     -0.47      0.00
   -1  -11    1      0.58      0.00
    0  -11    1     -0.06      0.00
    1  -11    1      0.68      0.00
    2  -11    1      0.94      0.00
    3  -11    1     -0.39      0.00
    4  -11    1      1.67      0.00
    5  -11    1     -0.52      0.00
    6  -11    1     -1.54      0.00
    7  -11    1      1.39      0.00
    8  -11    1     -2.54      0.00
    9  -11    1      0.98      0.00
   10  -11    1      0.91      0.00
   11  -11    1     -1.41      0.00
   12  -11    1      2.70      0.00
   13  -11    1      1.77      0.00
   14  -11    1     -0.73      0.00
   15  -11    1     -2.16      0.00
  -11  -10    1     -0.68      0.00
  -10  -10    1     -1.09      0.00
   -9  -10    1      1.09      0.00
   -8  -10    1     -2.41      0.00
   -7  -10    1      0.91      0.00
   -6  -10    1     -0.36      0.00
   -5  -10    1     -3.16      0.00
   -4  -10    1      1.16      0.00
   -3  -10    1     -0.21      0.00
   -2  -10    1      0.65      0.00
   -1  -10    1      1.42      0.00
    0  -10    1      0.38      0.00
    1  -10    1      2.08      0.00
    2  -10    1      2.38      0.00
    3  -10    1      2.30      0.00
    4  -10    1      3.00      0.00
    5  -10    1     -1.74      0.00
    6  -10    1     -1.27      0.00
    7  -10    1     -0.44      0.00
    8  -10    1     -0.08      0.00
    9  -10    1      3.19      0.00
   10  -10    1      1.57      0.00
   11  -10    1     -3.80      0.00
   12  -10    1      1.12      0.00
   13  -10    1      0.13      0.00
   14  -10    1     -1.35      0.00
   15  -10    1     -0.58      0.00
  -11   -9    1      1.35      0.00
  -10   -9    1      1.13      0.00
   -9   -9    1     -0.28      0.00
   -8   -9    1     -1.09      0.00
   -7   -9    1     -0.35      0.00
   -6   -9    1     -0.10      0.00
   -5   -9    1     -2.36      0.00
   -4   -9    1     -0.53      0.00
   -3   -9    1     -0.59      0.00
   -2   -9    1     -1.08      0.00
   -1   -9    1     -3.67      0.00
    0   -9    1     -1.17      0.00
    1   -9    1     -2.07      0.00
    2   -9    1      2.06      0.00
    3   -9    1     -0.24      0.00
    4   -9    1     -0.15      0.00
    5   -9    1     -1.96      0.00
    6   -9    1     -1.43      0.00
    7   -9    1      1.27      0.00
    8   -9    1     -2.95      0.00
    9   -9    1      2.12      0.00
   10   -9    1     -0.33      0.00
   11   -9    1     -0.77      0.00
   12   -9    1     -0.02      0.00
   13   -9    1      0.37      0.00
   14   -9    1      1.27      0.00
   15   -9    1     -3.16      0.00
   16   -9    1      1.62      0.00
  -12   -8    1     -0.87      0.00
  -11   -8    1     -1.35      0.00
  -10   -8    1      1.13      0.00
   -9   -8    1      1.84      0.00
   -8   -8    1     -1.56      0.00
   -7   -8    1      0.82      0.00
   -6   -8    1     -2.08      0.00
   -5   -8    1     -0.57      0.00
   -4   -8    1     -1.71      0.00
   -3   -8    1     -1.32      0.00
   -2   -8    1      1.04      0.00
   -1   -8    1      1.75      0.00
    0   -8    1     -1.25      0.00
    1   -8    1      1.42      0.00
    2   -8    1      2.42      0.00
    3   -8    1     10.03      0.00
    4   -8    1      2.12      0.00
    5   -8    1     -0.67      0.00
    6   -8    1     -0.98      0.00
    7   -8    1     -0.23      0.00
    8   -8    1      0.42      0.00
    9   -8    1      1.90      0.00
   10   -8    1     -0.18      0.00
   11   -8    1     -0.01      0.00
   12   -8    1     -1.80      0.00
   13   -8    1      3.97      0.00
   14   -8    1     -0.71      0.00
   15   -8    1     -0.51      0.00
   16   -8    1      0.75      0.00
  -13   -7    1     -1.03      0.00
  -12   -7    1      1.82      0.00
  -11   -7    1      0.54      0.00
  -10   -7    1      0.08      0.00
   -9   -7    1     -0.57      0.00
   -8   -7    1     -0.12      0.00
   -7   -7    1      0.33      0.00
   -6   -7    1     -2.41      0.00
   -5   -7    1      1.88      0.00
   -4   -7    1     -4.05      0.00
   -3   -7    1      0.56      0.00
   -2   -7    1     -2.22      0.00
   -1   -7    1    -10.86      0.00
    0   -7    1      0.80      0.00
    1   -7    1     -7.51      0.00
    2   -7    1     -4.09      0.00
    3   -7    1      6.43      0.00
    4   -7    1     -3.33      0.00
    5   -7    1     -5.53      0.00
    6   -7    1     -1.16      0.00
    7   -7    1      1.18      0.00
    8   -7    1      1.84      0.00
    9   -7    1      0.31      0.00
   10   -7    1     -0.74      0.00
   11   -7    1     -0.81      0.00
   12   -7    1     -0.19      0.00
   13   -7    1      1.51      0.00
   14   -7    1     -1.61      0.00
   15   -7    1      0.01      0.00
   16   -7    1      1.65      0.00
  -13   -6    1     -1.07      0.00
  -12   -6    1     -0.19      0.00
  -11   -6    1      2.83      0.00
  -10   -6    1     -1.11      0.00
   -9   -6    1     -0.44      0.00
   -8   -6    1      1.05      0.00
   -7   -6    1     -3.38      0.00
   -6   -6    1      4.99      0.00
   -5   -6    1     -5.24      0.00
   -4   -6    1     -0.04      0.00
   -3   -6    1      3.80      0.00
   -2   -6    1     -9.43      0.00
   -1   -6    1      6.77      0.00
    0   -6    1     -8.46      0.00
    1   -6    1     -1.52      0.00
    2   -6    1     -1.43      0.00
    3   -6    1     17.74      0.00
    4   -6    1      0.85      0.00
    5   -6    1     -7.83      0.00
    6   -6    1      0.10      0.00
    7   -6    1     -0.26      0.00
    8   -6    1      0.11      0.00
    9   -6    1     -0.32      0.00
   10   -6    1     -1.07      0.00
   11   -6    1      3.19      0.00
   12   -6    1     -1.38      0.00
   13   -6    1      1.41      0.00
   14   -6    1      3.45      0.00
   15   -6    1      0.66      0.00
   16   -6    1      0.13      0.00
  -14   -5    1     -2.14      0.00
  -13   -5    1     -2.86      0.00
  -12   -5    1      2.44      0.00
  -11   -5    1     -2.52      0.00
  -10   -5    1     -0.28      0.00
   -9   -5    1      2.87      0.00
   -8   -5    1     -0.99      0.00
   -7   -5    1     -1.44      0.00
   -6   -5    1     -0.35      0.00
   -5   -5    1      1.14      0.00
   -4   -5    1     -0.73      0.00
   -3   -5    1      2.87      0.00
   -2   -5    1     -5.70      0.00
   -1   -5    1    -16.71      0.00
    0   -5    1      4.57      0.00
    1   -5    1     -5.91      0.00
    2   -5    1     -9.21      0.00
    3   -5    1     18.23      0.00
    4   -5    1     -3.90      0.00
    5   -5    1    -13.95      0.00
    6   -5    1      7.15      0.00
    7   -5    1      2.57      0.00
    8   -5    1     -3.47      0.00
    9   -5    1      0.42      0.00
   10   -5    1     -0.20      0.00
   11   -5    1     -0.05      0.00
   12   -5    1     -1.20      0.00
   13   -5    1      0.42      0.00
   14   -5    1      0.46      0.00
   15   -5    1      1.07      0.00
   16   -5    1     -0.28      0.00
  -14   -4    1     -1.91      0.00
  -13   -4    1     -0.54      0.00
  -12   -4    1      1.27      0.00
  -11   -4    1     -0.25      0.00
  -10   -4    1      0.20      0.00
   -9   -4    1     -1.12      0.00
   -8   -4    1     -0.08      0.00
   -7   -4    1     -0.52      0.00
   -6   -4    1      7.92      0.00
   -5   -4    1    -15.57      0.00
   -4   -4    1      8.17      0.00
   -3   -4    1      8.84      0.00
   -2   -4    1    -15.88      0.00
   -1   -4    1     -8.22      0.00
    0   -4    1    -35.65      0.00
    1   -4    1     -1.68      0.00
    2   -4    1     -8.58      0.00
    3   -4    1     20.00      0.00
    4   -4    1     -6.43      0.00
    5   -4    1     -7.19      0.00
    6   -4    1     -2.15      0.00
    7   -4    1      5.56      0.00
    8   -4    1     -0.73      0.00
    9   -4    1     -4.12      0.00
   10   -4    1      1.67      0.00
   11   -4    1      2.40      0.00
   12   -4    1     -2.14      0.00
   13   -4    1      1.73      0.00
   14   -4    1      0.64      0.00
   15   -4    1      3.04      0.00
   16   -4    1      3.93      0.00
  -15   -3    1      1.29      0.00
  -14   -3    1      0.93      0.00
  -13   -3    1     -2.04      0.00
  -12   -3    1     -1.02      0.00
  -11   -3    1     -1.81      0.00
  -10   -3    1      1.36      0.00
   -9   -3    1     -1.73      0.00
   -8   -3    1     -1.61      0.00
   -7   -3    1     10.89      0.00
   -6   -3    1    -10.86      0.00
   -5   -3    1     -4.88      0.00
   -4   -3    1     26.87      0.00
   -3   -3    1    -31.91      0.00
   -2   -3    1      7.88      0.00
   -1   -3    1     14.30      0.00
    0   -3    1    -18.05      0.00
    1   -3    1     20.13      0.00
    2   -3    1    -17.02      0.00
    3   -3    1     42.58      0.00
    4   -3    1    -18.67      0.00
    5   -3    1    -12.51      0.00
    6   -3    1     11.87      0.00
    7   -3    1     -5.16      0.00
    8   -3    1      3.65      0.00
    9   -3    1      0.15      0.00
   10   -3    1     -3.92      0.00
   11   -3    1      1.13      0.00
   12   -3    1      2.14      0.00
   13   -3    1     -1.75      0.00
   14   -3    1     -2.13      0.00
   15   -3    1      0.68      0.00
   16   -3    1     -0.85      0.00
  -15   -2    1     -0.34      0.00
  -14   -2    1     -1.11      0.00
  -13   -2    1     -1.21      0.00
  -12   -2    1      0.92      0.00
  -11   -2    1     -1.61      0.00
  -10   -2    1     -0.36      0.00
   -9   -2    1     -2.05      0.00
   -8   -2    1      4.37      0.00
   -7   -2    1     -4.68      0.00
   -6   -2    1      0.77      0.00
   -5   -2    1      7.74      0.00
   -4   -2    1    -20.35      0.00
   -3   -2    1     31.58      0.00
   -2   -2    1     22.81      0.00
   -1   -2    1   -133.65      0.00
    2   -2    1    -44.84      0.00
    3   -2    1     52.72      0.00
    4   -2    1    -11.39      0.00
    5   -2    1    -16.49      0.00
    6   -2    1     11.92      0.00
    7   -2    1     -3.22      0.00
    8   -2    1     -0.59      0.00
    9   -2    1      3.21      0.00
   10   -2    1     -3.52      0.00
   11   -2    1      0.09      0.00
   12   -2    1      1.01      0.00
   13   -2    1      0.81      0.00
   14   -2    1     -0.68      0.00
   15   -2    1     -0.01      0.00
  -15   -1    1      1.49      0.00
  -14   -1    1      0.28      0.00
  -13   -1    1     -0.88      0.00
  -12   -1    1      0.04      0.00
  -11   -1    1     -1.30      0.00
  -10   -1    1     -1.01      0.00
   -9   -1    1     -1.15      0.00
   -8   -1    1      4.60      0.00
   -7   -1    1     -4.41      0.00
   -6   -1    1      2.75      0.00
   -5   -1    1     -0.60      0.00
   -4   -1    1    -12.14      0.00
   -3   -1    1     12.59      0.00
   -2   -1    1     24.05      0.00
    2   -1    1    -16.21      0.00
    3   -1    1     50.60      0.00
    4   -1    1    -33.06      0.00
    5   -1    1     15.85      0.00
    6   -1    1    -13.11      0.00
    7   -1    1      2.27      0.00
    8   -1    1      6.11      0.00
    9   -1    1     -2.77      0.00
   10   -1    1     -0.95      0.00
   11   -1    1     -1.32      0.00
   12   -1    1     -0.14      0.00
   13   -1    1      2.42      0.00
   14   -1    1     -1.96      0.00
   15   -1    1      0.43      0.00
  -15    0    1      1.96      0.00
  -14    0    1     -2.12      0.00
  -13    0    1      0.14      0.00
  -12    0    1      0.24      0.00
  -11    0    1     -0.45      0.00
  -10    0    1     -1.98      0.00
   -9    0    1     -2.65      0.00
   -8    0    1      6.57      0.00
   -7    0    1     -3.76      0.00
   -6    0    1     -0.89      0.00
   -5    0    1     -0.42      0.00
   -4    0    1     -3.87      0.00
   -3    0    1     15.18      0.00
   -2    0    1      9.12      0.00
    2    0    1     25.22      0.00
    3    0    1    -35.41      0.00
    4    0    1     21.90      0.00
    5    0    1      6.40      0.00
    6    0    1    -16.01      0.00
    7    0    1      8.64      0.00
    8    0    1     -0.07      0.00
    9    0    1     -1.35      0.00
   10    0    1      0.58      0.00
   11    0    1     -0.35      0.00
   12    0    1     -0.47      0.00
   13    0    1      0.74      0.00
   14    0    1     -0.64      0.00
   15    0    1     -1.46      0.00
  -16    1    1      0.01      0.00
  -15    1    1     -1.00      0.00
  -14    1    1     -1.21      0.00
  -13    1    1     -1.39      0.00
  -12    1    1      0.00      0.00
  -11    1    1     -0.56      0.00
  -10    1    1      0.19      0.00
   -9    1    1     -1.90      0.00
   -8    1    1     -2.99      0.00
   -7    1    1      7.55      0.00
   -6    1    1     -0.54      0.00
   -5    1    1    -10.80      0.00
   -4    1    1      2.28      0.00
   -3    1    1    -17.03      0.00
   -2    1    1     61.45      0.00
    1    1    1    -14.99      0.00
    2    1    1     10.20      0.00
    3    1    1      4.49      0.00
    4    1    1      0.27      0.00
    5    1    1      0.74      0.00
    6    1    1     -6.92      0.00
    7    1    1      6.19      0.00
    8    1    1     -3.31      0.00
    9    1    1      1.94      0.00
   10    1    1     -1.36      0.00
   11    1    1     -1.36      0.00
   12    1    1      1.05      0.00
   13    1    1      0.71      0.00
   14    1    1     -1.72      0.00
   15    1    1     -0.22      0.00
  -16    2    1     -0.16      0.00
  -15    2    1      2.57      0.00
  -14    2    1      0.35      0.00
  -13    2    1      0.03      0.00
  -12    2    1     -0.31      0.00
  -11    2    1     -1.01      0.00
  -10    2    1     -0.03      0.00
   -9    2    1      1.36      0.00
   -8    2    1     -3.51      0.00
   -7    2    1     -0.98      0.00
   -6    2    1      4.95      0.00
   -5    2    1     -0.18      0.00
   -4    2    1    -13.73      0.00
   -3    2    1     12.30      0.00
   -2    2    1     32.26      0.00
   -1    2    1    -24.42      0.00
    0    2    1    -16.59      0.00
    1    2    1     27.60      0.00
    2    2    1    -28.94      0.00
    3    2    1      4.10      0.00
    4    2    1      7.61      0.00
    5    2    1    -10.67      0.00
    6    2    1      7.71      0.00
    7    2    1     -1.89      0.00
    8    2    1     -3.63      0.00
    9    2    1      6.26      0.00
   10    2    1     -2.57      0.00
   11    2    1     -0.09      0.00
   12    2    1      1.29      0.00
   13    2    1      0.34      0.00
   14    2    1      1.35      0.00
  -16    3    1     -0.76      0.00
  -15    3    1     -0.62      0.00
  -14    3    1      1.30      0.00
  -13    3    1     -2.86      0.00
  -12    3    1     -0.30      0.00
  -11    3    1      0.06      0.00
  -10    3    1     -1.18      0.00
   -9    3    1      0.58      0.00
   -8    3    1     -1.12      0.00
   -7    3    1      0.77      0.00
   -6    3    1     -4.23      0.00
   -5    3    1      7.45      0.00
   -4    3    1    -16.49      0.00
   -3    3    1    -13.24      0.00
   -2    3    1     41.33      0.00
   -1    3    1    -21.00      0.00
    0    3    1    -22.95      0.00
    1    3    1    -10.39      0.00
    2    3    1     16.71      0.00
    3    3    1     12.62      0.00
    4    3    1    -16.82      0.00
    5    3    1      7.06      0.00
    6    3    1     -0.98      0.00
    7    3    1     -3.95      0.00
    8    3    1      2.22      0.00
    9    3    1     -0.80      0.00
   10    3    1      0.26      0.00
   11    3    1      1.28      0.00
   12    3    1      0.84      0.00
   13    3    1     -0.48      0.00
   14    3    1     -0.96      0.00
  -16    4    1     -0.58      0.00
  -15    4    1      1.06      0.00
  -14    4    1     -1.53      0.00
  -13    4    1      1.41      0.00
  -12    4    1      0.14      0.00
  -11    4    1     -1.83      0.00
  -10    4    1      1.76      0.00
   -9    4    1     -0.11      0.00
   -8    4    1      0.05      0.00
   -7    4    1     -0.03      0.00
   -6    4    1     -4.49      0.00
   -5    4    1      5.71      0.00
   -4    4    1     -4.70      0.00
   -3    4    1      6.93      0.00
   -2    4    1     22.60      0.00
   -1    4    1     -0.80      0.00
    0    4    1     20.85      0.00
    1    4    1     -5.49      0.00
    2    4    1     -3.71      0.00
    3    4    1     -4.51      0.00
    4    4    1      5.08      0.00
    5    4    1      0.25      0.00
    6    4    1     -5.82      0.00
    7    4    1      4.09      0.00
    8    4    1     -1.50      0.00
    9    4    1      0.21      0.00
   10    4    1     -0.04      0.00
   11    4    1      1.41      0.00
   12    4    1     -1.30      0.00
   13    4    1      2.90      0.00
  -16    5    1      0.95      0.00
  -15    5    1     -1.54      0.00
  -14    5    1     -0.66      0.00
  -13    5    1      0.61      0.00
  -12    5    1      0.50      0.00
  -11    5    1     -1.74      0.00
  -10    5    1      1.16      0.00
   -9    5    1     -1.20      0.00
   -8    5    1      5.47      0.00
   -7    5    1     -3.12      0.00
   -6    5    1     -3.10      0.00
   -5    5    1      2.85      0.00
   -4    5    1    -13.31      0.00
   -3    5    1     -1.64      0.00
   -2    5    1     12.78      0.00
   -1    5    1    -14.10      0.00
    0    5    1     -9.84      0.00
    1    5    1      7.00      0.00
    2    5    1      2.96      0.00
    3    5    1      4.66      0.00
    4    5    1     -5.29      0.00
    5    5    1     -1.13      0.00
    6    5    1      0.52      0.00
    7    5    1      0.62      0.00
    8    5    1     -1.02      0.00
    9    5    1     -0.05      0.00
   10    5    1      2.27      0.00
   11    5    1     -0.44      0.00
   12    5    1      1.75      0.00
   13    5    1      1.70      0.00
  -16    6    1     -2.73      0.00
  -15    6    1      0.22      0.00
  -14    6    1     -0.84      0.00
  -13    6    1     -1.47      0.00
  -12    6    1      2.43      0.00
  -11    6    1     -1.85      0.00
  -10    6    1     -1.18      0.00
   -9    6    1      3.44      0.00
   -8    6    1      0.73      0.00
   -7    6    1     -4.40      0.00
   -6    6    1      4.02      0.00
   -5    6    1      1.52      0.00
   -4    6    1     -3.06      0.00
   -3    6    1      4.41      0.00
   -2    6    1     14.16      0.00
   -1    6    1      8.18      0.00
    0    6    1      4.77      0.00
    1    6    1     -3.83      0.00
    2    6    1      6.72      0.00
    3    6    1     -7.09      0.00
    4    6    1      4.00      0.00
    5    6    1      1.22      0.00
    6    6    1     -5.04      0.00
    7    6    1      2.62      0.00
    8    6    1     -0.59      0.00
    9    6    1      1.57      0.00
   10    6    1     -0.03      0.00
   11    6    1     -0.77      0.00
   12    6    1      0.36      0.00
  -16    7    1      0.00      0.00
  -15    7    1      1.72      0.00
  -14    7    1     -1.51      0.00
  -13    7    1     -3.45      0.00
  -12    7    1      2.47      0.00
  -11    7    1      1.47      0.00
  -10    7    1     -4.15      0.00
   -9    7    1      2.62      0.00
   -8    7    1      4.25      0.00
   -7    7    1     -5.57      0.00
   -6    7    1      4.54      0.00
   -5    7    1     -3.10      0.00
   -4    7    1     -6.43      0.00
   -3    7    1      4.50      0.00
   -2    7    1     -1.64      0.00
   -1    7    1     -0.90      0.00
    0    7    1      0.99      0.00
    1    7    1      4.45      0.00
    2    7    1     -1.21      0.00
    3    7    1      2.98      0.00
    4    7    1     -0.06      0.00
    5    7    1     -2.75      0.00
    6    7    1      0.56      0.00
    7    7    1     -0.44      0.00
    8    7    1      0.22      0.00
    9    7    1      1.39      0.00
   10    7    1      0.61      0.00
   11    7    1      2.20      0.00
   12    7    1      0.25      0.00
  -16    8    1     -2.85      0.00
  -15    8    1      0.53      0.00
  -14    8    1     -0.73      0.00
  -13    8    1     -0.37      0.00
  -12    8    1      2.36      0.00
  -11    8    1      0.03      0.00
  -10    8    1     -1.88      0.00
   -9    8    1      2.05      0.00
   -8    8    1      0.44      0.00
   -7    8    1     -3.81      0.00
   -6    8    1      3.63      0.00
   -5    8    1     -4.38      0.00
   -4    8    1      0.20      0.00
   -3    8    1      3.68      0.00
   -2    8    1      4.46      0.00
   -1    8    1      5.39      0.00
    0    8    1      2.72      0.00
    1    8    1     -0.46      0.00
    2    8    1      5.54      0.00
    3    8    1     -2.02      0.00
    4    8    1      1.55      0.00
    5    8    1      0.29      0.00
    6    8    1     -1.33      0.00
    7    8    1      0.06      0.00
    8    8    1     -0.37      0.00
    9    8    1     -1.23      0.00
   10    8    1      1.00      0.00
   11    8    1      0.49      0.00
  -16    9    1     -1.64      0.00
  -15    9    1      4.49      0.00
  -14    9    1     -3.54      0.00
  -13    9    1      0.77      0.00
  -12    9    1      0.81      0.00
  -11    9    1      1.93      0.00
  -10    9    1     -2.31      0.00
   -9    9    1      0.49      0.00
   -8    9    1      3.14      0.00
   -7    9    1     -0.85      0.00
   -6    9    1      1.43      0.00
   -5    9    1     -3.73      0.00
   -4    9    1      1.97      0.00
   -3    9    1     -1.98      0.00
   -2    9    1     -1.44      0.00
   -1    9    1      6.11      0.00
    0    9    1      0.24      0.00
    1    9    1      3.40      0.00
    2    9    1      0.26      0.00
    3    9    1      1.88      0.00
    4    9    1      1.87      0.00
    5    9    1      0.05      0.00
    6    9    1     -0.43      0.00
    7    9    1      1.50      0.00
    8    9    1      1.14      0.00
    9    9    1     -0.03      0.00
   10    9    1      0.75      0.00
  -15   10    1     -1.64      0.00
  -14   10    1     -2.09      0.00
  -13   10    1      1.90      0.00
  -12   10    1     -1.23      0.00
  -11   10    1      2.46      0.00
  -10   10    1     -0.58      0.00
   -9   10    1     -2.91      0.00
   -8   10    1      2.69      0.00
   -7   10    1      1.86      0.00
   -6   10    1     -4.49      0.00
   -5   10    1     -1.15      0.00
   -4   10    1      2.34      0.00
   -3   10    1     -0.13      0.00
   -2   10    1      1.01      0.00
   -1   10    1      0.75      0.00
    0   10    1      2.65      0.00
    1   10    1      0.79      0.00
    2   10    1      0.97      0.00
    3   10    1      2.41      0.00
    4   10    1     -0.32      0.00
    5   10    1      1.14      0.00
    6   10    1      0.59      0.00
    7   10    1     -0.21      0.00
    8   10    1     -0.04      0.00
    9   10    1     -2.01      0.00
   10   10    1     -0.82      0.00
  -15   11    1      0.01      0.00
  -14   11    1      1.75      0.00
  -13   11    1      0.46      0.00
  -12   11    1     -0.16      0.00
  -11   11    1      4.10      0.00
  -10   11    1     -0.64      0.00
   -9   11    1     -2.31      0.00
   -8   11    1      3.68      0.00
   -7   11    1      0.88      0.00
   -6   11    1     -1.08      0.00
   -5   11    1     -0.07      0.00
   -4   11    1     -2.64      0.00
   -3   11    1      1.49      0.00
   -2   11    1      1.06      0.00
   -1   11    1      0.73      0.00
    0   11    1      3.03      0.00
    1   11    1     -0.14      0.00
    2   11    1      2.12      0.00
    3   11    1      0.44      0.00
    4   11    1      0.27      0.00
    5   11    1      0.48      0.00
    6   11    1     -1.76      0.00
    7   11    1      2.23      0.00
    8   11    1      2.16      0.00
    9   11    1     -1.46      0.00
  -15   12    1     -1.42      0.00
  -14   12    1     -2.58      0.00
  -13   12    1      0.43      0.00
  -12   12    1     -0.60      0.00
  -11   12    1     -0.06      0.00
  -10   12    1     -0.15      0.00
   -9   12    1     -1.18      0.00
   -8   12    1      1.44      0.00
   -7   12    1      0.27      0.00
   -6   12    1     -0.76      0.00
   -5   12    1      0.19      0.00
   -4   12    1      0.95      0.00
   -3   12    1     -1.62      0.00
   -2   12    1      0.16      0.00
   -1   12    1      1.37      0.00
    0   12    1     -0.59      0.00
    1   12    1      1.64      0.00
    2   12    1      0.64      0.00
    3   12    1      1.95      0.00
    4   12    1      0.97      0.00
    5   12    1      1.00      0.00
    6   12    1      1.37      0.00
    7   12    1      0.43      0.00
    8   12    1      0.73      0.00
  -14   13    1      2.05      0.00
  -13   13    1      0.04      0.00
  -12   13    1     -0.83      0.00
  -11   13    1      1.62      0.00
  -10   13    1      0.77      0.00
   -9   13    1     -0.48      0.00
   -8   13    1      3.04      0.00
   -7   13    1     -0.61      0.00
   -6   13    1     -0.61      0.00
   -5   13    1      0.26      0.00
   -4   13    1     -2.23      0.00
   -3   13    1      3.38      0.00
   -2   13    1     -1.09      0.00
   -1   13    1      0.75      0.00
    0   13    1      2.02      0.00
    1   13    1     -1.28      0.00
    2   13    1      3.00      0.00
    3   13    1     -1.31      0.00
    4   13    1     -0.56      0.00
    5   13    1     -1.97      0.00
    6   13    1      0.10      0.00
    7   13    1      0.70      0.00
  -13   14    1     -0.68      0.00
  -12   14    1      0.47      0.00
  -11   14    1     -1.79      0.00
  -10   14    1      0.35      0.00
   -9   14    1     -0.01      0.00
   -8   14    1      0.40      0.00
   -7   14    1      1.04      0.00
   -6   14    1      0.67      0.00
   -5   14    1      0.02      0.00
   -4   14    1     -0.86      0.00
   -3   14    1     -0.60      0.00
   -2   14    1      0.01      0.00
   -1   14    1     -0.43      0.00
    0   14    1      1.05      0.00
    1   14    1      0.76      0.00
    2   14    1      0.85      0.00
    3   14    1      2.03      0.00
    4   14    1      4.41      0.00
    5   14    1     -1.34      0.00
    6   14    1     -0.45      0.00
  -13   15    1      0.95      0.00
  -12   15    1     -0.36      0.00
  -11   15    1     -1.24      0.00
  -10   15    1     -0.32      0.00
   -9   15    1     -0.27      0.00
   -8   15    1      1.87      0.00
   -7   15    1     -0.14      0.00
   -6   15    1     -2.34      0.00
   -5   15    1     -1.30      0.00
   -4   15    1      0.70      0.00
   -3   15    1     -0.46      0.00
   -2   15    1     -1.00      0.00
   -1   15    1      1.82      0.00
    0   15    1     -0.83      0.00
    1   15    1     -0.75      0.00
    2   15    1      0.56      0.00
    3   15    1     -0.58      0.00
    4   15    1      0.31      0.00
  -11   16    1      1.95      0.00
  -10   16    1     -0.03      0.00
   -9   16    1     -2.85      0.00
   -8   16    1      4.50      0.00
   -7   16    1     -0.22      0.00
   -6   16    1      0.12      0.00
   -5   16    1      2.22      0.00
   -4   16    1     -0.48      0.00
   -3   16    1      0.62      0.00
   -2   16    1     -1.39      0.00
   -1   16    1      0.79      0.00
    0   16    1     -0.56      0.00
    1   16    1     -0.12      0.00
    2   16    1      2.03      0.00
    3   16    1     -0.68      0.00
  -10   17    1     -1.15      0.00
   -9   17    1     -0.56      0.00
   -8   17    1      1.25      0.00
   -7   17    1     -1.14      0.00
   -6   17    1     -0.80      0.00
   -5   17    1     -0.50      0.00
   -4   17    1     -2.33      0.00
   -3   17    1     -1.01      0.00
   -2   17    1      2.31      0.00
   -1   17    1     -1.00      0.00
    0   17    1      0.59      0.00
   -7   18    1     -2.35      0.00
   -6   18    1      2.17      0.00
   -5   18    1      0.71      0.00
   -4   18    1     -0.53      0.00
   -3   18    1      1.85      0.00
    1  -19    2      0.21      0.00
    2  -19    2     -0.91      0.00
    3  -19    2     -0.12      0.00
    4  -19    2      0.99      0.00
    5  -19    2     -1.11      0.00
    6  -19    2      0.56      0.00
    7  -19    2      1.63      0.00
    8  -19    2      1.91      0.00
   -2  -18    2     -3.70      0.00
   -1  -18    2      0.79      0.00
    0  -18    2      0.33      0.00
    1  -18    2     -0.84      0.00
    2  -18    2      1.28      0.00
    3  -18    2      0.42      0.00
    4  -18    2     -0.76      0.00
    5  -18    2     -1.27      0.00
    6  -18    2     -0.30      0.00
    7  -18    2      0.00      0.00
    8  -18    2     -2.01      0.00
    9  -18    2     -0.49      0.00
   10  -18    2      2.85      0.00
   -4  -17    2      3.67      0.00
   -3  -17    2     -2.11      0.00
   -2  -17    2     -1.05      0.00
   -1  -17    2      1.14      0.00
    0  -17    2     -0.11      0.00
    1  -17    2      0.64      0.00
    2  -17    2     -0.54      0.00
    3  -17    2      0.21      0.00
    4  -17    2     -0.34      0.00
    5  -17    2     -0.21      0.00
    6  -17    2      0.87      0.00
    7  -17    2     -0.88      0.00
    8  -17    2      1.28      0.00
    9  -17    2     -0.74      0.00
   10  -17    2      2.22      0.00
   11  -17    2     -0.36      0.00
   -5  -16    2      0.12      0.00
   -4  -16    2      0.59      0.00
   -3  -16    2     -0.49      0.00
   -2  -16    2     -0.59      0.00
   -1  -16    2     -1.83      0.00
    0  -16    2     -0.51      0.00
    1  -16    2     -0.59      0.00
    2  -16    2      0.60      0.00
    3  -16    2      0.02      0.00
    4  -16    2     -1.69      0.00
    5  -16    2      0.18      0.00
    6  -16    2      0.17      0.00
    7  -16    2      0.52      0.00
    8  -16    2     -0.75      0.00
    9  -16    2     -1.73      0.00
   10  -16    2      2.58      0.00
   11  -16    2      0.97      0.00
   12  -16    2     -0.90      0.00
   -6  -15    2     -1.51      0.00
   -5  -15    2      0.90      0.00
   -4  -15    2      1.50      0.00
   -3  -15    2     -0.32      0.00
   -2  -15    2     -1.12      0.00
   -1  -15    2     -0.29      0.00
    0  -15    2      0.31      0.00
    1  -15    2     -1.53      0.00
    2  -15    2      0.77      0.00
    3  -15    2      0.65      0.00
    4  -15    2      0.14      0.00
    5  -15    2      0.37      0.00
    6  -15    2     -1.21      0.00
    7  -15    2      0.16      0.00
    8  -15    2      0.31      0.00
    9  -15    2     -0.91      0.00
   10  -15    2     -0.14      0.00
   11  -15    2     -1.03      0.00
   12  -15    2      2.85      0.00
   13  -15    2     -0.89      0.00
   -8  -14    2      1.71      0.00
   -7  -14    2     -0.86      0.00
   -6  -14    2     -0.69      0.00
   -5  -14    2      1.04      0.00
   -4  -14    2     -0.05      0.00
   -3  -14    2      2.15      0.00
   -2  -14    2     -1.57      0.00
   -1  -14    2     -0.52      0.00
    0  -14    2      1.47      0.00
    1  -14    2     -2.86      0.00
    2  -14    2      0.49      0.00
    3  -14    2     -1.44      0.00
    4  -14    2     -0.94      0.00
    5  -14    2      0.64      0.00
    6  -14    2      0.73      0.00
    7  -14    2      2.69      0.00
    8  -14    2     -1.81      0.00
    9  -14    2      0.11      0.00
   10  -14    2      0.49      0.00
   11  -14    2      0.25      0.00
   12  -14    2      2.33      0.00
   13  -14    2     -1.94      0.00
   14  -14    2      0.66      0.00
   -9  -13    2     -0.13      0.00
   -8  -13    2     -0.53      0.00
   -7  -13    2     -0.87      0.00
   -6  -13    2      1.90      0.00
   -5  -13    2     -0.46      0.00
   -4  -13    2     -0.50      0.00
   -3  -13    2      2.66      0.00
   -2  -13    2     -2.13      0.00
   -1  -13    2      1.42      0.00
    0  -13    2      0.81      0.00
    1  -13    2     -1.69      0.00
    2  -13    2      0.21      0.00
    3  -13    2     -0.32      0.00
    4  -13    2      0.44      0.00
    5  -13    2     -0.86      0.00
    6  -13    2     -1.15      0.00
    7  -13    2      3.45      0.00
    8  -13    2     -2.68      0.00
    9  -13    2      0.66      0.00
   10  -13    2     -0.15      0.00
   11  -13    2     -2.29      0.00
   12  -13    2      0.10      0.00
   13  -13    2      0.94      0.00
   14  -13    2     -0.93      0.00
   -9  -12    2     -0.10      0.00
   -8  -12    2      1.27      0.00
   -7  -12    2     -1.14      0.00
   -6  -12    2      0.18      0.00
   -5  -12    2      1.53      0.00
   -4  -12    2     -0.23      0.00
   -3  -12    2      2.28      0.00
   -2  -12    2     -2.18      0.00
   -1  -12    2      0.56      0.00
    0  -12    2      1.64      0.00
    1  -12    2     -0.01      0.00
    2  -12    2     -1.37      0.00
    3  -12    2     -1.95      0.00
    4  -12    2      0.30      0.00
    5  -12    2     -0.91      0.00
    6  -12    2      2.95      0.00
    7  -12    2      0.65      0.00
    8  -12    2     -3.76      0.00
    9  -12    2     -0.43      0.00
   10  -12    2      1.80      0.00
   11  -12    2     -0.26      0.00
   12  -12    2      0.13      0.00
   13  -12    2      0.72      0.00
   14  -12    2      1.10      0.00
   15  -12    2     -0.06      0.00
  -10  -11    2     -1.76      0.00
   -9  -11    2      1.38      0.00
   -8  -11    2      0.20      0.00
   -7  -11    2     -0.08      0.00
   -6  -11    2      1.81      0.00
   -5  -11    2     -2.15      0.00
   -4  -11    2      2.69      0.00
   -3  -11    2      0.56      0.00
   -2  -11    2      1.67      0.00
   -1  -11    2      0.10      0.00
    0  -11    2      2.65      0.00
    1  -11    2      0.08      0.00
    2  -11    2      0.27      0.00
    3  -11    2      1.25      0.00
    4  -11    2     -3.15      0.00
    5  -11    2     -0.07      0.00
    6  -11    2      2.84      0.00
    7  -11    2      2.18      0.00
    8  -11    2     -0.72      0.00
    9  -11    2     -0.92      0.00
   10  -11    2      0.68      0.00
   11  -11    2      0.49      0.00
   12  -11    2     -1.31      0.00
   13  -11    2     -0.20      0.00
   14  -11    2      0.78      0.00
   15  -11    2     -0.26      0.00
  -11  -10    2     -0.48      0.00
  -10  -10    2     -1.08      0.00
   -9  -10    2      1.33      0.00
   -8  -10    2      0.42      0.00
   -7  -10    2      0.44      0.00
   -6  -10    2     -0.56      0.00
   -5  -10    2      1.68      0.00
   -4  -10    2      1.89      0.00
   -3  -10    2      1.09      0.00
   -2  -10    2     -0.66      0.00
   -1  -10    2     -1.49      0.00
    0  -10    2      2.69      0.00
    1  -10    2      1.45      0.00
    2  -10    2     -3.73      0.00
    3  -10    2     -2.98      0.00
    4  -10    2     -1.74      0.00
    5  -10    2      0.02      0.00
    6  -10    2      0.99      0.00
    7  -10    2      0.85      0.00
    8  -10    2     -2.95      0.00
    9  -10    2     -2.12      0.00
   10  -10    2      1.31      0.00
   11  -10    2      0.81      0.00
   12  -10    2     -2.45      0.00
   13  -10    2     -0.17      0.00
   14  -10    2      1.97      0.00
   15  -10    2     -0.81      0.00
  -12   -9    2     -1.56      0.00
  -11   -9    2      0.33      0.00
  -10   -9    2      0.66      0.00
   -9   -9    2      0.42      0.00
   -8   -9    2      0.23      0.00
   -7   -9    2      0.69      0.00
   -6   -9    2      0.77      0.00
   -5   -9    2      1.48      0.00
   -4   -9    2     -1.05      0.00
   -3   -9    2      3.34      0.00
   -2   -9    2      5.23      0.00
   -1   -9    2      1.89      0.00
    0   -9    2      3.59      0.00
    1   -9    2      2.62      0.00
    2   -9    2      2.40      0.00
    3   -9    2      2.25      0.00
    4   -9    2     -2.37      0.00
    5   -9    2     -0.48      0.00
    6   -9    2      6.60      0.00
    7   -9    2      0.39      0.00
    8   -9    2     -2.15      0.00
    9   -9    2     -3.04      0.00
   10   -9    2      5.12      0.00
   11   -9    2     -1.06      0.00
   12   -9    2      0.08      0.00
   13   -9    2     -1.34      0.00
   14   -9    2      2.01      0.00
   15   -9    2     -0.80      0.00
  -12   -8    2     -0.97      0.00
  -11   -8    2      0.03      0.00
  -10   -8    2     -1.28      0.00
   -9   -8    2      0.61      0.00
   -8   -8    2      0.60      0.00
   -7   -8    2     -0.44      0.00
   -6   -8    2      0.27      0.00
   -5   -8    2      0.73      0.00
   -4   -8    2      0.87      0.00
   -3   -8    2      0.70      0.00
   -2   -8    2     -0.22      0.00
   -1   -8    2      2.88      0.00
    0   -8    2     10.74      0.00
    1   -8    2     -5.44      0.00
    2   -8    2     -5.35      0.00
    3   -8    2      1.74      0.00
    4   -8    2     -4.43      0.00
    5   -8    2     -1.71      0.00
    6   -8    2      4.22      0.00
    7   -8    2      3.00      0.00
    8   -8    2     -2.21      0.00
    9   -8    2     -1.03      0.00
   10   -8    2      0.83      0.00
   11   -8    2      0.62      0.00
   12   -8    2     -1.39      0.00
   13   -8    2     -5.24      0.00
   14   -8    2      3.25      0.00
   15   -8    2     -1.62      0.00
   16   -8    2      0.45      0.00
  -13   -7    2     -1.46      0.00
  -12   -7    2      1.08      0.00
  -11   -7    2      0.56      0.00
  -10   -7    2     -0.43      0.00
   -9   -7    2      0.51      0.00
   -8   -7    2      0.88      0.00
   -7   -7    2     -2.86      0.00
   -6   -7    2      2.01      0.00
   -5   -7    2      0.90      0.00
   -4   -7    2     -5.04      0.00
   -3   -7    2      8.73      0.00
   -2   -7    2      0.79      0.00
   -1   -7    2      4.16      0.00
    0   -7    2      6.94      0.00
    1   -7    2      6.73      0.00
    2   -7    2      1.10      0.00
    3   -7    2     -1.14      0.00
    4   -7    2     -1.90      0.00
    5   -7    2      0.63      0.00
    6   -7    2      7.11      0.00
    7   -7    2     -2.99      0.00
    8   -7    2     -3.64      0.00
    9   -7    2      1.21      0.00
   10   -7    2      2.49      0.00
   11   -7    2     -0.09      0.00
   12   -7    2      0.70      0.00
   13   -7    2     -3.75      0.00
   14   -7    2      2.30      0.00
   15   -7    2     -0.59      0.00
   16   -7    2     -2.78      0.00
  -14   -6    2     -1.38      0.00
  -13   -6    2      0.42      0.00
  -12   -6    2      1.29      0.00
  -11   -6    2     -0.51      0.00
  -10   -6    2     -1.87      0.00
   -9   -6    2      5.40      0.00
   -8   -6    2     -3.33      0.00
   -7   -6    2     -2.08      0.00
   -6   -6    2      5.37      0.00
   -5   -6    2     -2.26      0.00
   -4   -6    2     -0.43      0.00
   -3   -6    2     -7.70      0.00
   -2   -6    2      9.26      0.00
   -1   -6    2     16.58      0.00
    0   -6    2      6.25      0.00
    1   -6    2      3.60      0.00
    2   -6    2      1.52      0.00
    3   -6    2     -2.13      0.00
    4   -6    2     -2.33      0.00
    5   -6    2      7.06      0.00
    6   -6    2      1.27      0.00
    7   -6    2      0.19      0.00
    8   -6    2     -0.88      0.00
    9   -6    2     -0.78      0.00
   10   -6    2      1.62      0.00
   11   -6    2     -1.37      0.00
   12   -6    2     -0.11      0.00
   13   -6    2     -1.64      0.00
   14   -6    2     -1.75      0.00
   15   -6    2     -2.49      0.00
   16   -6    2      1.16      0.00
  -14   -5    2      1.40      0.00
  -13   -5    2      2.91      0.00
  -12   -5    2     -0.11      0.00
  -11   -5    2     -0.03      0.00
  -10   -5    2      2.43      0.00
   -9   -5    2     -3.73      0.00
   -8   -5    2      1.03      0.00
   -7   -5    2      2.23      0.00
   -6   -5    2     -1.73      0.00
   -5   -5    2     -5.99      0.00
   -4   -5    2      5.50      0.00
   -3   -5    2      3.93      0.00
   -2   -5    2    -13.80      0.00
   -1   -5    2     20.26      0.00
    0   -5    2    -13.69      0.00
    1   -5    2     24.03      0.00
    2   -5    2    -13.14      0.00
    3   -5    2    -23.71      0.00
    4   -5    2     17.37      0.00
    5   -5    2     -0.49      0.00
    6   -5    2      2.47      0.00
    7   -5    2     -1.53      0.00
    8   -5    2     -0.52      0.00
    9   -5    2      0.42      0.00
   10   -5    2      2.33      0.00
   11   -5    2     -2.44      0.00
   12   -5    2      0.87      0.00
   13   -5    2     -0.66      0.00
   14   -5    2     -0.48      0.00
   15   -5    2      0.40      0.00
   16   -5    2      2.51      0.00
  -14   -4    2      1.60      0.00
  -13   -4    2     -1.00      0.00
  -12   -4    2      1.79      0.00
  -11   -4    2      1.45      0.00
  -10   -4    2     -0.20      0.00
   -9   -4    2      2.23      0.00
   -8   -4    2     -3.38      0.00
   -7   -4    2      2.25      0.00
   -6   -4    2     -2.25      0.00
   -5   -4    2     10.35      0.00
   -4   -4    2     -7.31      0.00
   -3   -4    2    -29.80      0.00
   -2   -4    2     59.31      0.00
   -1   -4    2      0.06      0.00
    0   -4    2     16.32      0.00
    1   -4    2     54.82      0.00
    2   -4    2    -33.54      0.00
    3   -4    2      0.23      0.00
    4   -4    2     18.01      0.00
    5   -4    2    -10.76      0.00
    6   -4    2      5.38      0.00
    7   -4    2     -0.30      0.00
    8   -4    2     -2.42      0.00
    9   -4    2      2.85      0.00
   10   -4    2     -1.76      0.00
   11   -4    2     -0.34      0.00
   12   -4    2      3.86      0.00
   13   -4    2     -2.74      0.00
   14   -4    2     -2.68      0.00
   15   -4    2      0.04      0.00
  -15   -3    2     -1.55      0.00
  -14   -3    2      0.92      0.00
  -13   -3    2      0.53      0.00
  -12   -3    2      1.04      0.00
  -11   -3    2      0.15      0.00
  -10   -3    2      0.59      0.00
   -9   -3    2      1.65      0.00
   -8   -3    2      1.58      0.00
   -7   -3    2     -6.75      0.00
   -6   -3    2     -0.67      0.00
   -5   -3    2     12.15      0.00
   -4   -3    2    -14.98      0.00
   -3   -3    2      6.48      0.00
   -2   -3    2     -0.68      0.00
   -1   -3    2    -46.65      0.00
    0   -3    2     29.44      0.00
    1   -3    2     41.24      0.00
    2   -3    2    -84.14      0.00
    3   -3    2     18.31      0.00
    4   -3    2     11.04      0.00
    5   -3    2     -5.40      0.00
    6   -3    2      2.65      0.00
    7   -3    2     -1.48      0.00
    8   -3    2      0.13      0.00
    9   -3    2      2.43      0.00
   10   -3    2     -0.56      0.00
   11   -3    2     -2.01      0.00
   12   -3    2      1.08      0.00
   13   -3    2      1.14      0.00
   14   -3    2     -0.66      0.00
   15   -3    2     -0.13      0.00
  -15   -2    2      2.42      0.00
  -14   -2    2      0.21      0.00
  -13   -2    2     -0.31      0.00
  -12   -2    2      1.69      0.00
  -11   -2    2      0.97      0.00
  -10   -2    2     -0.18      0.00
   -9   -2    2     -0.53      0.00
   -8   -2    2      2.24      0.00
   -7   -2    2     -2.47      0.00
   -6   -2    2      4.63      0.00
   -5   -2    2     -1.47      0.00
   -4   -2    2     -5.90      0.00
   -3   -2    2     -3.45      0.00
   -2   -2    2     10.47      0.00
   -1   -2    2     40.60      0.00
    1   -2    2     56.48      0.00
    2   -2    2    -26.49      0.00
    3   -2    2    -12.36      0.00
    4   -2    2      7.24      0.00
    5   -2    2      8.12      0.00
    6   -2    2     -4.42      0.00
    7   -2    2     -5.78      0.00
    8   -2    2      6.00      0.00
    9   -2    2     -3.09      0.00
   10   -2    2      1.75      0.00
   11   -2    2      0.10      0.00
   12   -2    2      0.57      0.00
   13   -2    2      0.51      0.00
   14   -2    2      0.15      0.00
   15   -2    2     -0.82      0.00
  -15   -1    2      1.04      0.00
  -14   -1    2     -0.86      0.00
  -13   -1    2      0.68      0.00
  -12   -1    2      2.66      0.00
  -11   -1    2     -1.06      0.00
  -10   -1    2      2.03      0.00
   -9   -1    2      0.34      0.00
   -8   -1    2     -0.77      0.00
   -7   -1    2      0.83      0.00
   -6   -1    2     -3.97      0.00
   -5   -1    2      9.77      0.00
   -4   -1    2     -0.28      0.00
   -3   -1    2     -0.98      0.00
   -2   -1    2    -35.70      0.00
    1   -1    2    -10.85      0.00
    2   -1    2     10.25      0.00
    3   -1    2    -41.39      0.00
    4   -1    2     14.17      0.00
    5   -1    2     12.90      0.00
    6   -1    2    -16.12      0.00
    7   -1    2     11.29      0.00
    8   -1    2     -4.47      0.00
    9   -1    2     -0.34      0.00
   10   -1    2      3.04      0.00
   11   -1    2     -3.82      0.00
   12   -1    2      1.60      0.00
   13   -1    2      0.99      0.00
   14   -1    2     -1.62      0.00
   15   -1    2     -0.54      0.00
  -16    0    2      0.06      0.00
  -15    0    2     -0.01      0.00
  -14    0    2     -0.57      0.00
  -13    0    2     -0.95      0.00
  -12    0    2      1.73      0.00
  -11    0    2      2.01      0.00
  -10    0    2     -2.19      0.00
   -9    0    2      2.88      0.00
   -8    0    2     -3.78      0.00
   -7    0    2      2.17      0.00
   -6    0    2      6.13      0.00
   -5    0    2    -13.36      0.00
   -4    0    2     15.04      0.00
   -3    0    2    -17.83      0.00
   -2    0    2     16.92      0.00
    0    0    2    -61.62      0.00
    1    0    2    114.77      0.00
    2    0    2    -51.70      0.00
    3    0    2      2.11      0.00
    4    0    2      4.59      0.00
    5    0    2     -5.72      0.00
    6    0    2      9.97      0.00
    7    0    2     -7.02      0.00
    8    0    2     -1.14      0.00
    9    0    2      2.03      0.00
   10    0    2      1.05      0.00
   11    0    2     -1.63      0.00
   12    0    2      0.98      0.00
   13    0    2     -1.54      0.00
   14    0    2     -0.75      0.00
   15    0    2      0.54      0.00
  -16    1    2      1.07      0.00
  -15    1    2      0.87      0.00
  -14    1    2      2.71      0.00
  -13    1    2     -1.12      0.00
  -12    1    2      1.42      0.00
  -11    1    2      0.70      0.00
  -10    1    2      1.12      0.00
   -9    1    2      1.90      0.00
   -8    1    2     -2.96      0.00
   -7    1    2      0.03      0.00
   -6    1    2     -1.21      0.00
   -5    1    2     15.66      0.00
   -4    1    2     -5.04      0.00
   -3    1    2     -9.39      0.00
   -2    1    2     -2.21      0.00
   -1    1    2     17.01      0.00
    0    1    2     12.80      0.00
    1    1    2    -14.34      0.00
    2    1    2     -1.48      0.00
    3    1    2      0.48      0.00
    4    1    2     -9.39      0.00
    5    1    2      0.93      0.00
    6    1    2      9.78      0.00
    7    1    2     -5.07      0.00
    8    1    2      0.07      0.00
    9    1    2      1.06      0.00
   10    1    2     -1.81      0.00
   11    1    2     -1.27      0.00
   12    1    2      0.68      0.00
   13    1    2      0.11      0.00
   14    1    2      0.38      0.00
  -16    2    2      0.37      0.00
  -15    2    2      0.28      0.00
  -14    2    2      0.02      0.00
  -13    2    2     -1.00      0.00
  -12    2    2      1.99      0.00
  -11    2    2     -1.24      0.00
  -10    2    2      0.61      0.00
   -9    2    2      0.67      0.00
   -8    2    2     -0.20      0.00
   -7    2    2     -1.89      0.00
   -6    2    2     -1.87      0.00
   -5    2    2     11.21      0.00
   -4    2    2     -5.30      0.00
   -3    2    2    -14.44      0.00
   -2    2    2      1.01      0.00
   -1    2    2    -34.03      0.00
    0    2    2    -24.43      0.00
    1    2    2     25.37      0.00
    2    2    2     -0.59      0.00
    3    2    2     -1.57      0.00
    4    2    2     -6.70      0.00
    5    2    2      9.00      0.00
    6    2    2     -3.77      0.00
    7    2    2     -0.51      0.00
    8    2    2      3.54      0.00
    9    2    2     -3.59      0.00
   10    2    2      2.42      0.00
   11    2    2     -0.65      0.00
   12    2    2     -1.63      0.00
   13    2    2     -3.33      0.00
   14    2    2      3.00      0.00
  -16    3    2     -0.74      0.00
  -15    3    2     -0.98      0.00
  -14    3    2      1.58      0.00
  -13    3    2     -0.18      0.00
  -12    3    2      0.35      0.00
  -11    3    2     -0.79      0.00
  -10    3    2      3.12      0.00
   -9    3    2     -0.61      0.00
   -8    3    2     -1.15      0.00
   -7    3    2     -1.01      0.00
   -6    3    2     -4.57      0.00
   -5    3    2     16.17      0.00
   -4    3    2     -3.34      0.00
   -3    3    2     -0.04      0.00
   -2    3    2     11.04      0.00
   -1    3    2      3.09      0.00
    0    3    2      8.93      0.00
    1    3    2     -7.54      0.00
    2    3    2    -15.53      0.00
    3    3    2      7.56      0.00
    4    3    2     -1.76      0.00
    5    3    2      0.47      0.00
    6    3    2     -2.91      0.00
    7    3    2      5.28      0.00
    8    3    2     -0.88      0.00
    9    3    2     -4.24      0.00
   10    3    2      2.07      0.00
   11    3    2     -2.05      0.00
   12    3    2      0.03      0.00
   13    3    2     -1.52      0.00
   14    3    2     -1.08      0.00
  -16    4    2      0.10      0.00
  -15    4    2      0.52      0.00
  -14    4    2      1.78      0.00
  -13    4    2     -0.20      0.00
  -12    4    2      0.54      0.00
  -11    4    2     -1.69      0.00
  -10    4    2     -0.86      0.00
   -9    4    2      2.26      0.00
   -8    4    2      2.08      0.00
   -7    4    2     -3.97      0.00
   -6    4    2     -0.89      0.00
   -5    4    2      2.18      0.00
   -4    4    2      3.81      0.00
   -3    4    2     -7.30      0.00
   -2    4    2    -24.94      0.00
   -1    4    2     -3.11      0.00
    0    4    2    -11.84      0.00
    1    4    2      3.66      0.00
    2    4    2     -0.34      0.00
    3    4    2     -3.00      0.00
    4    4    2     -1.30      0.00
    5    4    2      4.16      0.00
    6    4    2     -0.45      0.00
    7    4    2     -2.19      0.00
    8    4    2      2.13      0.00
    9    4    2     -1.87      0.00
   10    4    2      2.00      0.00
   11    4    2     -1.32      0.00
   12    4    2     -1.14      0.00
   13    4    2      1.61      0.00
  -16    5    2     -0.31      0.00
  -15    5    2     -1.79      0.00
  -14    5    2      3.52      0.00
  -13    5    2     -3.94      0.00
  -12    5    2     -0.19      0.00
  -11    5    2      3.45      0.00
  -10    5    2     -3.01      0.00
   -9    5    2     -2.01      0.00
   -8    5    2      2.08      0.00
   -7    5    2     -1.97      0.00
   -6    5    2      2.24      0.00
   -5    5    2     -1.35      0.00
   -4    5    2      6.35      0.00
   -3    5    2      7.79      0.00
   -2    5    2     -4.69      0.00
   -1    5    2      3.78      0.00
    0    5    2     -2.33      0.00
    1    5    2     -8.50      0.00
    2    5    2     -0.60      0.00
    3    5    2      1.11      0.00
    4    5    2     -1.57      0.00
    5    5    2      2.50      0.00
    6    5    2     -3.77      0.00
    7    5    2      4.15      0.00
    8    5    2     -2.07      0.00
    9    5    2     -1.07      0.00
   10    5    2     -1.69      0.00
   11    5    2      0.42      0.00
   12    5    2      0.27      0.00
   13    5    2     -1.33      0.00
  -16    6    2      2.68      0.00
  -15    6    2      1.01      0.00
  -14    6    2      0.28      0.00
  -13    6    2     -2.79      0.00
  -12    6    2     -0.05      0.00
  -11    6    2      0.58      0.00
  -10    6    2     -1.49      0.00
   -9    6    2     -0.52      0.00
   -8    6    2      3.70      0.00
   -7    6    2     -3.60      0.00
   -6    6    2     -1.72      0.00
   -5    6    2      4.10      0.00
   -4    6    2      3.71      0.00
   -3    6    2     -6.67      0.00
   -2    6    2    -12.94      0.00
   -1    6    2      0.18      0.00
    0    6    2      0.41      0.00
    1    6    2     -7.64      0.00
    2    6    2     -3.19      0.00
    3    6    2      1.23      0.00
    4    6    2     -0.62      0.00
    5    6    2     -1.51      0.00
    6    6    2      1.49      0.00
    7    6    2     -0.19      0.00
    8    6    2      0.51      0.00
    9    6    2     -1.04      0.00
   10    6    2      0.39      0.00
   11    6    2     -1.18      0.00
   12    6    2      0.08      0.00
  -16    7    2      0.09      0.00
  -15    7    2     -0.50      0.00
  -14    7    2      2.36      0.00
  -13    7    2     -0.88      0.00
  -12    7    2     -0.21      0.00
  -11    7    2      1.43      0.00
  -10    7    2     -2.66      0.00
   -9    7    2     -2.92      0.00
   -8    7    2      4.06      0.00
   -7    7    2     -1.80      0.00
   -6    7    2     -6.83      0.00
   -5    7    2      3.87      0.00
   -4    7    2      9.41      0.00
   -3    7    2     -6.12      0.00
   -2    7    2      0.96      0.00
   -1    7    2     -1.33      0.00
    0    7    2     -5.96      0.00
    1    7    2     -1.21      0.00
    2    7    2     -0.01      0.00
    3    7    2     -1.99      0.00
    4    7    2     -2.82      0.00
    5    7    2      2.94      0.00
    6    7    2     -3.86      0.00
    7    7    2      0.51      0.00
    8    7    2      0.27      0.00
    9    7    2     -1.56      0.00
   10    7    2      1.39      0.00
   11    7    2     -1.13      0.00
  -16    8    2      2.70      0.00
  -15    8    2      0.73      0.00
  -14    8    2     -1.74      0.00
  -13    8    2     -0.58      0.00
  -12    8    2     -1.52      0.00
  -11    8    2      0.38      0.00
  -10    8    2     -0.18      0.00
   -9    8    2     -1.56      0.00
   -8    8    2      3.14      0.00
   -7    8    2     -0.30      0.00
   -6    8    2     -5.03      0.00
   -5    8    2      7.55      0.00
   -4    8    2      2.28      0.00
   -3    8    2     -5.91      0.00
   -2    8    2     -0.98      0.00
   -1    8    2      0.55      0.00
    0    8    2     -2.34      0.00
    1    8    2     -4.54      0.00
    2    8    2     -2.93      0.00
    3    8    2      1.17      0.00
    4    8    2      0.47      0.00
    5    8    2     -3.85      0.00
    6    8    2      2.47      0.00
    7    8    2      0.53      0.00
    8    8    2     -0.04      0.00
    9    8    2      0.26      0.00
   10    8    2     -1.15      0.00
   11    8    2      0.86      0.00
  -16    9    2     -0.41      0.00
  -15    9    2     -2.05      0.00
  -14    9    2      0.97      0.00
  -13    9    2     -0.71      0.00
  -12    9    2     -2.54      0.00
  -11    9    2      1.62      0.00
  -10    9    2     -0.96      0.00
   -9    9    2     -3.21      0.00
   -8    9    2      3.75      0.00
   -7    9    2     -3.02      0.00
   -6    9    2     -5.43      0.00
   -5    9    2      6.11      0.00
   -4    9    2      2.13      0.00
   -3    9    2     -1.18      0.00
   -2    9    2     -0.52      0.00
   -1    9    2     -6.07      0.00
    0    9    2      1.12      0.00
    1    9    2      0.24      0.00
    2    9    2     -4.29      0.00
    3    9    2     -1.02      0.00
    4    9    2      0.44      0.00
    5    9    2     -1.71      0.00
    6    9    2      0.09      0.00
    7    9    2     -1.54      0.00
    8    9    2      0.17      0.00
    9    9    2      0.02      0.00
   10    9    2      0.40      0.00
  -15   10    2      2.24      0.00
  -14   10    2      0.25      0.00
  -13   10    2     -0.02      0.00
  -12   10    2     -1.19      0.00
  -11   10    2     -0.60      0.00
  -10   10    2      1.77      0.00
   -9   10    2     -0.72      0.00
   -8   10    2     -1.38      0.00
   -7   10    2      0.03      0.00
   -6   10    2     -1.69      0.00
   -5   10    2      2.09      0.00
   -4   10    2     -0.06      0.00
   -3   10    2      1.60      0.00
   -2   10    2      1.82      0.00
   -1   10    2     -3.61      0.00
    0   10    2      0.68      0.00
    1   10    2     -2.98      0.00
    2   10    2      0.49      0.00
    3   10    2      0.08      0.00
    4   10    2     -2.82      0.00
    5   10    2      0.50      0.00
    6   10    2     -2.32      0.00
    7   10    2      0.64      0.00
    8   10    2      0.84      0.00
    9   10    2      0.19      0.00
  -15   11    2     -0.63      0.00
  -14   11    2     -0.78      0.00
  -13   11    2      0.43      0.00
  -12   11    2     -2.68      0.00
  -11   11    2     -1.01      0.00
  -10   11    2      0.61      0.00
   -9   11    2     -1.82      0.00
   -8   11    2     -0.18      0.00
   -7   11    2     -1.41      0.00
   -6   11    2     -1.07      0.00
   -5   11    2      1.77      0.00
   -4   11    2      0.65      0.00
   -3   11    2     -0.10      0.00
   -2   11    2     -1.52      0.00
   -1   11    2      0.60      0.00
    0   11    2     -1.20      0.00
    1   11    2     -0.98      0.00
    2   11    2     -1.07      0.00
    3   11    2     -0.19      0.00
    4   11    2      0.34      0.00
    5   11    2      0.62      0.00
    6   11    2      1.17      0.00
    7   11    2     -1.97      0.00
    8   11    2     -0.69      0.00
  -14   12    2      0.89      0.00
  -13   12    2      3.23      0.00
  -12   12    2     -3.77      0.00
  -11   12    2      2.58      0.00
  -10   12    2      2.06      0.00
   -9   12    2     -1.06      0.00
   -8   12    2     -1.42      0.00
   -7   12    2     -2.68      0.00
   -6   12    2      0.37      0.00
   -5   12    2      0.56      0.00
   -4   12    2      0.24      0.00
   -3   12    2      1.77      0.00
   -2   12    2      0.72      0.00
   -1   12    2     -1.01      0.00
    0   12    2     -0.06      0.00
    1   12    2     -1.22      0.00
    2   12    2      0.59      0.00
    3   12    2     -3.89      0.00
    4   12    2     -0.95      0.00
    5   12    2      0.35      0.00
    6   12    2     -0.37      0.00
    7   12    2     -1.45      0.00
  -14   13    2     -0.97      0.00
  -13   13    2      0.88      0.00
  -12   13    2     -0.52      0.00
  -11   13    2     -0.27      0.00
  -10   13    2      0.51      0.00
   -9   13    2     -0.36      0.00
   -8   13    2      0.14      0.00
   -7   13    2     -0.29      0.00
   -6   13    2     -0.97      0.00
   -5   13    2      1.66      0.00
   -4   13    2     -0.47      0.00
   -3   13    2     -1.43      0.00
   -2   13    2      1.22      0.00
   -1   13    2      1.71      0.00
    0   13    2     -1.82      0.00
    1   13    2      0.94      0.00
    2   13    2     -1.29      0.00
    3   13    2      0.47      0.00
    4   13    2      0.33      0.00
    5   13    2      0.66      0.00
    6   13    2     -0.69      0.00
  -13   14    2      1.45      0.00
  -12   14    2     -2.83      0.00
  -11   14    2      1.59      0.00
  -10   14    2      1.20      0.00
   -9   14    2     -1.55      0.00
   -8   14    2     -0.92      0.00
   -7   14    2     -0.96      0.00
   -6   14    2     -1.56      0.00
   -5   14    2      0.44      0.00
   -4   14    2      1.24      0.00
   -3   14    2      0.61      0.00
   -2   14    2     -1.70      0.00
   -1   14    2      1.69      0.00
    0   14    2     -1.86      0.00
    1   14    2      0.58      0.00
    2   14    2      1.16      0.00
    3   14    2     -3.29      0.00
    4   14    2     -2.69      0.00
    5   14    2      3.43      0.00
  -12   15    2      0.86      0.00
  -11   15    2     -1.64      0.00
  -10   15    2      3.15      0.00
   -9   15    2     -0.55      0.00
   -8   15    2     -0.89      0.00
   -7   15    2      2.20      0.00
   -6   15    2      0.25      0.00
   -5   15    2      1.30      0.00
   -4   15    2     -1.10      0.00
   -3   15    2      0.10      0.00
   -2   15    2      1.94      0.00
   -1   15    2      0.35      0.00
    0   15    2     -1.30      0.00
    1   15    2      1.08      0.00
    2   15    2     -0.81      0.00
    3   15    2      1.48      0.00
  -11   16    2     -1.66      0.00
  -10   16    2      1.67      0.00
   -9   16    2     -1.06      0.00
   -8   16    2     -1.78      0.00
   -7   16    2      0.40      0.00
   -6   16    2     -0.57      0.00
   -5   16    2      0.34      0.00
   -4   16    2     -0.87      0.00
   -3   16    2     -0.22      0.00
   -2   16    2     -0.25      0.00
   -1   16    2      0.45      0.00
    0   16    2     -0.02      0.00
    1   16    2      1.62      0.00
   -9   17    2     -1.13      0.00
   -8   17    2     -0.48      0.00
   -7   17    2     -0.06      0.00
   -6   17    2      0.08      0.00
   -5   17    2     -0.13      0.00
   -4   17    2      0.69      0.00
   -3   17    2     -0.44      0.00
   -2   17    2      0.14      0.00
   -1   17    2      0.64      0.00
    0  -19    3     -1.53      0.00
    1  -19    3     -0.31      0.00
    2  -19    3      1.46      0.00
    3  -19    3      0.03      0.00
    4  -19    3     -0.24      0.00
    5  -19    3      0.27      0.00
    6  -19    3      0.70      0.00
    7  -19    3      0.57      0.00
    8  -19    3     -1.89      0.00
    9  -19    3     -0.45      0.00
   -2  -18    3      2.56      0.00
   -1  -18    3      0.62      0.00
    0  -18    3      0.94      0.00
    1  -18    3     -0.72      0.00
    2  -18    3     -0.99      0.00
    3  -18    3      1.46      0.00
    4  -18    3      0.73      0.00
    5  -18    3     -1.32      0.00
    6  -18    3      1.43      0.00
    7  -18    3     -0.04      0.00
    8  -18    3      0.74      0.00
    9  -18    3     -0.67      0.00
   10  -18    3     -1.57      0.00
   -4  -17    3      0.80      0.00
   -3  -17    3     -0.90      0.00
   -2  -17    3      0.40      0.00
   -1  -17    3     -0.48      0.00
    0  -17    3      0.81      0.00
    1  -17    3     -0.50      0.00
    2  -17    3      0.04      0.00
    3  -17    3     -0.71      0.00
    4  -17    3      0.65      0.00
    5  -17    3      0.80      0.00
    6  -17    3      1.53      0.00
    7  -17    3     -0.16      0.00
    8  -17    3     -0.65      0.00
    9  -17    3      0.67      0.00
   10  -17    3      0.64      0.00
   11  -17    3     -1.22      0.00
   12  -17    3     -0.41      0.00
   -6  -16    3     -0.31      0.00
   -5  -16    3     -0.80      0.00
   -4  -16    3     -1.77      0.00
   -3  -16    3      0.68      0.00
   -2  -16    3      0.73      0.00
   -1  -16    3      0.50      0.00
    0  -16    3      1.53      0.00
    1  -16    3     -1.54      0.00
    2  -16    3      0.03      0.00
    3  -16    3      2.46      0.00
    4  -16    3     -0.54      0.00
    5  -16    3     -0.92      0.00
    6  -16    3      0.39      0.00
    7  -16    3     -1.75      0.00
    8  -16    3      1.42      0.00
    9  -16    3      0.04      0.00
   10  -16    3     -2.41      0.00
   11  -16    3     -0.89      0.00
   12  -16    3      2.01      0.00
   13  -16    3      0.86      0.00
   -7  -15    3     -1.02      0.00
   -6  -15    3      1.51      0.00
   -5  -15    3     -1.22      0.00
   -4  -15    3     -1.47      0.00
   -3  -15    3     -0.63      0.00
   -2  -15    3     -0.76      0.00
   -1  -15    3     -1.16      0.00
    0  -15    3      2.03      0.00
    1  -15    3      0.12      0.00
    2  -15    3     -1.26      0.00
    3  -15    3     -0.24      0.00
    4  -15    3     -0.16      0.00
    5  -15    3      2.41      0.00
    6  -15    3     -0.18      0.00
    7  -15    3     -0.04      0.00
    8  -15    3      1.72      0.00
    9  -15    3     -0.49      0.00
   10  -15    3      2.07      0.00
   11  -15    3     -0.04      0.00
   12  -15    3     -2.02      0.00
   13  -15    3     -0.56      0.00
   -8  -14    3     -0.41      0.00
   -7  -14    3     -0.44      0.00
   -6  -14    3      2.44      0.00
   -5  -14    3     -2.47      0.00
   -4  -14    3     -1.67      0.00
   -3  -14    3      1.08      0.00
   -2  -14    3     -1.26      0.00
   -1  -14    3      0.82      0.00
    0  -14    3     -2.55      0.00
    1  -14    3      0.05      0.00
    2  -14    3      0.46      0.00
    3  -14    3      1.11      0.00
    4  -14    3      0.82      0.00
    5  -14    3     -1.62      0.00
    6  -14    3     -1.21      0.00
    7  -14    3     -0.73      0.00
    8  -14    3      2.22      0.00
    9  -14    3     -1.13      0.00
   10  -14    3     -1.09      0.00
   11  -14    3      1.46      0.00
   12  -14    3     -1.24      0.00
   13  -14    3      0.68      0.00
   14  -14    3     -0.08      0.00
   -9  -13    3     -0.31      0.00
   -8  -13    3     -1.43      0.00
   -7  -13    3      0.94      0.00
   -6  -13    3      1.49      0.00
   -5  -13    3     -2.05      0.00
   -4  -13    3      0.14      0.00
   -3  -13    3     -2.53      0.00
   -2  -13    3     -0.46      0.00
   -1  -13    3     -1.42      0.00
    0  -13    3     -0.50      0.00
    1  -13    3     -0.10      0.00
    2  -13    3     -2.35      0.00
    3  -13    3      1.09      0.00
    4  -13    3      1.81      0.00
    5  -13    3      1.19      0.00
    6  -13    3     -1.54      0.00
    7  -13    3     -2.99      0.00
    8  -13    3      0.78      0.00
    9  -13    3      2.17      0.00
   10  -13    3      0.95      0.00
   11  -13    3     -0.57      0.00
   12  -13    3     -1.16      0.00
   13  -13    3      0.38      0.00
   14  -13    3      1.10      0.00
  -10  -12    3     -0.98      0.00
   -9  -12    3      0.73      0.00
   -8  -12    3     -0.80      0.00
   -7  -12    3      0.39      0.00
   -6  -12    3      0.00      0.00
   -5  -12    3     -2.16      0.00
   -4  -12    3     -0.52      0.00
   -3  -12    3     -0.52      0.00
   -2  -12    3      0.78      0.00
   -1  -12    3     -2.42      0.00
    0  -12    3     -2.46      0.00
    1  -12    3      1.66      0.00
    2  -12    3     -1.18      0.00
    3  -12    3      1.30      0.00
    4  -12    3     -0.99      0.00
    5  -12    3      2.12      0.00
    6  -12    3      0.65      0.00
    7  -12    3     -0.90      0.00
    8  -12    3      0.96      0.00
    9  -12    3      0.30      0.00
   10  -12    3      1.22      0.00
   11  -12    3      0.22      0.00
   12  -12    3     -1.35      0.00
   13  -12    3      1.04      0.00
   14  -12    3     -1.49      0.00
   15  -12    3     -0.05      0.00
  -11  -11    3     -2.41      0.00
  -10  -11    3     -0.17      0.00
   -9  -11    3      0.86      0.00
   -8  -11    3     -2.98      0.00
   -7  -11    3      1.18      0.00
   -6  -11    3      0.94      0.00
   -5  -11    3      0.06      0.00
   -4  -11    3     -2.32      0.00
   -3  -11    3     -3.58      0.00
   -2  -11    3      1.75      0.00
   -1  -11    3     -3.96      0.00
    0  -11    3     -4.70      0.00
    1  -11    3     -0.69      0.00
    2  -11    3     -2.56      0.00
    3  -11    3      0.11      0.00
    4  -11    3      1.42      0.00
    5  -11    3     -0.32      0.00
    6  -11    3     -1.36      0.00
    7  -11    3     -5.47      0.00
    8  -11    3      2.47      0.00
    9  -11    3      1.78      0.00
   10  -11    3     -1.30      0.00
   11  -11    3     -1.15      0.00
   12  -11    3      0.10      0.00
   13  -11    3      0.66      0.00
   14  -11    3     -0.28      0.00
   15  -11    3      0.34      0.00
  -11  -10    3      0.63      0.00
  -10  -10    3     -0.02      0.00
   -9  -10    3     -1.39      0.00
   -8  -10    3      1.30      0.00
   -7  -10    3     -1.75      0.00
   -6  -10    3      2.00      0.00
   -5  -10    3     -0.58      0.00
   -4  -10    3     -4.48      0.00
   -3  -10    3      0.20      0.00
   -2  -10    3      1.09      0.00
   -1  -10    3     -4.59      0.00
    0  -10    3     -0.50      0.00
    1  -10    3     -2.87      0.00
    2  -10    3      2.80      0.00
    3  -10    3      1.14      0.00
    4  -10    3     -0.48      0.00
    5  -10    3      2.45      0.00
    6  -10    3     -0.47      0.00
    7  -10    3     -1.88      0.00
    8  -10    3     -1.08      0.00
    9  -10    3      2.08      0.00
   10  -10    3      0.11      0.00
   11  -10    3     -0.74      0.00
   12  -10    3      1.56      0.00
   13  -10    3      1.20      0.00
   14  -10    3     -0.17      0.00
   15  -10    3     -1.83      0.00
  -12   -9    3     -1.21      0.00
  -11   -9    3     -0.33      0.00
  -10   -9    3     -1.41      0.00
   -9   -9    3     -0.82      0.00
   -8   -9    3      0.89      0.00
   -7   -9    3     -1.69      0.00
   -6   -9    3      1.21      0.00
   -5   -9    3      3.09      0.00
   -4   -9    3     -4.98      0.00
   -3   -9    3     -0.70      0.00
   -2   -9    3     -1.04      0.00
   -1   -9    3     -4.12      0.00
    0   -9    3     -4.54      0.00
    1   -9    3     -6.58      0.00
    2   -9    3     -4.03      0.00
    3   -9    3      1.74      0.00
    4   -9    3      3.08      0.00
    5   -9    3     -2.59      0.00
    6   -9    3     -4.24      0.00
    7   -9    3      0.43      0.00
    8   -9    3      4.45      0.00
    9   -9    3     -1.35      0.00
   10   -9    3     -1.50      0.00
   11   -9    3     -1.45      0.00
   12   -9    3      1.99      0.00
   13   -9    3     -0.57      0.00
   14   -9    3      0.06      0.00
   15   -9    3      4.47      0.00
  -13   -8    3     -2.18      0.00
  -12   -8    3      3.08      0.00
  -11   -8    3     -0.27      0.00
  -10   -8    3     -1.55      0.00
   -9   -8    3     -0.12      0.00
   -8   -8    3     -0.03      0.00
   -7   -8    3     -1.83      0.00
   -6   -8    3      4.23      0.00
   -5   -8    3      0.85      0.00
   -4   -8    3     -4.31      0.00
   -3   -8    3      3.20      0.00
   -2   -8    3     -7.38      0.00
   -1   -8    3     -6.69      0.00
    0   -8    3     -1.28      0.00
    1   -8    3     -4.32      0.00
    2   -8    3      0.48      0.00
    3   -8    3     -2.48      0.00
    4   -8    3      3.76      0.00
    5   -8    3     -2.22      0.00
    6   -8    3     -4.19      0.00
    7   -8    3     -0.61      0.00
    8   -8    3     -0.30      0.00
    9   -8    3     -0.40      0.00
   10   -8    3      0.84      0.00
   11   -8    3     -2.21      0.00
   12   -8    3      4.26      0.00
   13   -8    3     -0.26      0.00
   14   -8    3      0.98      0.00
   15   -8    3     -1.43      0.00
  -13   -7    3      0.36      0.00
  -12   -7    3     -1.33      0.00
  -11   -7    3     -0.46      0.00
  -10   -7    3     -0.21      0.00
   -9   -7    3      0.77      0.00
   -8   -7    3     -2.32      0.00
   -7   -7    3      1.52      0.00
   -6   -7    3      4.18      0.00
   -5   -7    3     -4.93      0.00
   -4   -7    3      5.45      0.00
   -3   -7    3     -0.70      0.00
   -2   -7    3     -4.15      0.00
   -1   -7    3      5.49      0.00
    0   -7    3    -17.00      0.00
    1   -7    3      2.66      0.00
    2   -7    3     -0.05      0.00
    3   -7    3      0.97      0.00
    4   -7    3     10.51      0.00
    5   -7    3    -11.04      0.00
    6   -7    3     -2.38      0.00
    7   -7    3      5.68      0.00
    8   -7    3     -0.77      0.00
    9   -7    3     -3.27      0.00
   10   -7    3      2.64      0.00
   11   -7    3     -2.06      0.00
   12   -7    3     -0.29      0.00
   13   -7    3      2.60      0.00
   14   -7    3     -0.75      0.00
   15   -7    3      2.29      0.00
  -14   -6    3     -1.23      0.00
  -13   -6    3     -0.40      0.00
  -12   -6    3     -0.13      0.00
  -11   -6    3     -0.75      0.00
  -10   -6    3      0.70      0.00
   -9   -6    3     -4.25      0.00
   -8   -6    3      2.81      0.00
   -7   -6    3      0.64      0.00
   -6   -6    3     -4.19      0.00
   -5   -6    3      3.60      0.00
   -4   -6    3      5.14      0.00
   -3   -6    3     -1.57      0.00
   -2   -6    3    -11.08      0.00
   -1   -6    3    -11.48      0.00
    0   -6    3    -13.38      0.00
    1   -6    3      0.76      0.00
    2   -6    3    -10.51      0.00
    3   -6    3     -8.21      0.00
    4   -6    3     17.68      0.00
    5   -6    3    -15.64      0.00
    6   -6    3      0.81      0.00
    7   -6    3      4.49      0.00
    8   -6    3     -2.29      0.00
    9   -6    3      1.47      0.00
   10   -6    3     -1.92      0.00
   11   -6    3     -0.93      0.00
   12   -6    3      2.70      0.00
   13   -6    3     -2.82      0.00
   14   -6    3      0.74      0.00
   15   -6    3      2.48      0.00
  -14   -5    3     -0.46      0.00
  -13   -5    3     -2.14      0.00
  -12   -5    3     -0.14      0.00
  -11   -5    3     -0.20      0.00
  -10   -5    3     -1.94      0.00
   -9   -5    3      0.76      0.00
   -8   -5    3      0.73      0.00
   -7   -5    3      0.83      0.00
   -6   -5    3      1.56      0.00
   -5   -5    3     -1.48      0.00
   -4   -5    3      1.03      0.00
   -3   -5    3     -2.62      0.00
   -2   -5    3     23.38      0.00
   -1   -5    3     -8.78      0.00
    0   -5    3    -24.14      0.00
    1   -5    3     32.44      0.00
    2   -5    3     -7.99      0.00
    3   -5    3     14.63      0.00
    4   -5    3      5.23      0.00
    5   -5    3    -18.57      0.00
    6   -5    3      5.63      0.00
    7   -5    3      2.54      0.00
    8   -5    3     -3.19      0.00
    9   -5    3      1.55      0.00
   10   -5    3     -1.04      0.00
   11   -5    3      0.00      0.00
   12   -5    3      2.11      0.00
   13   -5    3     -0.51      0.00
   14   -5    3     -1.94      0.00
   15   -5    3     -1.22      0.00
  -15   -4    3     -0.80      0.00
  -14   -4    3      0.94      0.00
  -13   -4    3     -0.60      0.00
  -12   -4    3     -0.34      0.00
  -11   -4    3     -1.65      0.00
  -10   -4    3      0.02      0.00
   -9   -4    3     -1.31      0.00
   -8   -4    3      0.72      0.00
   -7   -4    3      0.40      0.00
   -6   -4    3     -5.98      0.00
   -5   -4    3      7.30      0.00
   -4   -4    3      3.13      0.00
   -3   -4    3     -3.81      0.00
   -2   -4    3     -9.91      0.00
   -1   -4    3    -18.99      0.00
    0   -4    3     -7.98      0.00
    1   -4    3    -21.38      0.00
    2   -4    3    -10.67      0.00
    3   -4    3     19.71      0.00
    4   -4    3     -5.73      0.00
    5   -4    3     -7.42      0.00
    6   -4    3      7.59      0.00
    7   -4    3     -7.67      0.00
    8   -4    3      7.84      0.00
    9   -4    3     -1.45      0.00
   10   -4    3     -1.05      0.00
   11   -4    3     -2.33      0.00
   12   -4    3     -0.14      0.00
   13   -4    3      0.75      0.00
   14   -4    3      0.36      0.00
   15   -4    3     -3.76      0.00
  -15   -3    3      0.50      0.00
  -14   -3    3     -2.09      0.00
  -13   -3    3     -0.56      0.00
  -12   -3    3      0.80      0.00
  -11   -3    3      0.72      0.00
  -10   -3    3     -3.25      0.00
   -9   -3    3     -2.80      0.00
   -8   -3    3      4.00      0.00
   -7   -3    3     -0.04      0.00
   -6   -3    3      0.53      0.00
   -5   -3    3     -8.43      0.00
   -4   -3    3      4.12      0.00
   -3   -3    3     19.40      0.00
   -2   -3    3     -0.87      0.00
   -1   -3    3      5.25      0.00
    0   -3    3     -0.39      0.00
    1   -3    3    -15.76      0.00
    2   -3    3     45.25      0.00
    3   -3    3    -14.36      0.00
    4   -3    3      1.15      0.00
    5   -3    3     10.38      0.00
    6   -3    3    -13.67      0.00
    7   -3    3      1.34      0.00
    8   -3    3      4.01      0.00
    9   -3    3     -2.86      0.00
   10   -3    3      2.11      0.00
   11   -3    3     -0.58      0.00
   12   -3    3     -0.50      0.00
   13   -3    3      3.16      0.00
   14   -3    3     -0.84      0.00
   15   -3    3     -2.26      0.00
  -15   -2    3     -0.35      0.00
  -14   -2    3     -0.06      0.00
  -13   -2    3      0.11      0.00
  -12   -2    3     -1.72      0.00
  -11   -2    3      1.32      0.00
  -10   -2    3      0.07      0.00
   -9   -2    3     -0.35      0.00
   -8   -2    3      0.04      0.00
   -7   -2    3      1.74      0.00
   -6   -2    3     -4.81      0.00
   -5   -2    3      0.89      0.00
   -4   -2    3      5.84      0.00
   -3   -2    3    -15.19      0.00
   -2   -2    3     13.66      0.00
   -1   -2    3     29.71      0.00
    0   -2    3    -55.10      0.00
    1   -2    3     -6.17      0.00
    2   -2    3     28.67      0.00
    3   -2    3    -14.56      0.00
    4   -2    3     -1.20      0.00
    5   -2    3      7.60      0.00
    6   -2    3     -8.72      0.00
    7   -2    3      5.63      0.00
    8   -2    3     -0.45      0.00
    9   -2    3     -0.95      0.00
   10   -2    3      1.69      0.00
   11   -2    3     -2.33      0.00
   12   -2    3     -0.88      0.00
   13   -2    3      1.18      0.00
   14   -2    3      1.68      0.00
   15   -2    3     -2.02      0.00
  -16   -1    3     -0.60      0.00
  -15   -1    3     -2.76      0.00
  -14   -1    3      1.09      0.00
  -13   -1    3     -0.59      0.00
  -12   -1    3     -1.62      0.00
  -11   -1    3      1.46      0.00
  -10   -1    3     -3.00      0.00
   -9   -1    3      0.77      0.00
   -8   -1    3     -1.31      0.00
   -7   -1    3      2.70      0.00
   -6   -1    3      0.78      0.00
   -5   -1    3    -12.49      0.00
   -4   -1    3      7.96      0.00
   -3   -1    3      7.16      0.00
   -2   -1    3     -3.27      0.00
   -1   -1    3     -3.84      0.00
    0   -1    3     -4.22      0.00
    1   -1    3      8.19      0.00
    2   -1    3     -0.73      0.00
    3   -1    3     14.93      0.00
    4   -1    3      6.57      0.00
    5   -1    3    -17.64      0.00
    6   -1    3     16.79      0.00
    7   -1    3    -11.58      0.00
    8   -1    3     -0.38      0.00
    9   -1    3      4.48      0.00
   10   -1    3      0.82      0.00
   11   -1    3     -0.29      0.00
   12   -1    3     -0.11      0.00
   13   -1    3      0.07      0.00
   14   -1    3      1.62      0.00
   15   -1    3     -0.37      0.00
  -16    0    3     -0.79      0.00
  -15    0    3      0.28      0.00
  -14    0    3      1.19      0.00
  -13    0    3     -1.49      0.00
  -12    0    3     -0.87      0.00
  -11    0    3      2.45      0.00
  -10    0    3     -0.52      0.00
   -9    0    3      1.29      0.00
   -8    0    3     -3.96      0.00
   -7    0    3      3.53      0.00
   -6    0    3     -0.77      0.00
   -5    0    3      1.59      0.00
   -4    0    3     -6.35      0.00
   -3    0    3     -2.44      0.00
   -2    0    3     31.91      0.00
   -1    0    3     32.62      0.00
    0    0    3     13.52      0.00
    1    0    3    -53.94      0.00
    2    0    3     37.07      0.00
    3    0    3      2.48      0.00
    4    0    3    -16.73      0.00
    5    0    3      5.60      0.00
    6    0    3      2.12      0.00
    7    0    3     -1.14      0.00
    8    0    3      1.45      0.00
    9    0    3     -2.09      0.00
   10    0    3      0.33      0.00
   11    0    3      1.25      0.00
   12    0    3     -0.34      0.00
   13    0    3      2.12      0.00
   14    0    3      1.32      0.00
  -16    1    3     -1.40      0.00
  -15    1    3     -0.39      0.00
  -14    1    3      0.92      0.00
  -13    1    3      1.90      0.00
  -12    1    3     -3.90      0.00
  -11    1    3     -1.05      0.00
  -10    1    3      1.93      0.00
   -9    1    3      1.37      0.00
   -8    1    3     -0.25      0.00
   -7    1    3     -1.22      0.00
   -6    1    3     -3.91      0.00
   -5    1    3      4.90      0.00
   -4    1    3     -5.95      0.00
   -3    1    3     -6.12      0.00
   -2    1    3    -15.02      0.00
   -1    1    3      9.17      0.00
    0    1    3    -14.24      0.00
    1    1    3     25.56      0.00
    2    1    3     -6.46      0.00
    3    1    3      2.83      0.00
    4    1    3     13.85      0.00
    5    1    3    -12.59      0.00
    6    1    3     -0.26      0.00
    7    1    3      1.19      0.00
    8    1    3      2.28      0.00
    9    1    3     -2.83      0.00
   10    1    3      4.45      0.00
   11    1    3      0.76      0.00
   12    1    3     -1.16      0.00
   13    1    3      2.08      0.00
   14    1    3      0.35      0.00
  -16    2    3     -2.34      0.00
  -15    2    3     -2.60      0.00
  -14    2    3      1.30      0.00
  -13    2    3      1.46      0.00
  -12    2    3     -0.37      0.00
  -11    2    3      0.68      0.00
  -10    2    3     -0.14      0.00
   -9    2    3     -0.87      0.00
   -8    2    3      1.08      0.00
   -7    2    3      5.83      0.00
   -6    2    3    -13.35      0.00
   -5    2    3      3.23      0.00
   -4    2    3     10.01      0.00
   -3    2    3     -5.87      0.00
   -2    2    3     16.76      0.00
   -1    2    3     37.26      0.00
    0    2    3      2.77      0.00
    1    2    3    -19.77      0.00
    2    2    3     18.85      0.00
    3    2    3     -2.24      0.00
    4    2    3     -5.13      0.00
    5    2    3      3.85      0.00
    6    2    3      1.11      0.00
    7    2    3     -3.10      0.00
    8    2    3      0.69      0.00
    9    2    3     -2.08      0.00
   10    2    3      2.03      0.00
   11    2    3     -1.39      0.00
   12    2    3      1.00      0.00
   13    2    3      2.15      0.00
   14    2    3     -3.76      0.00
  -16    3    3     -1.11      0.00
  -15    3    3     -0.10      0.00
  -14    3    3      2.56      0.00
  -13    3    3      1.26      0.00
  -12    3    3     -1.39      0.00
  -11    3    3      0.64      0.00
  -10    3    3      0.18      0.00
   -9    3    3      0.32      0.00
   -8    3    3      3.72      0.00
   -7    3    3      0.83      0.00
   -6    3    3     -2.71      0.00
   -5    3    3     -3.48      0.00
   -4    3    3     -0.63      0.00
   -3    3    3     -6.43      0.00
   -2    3    3    -20.88      0.00
   -1    3    3     22.12      0.00
    0    3    3     -2.27      0.00
    1    3    3      4.14      0.00
    2    3    3      4.83      0.00
    3    3    3     -2.75      0.00
    4    3    3      5.68      0.00
    5    3    3     -5.66      0.00
    6    3    3      2.65      0.00
    7    3    3      0.20      0.00
    8    3    3      0.88      0.00
    9    3    3      1.56      0.00
   10    3    3      0.35      0.00
   11    3    3     -1.61      0.00
   12    3    3     -0.70      0.00
   13    3    3      3.83      0.00
  -16    4    3     -3.63      0.00
  -15    4    3     -0.86      0.00
  -14    4    3      1.41      0.00
  -13    4    3     -1.20      0.00
  -12    4    3      1.40      0.00
  -11    4    3      2.20      0.00
  -10    4    3     -2.07      0.00
   -9    4    3     -1.90      0.00
   -8    4    3      5.06      0.00
   -7    4    3     -2.62      0.00
   -6    4    3      1.29      0.00
   -5    4    3      1.37      0.00
   -4    4    3     -6.74      0.00
   -3    4    3      8.19      0.00
   -2    4    3     12.54      0.00
   -1    4    3      1.29      0.00
    0    4    3      3.94      0.00
    1    4    3      8.58      0.00
    2    4    3     -1.40      0.00
    3    4    3      2.98      0.00
    4    4    3     -0.49      0.00
    5    4    3      0.11      0.00
    6    4    3     -0.13      0.00
    7    4    3     -0.30      0.00
    8    4    3     -0.62      0.00
    9    4    3      0.35      0.00
   10    4    3      1.99      0.00
   11    4    3     -0.22      0.00
   12    4    3     -0.81      0.00
   13    4    3     -2.72      0.00
  -16    5    3     -1.93      0.00
  -15    5    3      0.95      0.00
  -14    5    3     -0.04      0.00
  -13    5    3      1.21      0.00
  -12    5    3     -0.44      0.00
  -11    5    3      0.76      0.00
  -10    5    3      2.22      0.00
   -9    5    3     -1.06      0.00
   -8    5    3      1.32      0.00
   -7    5    3      2.24      0.00
   -6    5    3     -0.90      0.00
   -5    5    3      2.80      0.00
   -4    5    3     -5.51      0.00
   -3    5    3     -5.67      0.00
   -2    5    3     -0.15      0.00
   -1    5    3     10.64      0.00
    0    5    3      0.67      0.00
    1    5    3     -0.16      0.00
    2    5    3      2.19      0.00
    3    5    3      1.22      0.00
    4    5    3      1.14      0.00
    5    5    3      0.14      0.00
    6    5    3      0.34      0.00
    7    5    3     -0.12      0.00
    8    5    3      1.14      0.00
    9    5    3      0.48      0.00
   10    5    3      1.05      0.00
   11    5    3     -2.28      0.00
   12    5    3     -2.17      0.00
  -16    6    3     -3.32      0.00
  -15    6    3      0.78      0.00
  -14    6    3      2.05      0.00
  -13    6    3      1.26      0.00
  -12    6    3     -0.16      0.00
  -11    6    3      0.28      0.00
  -10    6    3      1.47      0.00
   -9    6    3     -2.97      0.00
   -8    6    3      1.10      0.00
   -7    6    3      1.08      0.00
   -6    6    3      0.30      0.00
   -5    6    3     -3.53      0.00
   -4    6    3     -2.23      0.00
   -3    6    3      2.55      0.00
   -2    6    3      0.84      0.00
   -1    6    3      3.17      0.00
    0    6    3      1.62      0.00
    1    6    3      8.99      0.00
    2    6    3     -0.91      0.00
    3    6    3      1.27      0.00
    4    6    3     -0.10      0.00
    5    6    3      0.90      0.00
    6    6    3     -1.29      0.00
    7    6    3      0.30      0.00
    8    6    3     -0.97      0.00
    9    6    3      0.76      0.00
   10    6    3      2.57      0.00
   11    6    3     -0.20      0.00
  -16    7    3     -1.19      0.00
  -15    7    3      0.36      0.00
  -14    7    3      0.51      0.00
  -13    7    3      0.97      0.00
  -12    7    3     -0.85      0.00
  -11    7    3     -0.07      0.00
  -10    7    3      5.33      0.00
   -9    7    3     -2.19      0.00
   -8    7    3     -2.12      0.00
   -7    7    3      6.50      0.00
   -6    7    3      1.38      0.00
   -5    7    3     -1.97      0.00
   -4    7    3     -0.60      0.00
   -3    7    3     -4.15      0.00
   -2    7    3      6.69      0.00
   -1    7    3      1.23      0.00
    0    7    3      0.08      0.00
    1    7    3      2.17      0.00
    2    7    3     -0.46      0.00
    3    7    3      2.49      0.00
    4    7    3      2.84      0.00
    5    7    3     -1.47      0.00
    6    7    3      2.10      0.00
    7    7    3      1.11      0.00
    8    7    3     -2.03      0.00
    9    7    3      0.31      0.00
   10    7    3     -0.36      0.00
   11    7    3     -0.80      0.00
  -16    8    3     -2.43      0.00
  -15    8    3     -0.76      0.00
  -14    8    3      1.54      0.00
  -13    8    3      0.82      0.00
  -12    8    3     -0.29      0.00
  -11    8    3      0.03      0.00
  -10    8    3      0.01      0.00
   -9    8    3      0.77      0.00
   -8    8    3     -0.98      0.00
   -7    8    3      3.20      0.00
   -6    8    3     -0.24      0.00
   -5    8    3     -3.58      0.00
   -4    8    3     -0.61      0.00
   -3    8    3     -0.94      0.00
   -2    8    3     -0.60      0.00
   -1    8    3      0.06      0.00
    0    8    3      3.24      0.00
    1    8    3      3.89      0.00
    2    8    3     -3.08      0.00
    3    8    3      3.13      0.00
    4    8    3     -0.77      0.00
    5    8    3      0.51      0.00
    6    8    3      0.15      0.00
    7    8    3     -1.10      0.00
    8    8    3      0.54      0.00
    9    8    3      0.43      0.00
   10    8    3     -1.11      0.00
  -16    9    3      1.34      0.00
  -15    9    3      0.24      0.00
  -14    9    3      0.44      0.00
  -13    9    3      1.48      0.00
  -12    9    3      0.77      0.00
  -11    9    3      0.13      0.00
  -10    9    3      2.06      0.00
   -9    9    3     -1.81      0.00
   -8    9    3     -0.77      0.00
   -7    9    3      4.96      0.00
   -6    9    3      1.27      0.00
   -5    9    3     -2.93      0.00
   -4    9    3     -2.04      0.00
   -3    9    3      2.77      0.00
   -2    9    3      1.16      0.00
   -1    9    3     -2.06      0.00
    0    9    3      0.79      0.00
    1    9    3     -1.14      0.00
    2    9    3      5.68      0.00
    3    9    3     -1.38      0.00
    4    9    3     -1.73      0.00
    5    9    3      2.36      0.00
    6    9    3      0.29      0.00
    7    9    3     -0.74      0.00
    8    9    3     -0.30      0.00
    9    9    3      0.22      0.00
  -15   10    3     -1.55      0.00
  -14   10    3     -0.01      0.00
  -13   10    3     -0.35      0.00
  -12   10    3     -1.48      0.00
  -11   10    3     -1.57      0.00
  -10   10    3      1.52      0.00
   -9   10    3      0.41      0.00
   -8   10    3      0.32      0.00
   -7   10    3      1.98      0.00
   -6   10    3      1.87      0.00
   -5   10    3     -0.58      0.00
   -4   10    3     -3.28      0.00
   -3   10    3     -0.83      0.00
   -2   10    3      0.33      0.00
   -1   10    3      1.98      0.00
    0   10    3     -1.09      0.00
    1   10    3     -0.38      0.00
    2   10    3      1.36      0.00
    3   10    3     -0.50      0.00
    4   10    3      2.15      0.00
    5   10    3      0.27      0.00
    6   10    3      0.03      0.00
    7   10    3      0.96      0.00
    8   10    3     -1.05      0.00
  -15   11    3     -0.05      0.00
  -14   11    3      0.56      0.00
  -13   11    3      1.36      0.00
  -12   11    3     -0.35      0.00
  -11   11    3     -0.54      0.00
  -10   11    3      0.88      0.00
   -9   11    3     -0.53      0.00
   -8   11    3     -1.66      0.00
   -7   11    3      2.94      0.00
   -6   11    3     -0.57      0.00
   -5   11    3     -0.69      0.00
   -4   11    3      0.95      0.00
   -3   11    3     -1.34      0.00
   -2   11    3      1.04      0.00
   -1   11    3     -1.65      0.00
    0   11    3     -0.71      0.00
    1   11    3      2.65      0.00
    2   11    3     -0.29      0.00
    3   11    3     -0.76      0.00
    4   11    3      0.43      0.00
    5   11    3      0.50      0.00
    6   11    3      0.10      0.00
    7   11    3     -1.33      0.00
  -14   12    3     -0.30      0.00
  -13   12    3     -0.63      0.00
  -12   12    3      0.58      0.00
  -11   12    3     -2.81      0.00
  -10   12    3      0.60      0.00
   -9   12    3      2.14      0.00
   -8   12    3     -0.24      0.00
   -7   12    3      2.63      0.00
   -6   12    3      0.58      0.00
   -5   12    3     -2.10      0.00
   -4   12    3     -1.12      0.00
   -3   12    3      0.39      0.00
   -2   12    3     -0.98      0.00
   -1   12    3      1.70      0.00
    0   12    3     -0.89      0.00
    1   12    3     -0.97      0.00
    2   12    3      2.04      0.00
    3   12    3     -0.24      0.00
    4   12    3      0.94      0.00
    5   12    3      0.28      0.00
    6   12    3     -0.24      0.00
  -13   13    3      0.78      0.00
  -12   13    3     -0.67      0.00
  -11   13    3     -2.31      0.00
  -10   13    3     -0.67      0.00
   -9   13    3      0.02      0.00
   -8   13    3     -3.73      0.00
   -7   13    3      3.79      0.00
   -6   13    3     -1.04      0.00
   -5   13    3     -1.20      0.00
   -4   13    3      2.53      0.00
   -3   13    3     -2.93      0.00
   -2   13    3      0.08      0.00
   -1   13    3     -1.56      0.00
    0   13    3      0.85      0.00
    1   13    3      0.63      0.00
    2   13    3     -1.31      0.00
    3   13    3      0.99      0.00
    4   13    3      0.11      0.00
    5   13    3      0.31      0.00
  -13   14    3      2.00      0.00
  -12   14    3      0.47      0.00
  -11   14    3     -0.37      0.00
  -10   14    3     -0.15      0.00
   -9   14    3      1.91      0.00
   -8   14    3     -0.41      0.00
   -7   14    3      1.97      0.00
   -6   14    3     -1.03      0.00
   -5   14    3     -0.46      0.00
   -4   14    3      0.00      0.00
   -3   14    3      0.04      0.00
   -2   14    3      0.96      0.00
   -1   14    3     -0.85      0.00
    0   14    3     -0.48      0.00
    1   14    3     -0.34      0.00
    2   14    3     -1.03      0.00
    3   14    3      0.62      0.00
    4   14    3     -0.79      0.00
  -11   15    3      0.61      0.00
  -10   15    3     -1.70      0.00
   -9   15    3     -0.84      0.00
   -8   15    3      0.50      0.00
   -7   15    3      0.00      0.00
   -6   15    3     -0.69      0.00
   -5   15    3      1.79      0.00
   -4   15    3     -0.05      0.00
   -3   15    3     -0.86      0.00
   -2   15    3     -0.84      0.00
   -1   15    3      0.42      0.00
    0   15    3      0.27      0.00
    1   15    3     -0.16      0.00
    2   15    3     -0.31      0.00
  -10   16    3     -2.67      0.00
   -9   16    3      3.43      0.00
   -8   16    3     -1.37      0.00
   -7   16    3     -0.35      0.00
   -6   16    3     -0.65      0.00
   -5   16    3     -0.54      0.00
   -4   16    3      0.81      0.00
   -3   16    3      1.52      0.00
   -2   16    3      0.16      0.00
   -1   16    3     -0.91      0.00
    0   16    3     -0.40      0.00
   -7   17    3      1.04      0.00
   -6   17    3      0.64      0.00
   -5   17    3      0.17      0.00
   -4   17    3      0.92      0.00
    2  -20    4     -0.68      0.00
    3  -20    4      0.41      0.00
    4  -20    4      0.28      0.00
    5  -20    4     -0.55      0.00
    6  -20    4     -0.79      0.00
   -1  -19    4     -0.48      0.00
    0  -19    4      0.67      0.00
    1  -19    4      0.28      0.00
    2  -19    4      0.10      0.00
    3  -19    4     -1.36      0.00
    4  -19    4     -0.04      0.00
    5  -19    4     -0.67      0.00
    6  -19    4     -0.68      0.00
    7  -19    4     -1.28      0.00
    8  -19    4     -0.18      0.00
    9  -19    4      1.74      0.00
   -3  -18    4      0.56      0.00
   -2  -18    4      0.60      0.00
   -1  -18    4     -2.77      0.00
    0  -18    4      0.38      0.00
    1  -18    4      0.65      0.00
    2  -18    4      0.14      0.00
    3  -18    4     -0.60      0.00
    4  -18    4      0.02      0.00
    5  -18    4      0.21      0.00
    6  -18    4     -0.14      0.00
    7  -18    4     -0.47      0.00
    8  -18    4      1.18      0.00
    9  -18    4      1.37      0.00
   10  -18    4      1.24      0.00
   11  -18    4     -1.10      0.00
   -5  -17    4      1.05      0.00
   -4  -17    4     -2.06      0.00
   -3  -17    4      4.64      0.00
   -2  -17    4     -1.16      0.00
   -1  -17    4     -1.84      0.00
    0  -17    4      0.36      0.00
    1  -17    4     -0.16      0.00
    2  -17    4      0.95      0.00
    3  -17    4     -0.40      0.00
    4  -17    4     -0.75      0.00
    5  -17    4     -0.85      0.00
    6  -17    4     -1.29      0.00
    7  -17    4     -1.01      0.00
    8  -17    4      0.15      0.00
    9  -17    4     -1.19      0.00
   10  -17    4     -0.56      0.00
   11  -17    4      2.58      0.00
   12  -17    4      0.31      0.00
   -6  -16    4      0.94      0.00
   -5  -16    4      1.13      0.00
   -4  -16    4     -1.55      0.00
   -3  -16    4      1.68      0.00
   -2  -16    4     -0.09      0.00
   -1  -16    4     -0.05      0.00
    0  -16    4      0.64      0.00
    1  -16    4      1.16      0.00
    2  -16    4     -0.50      0.00
    3  -16    4     -1.12      0.00
    4  -16    4      1.00      0.00
    5  -16    4      1.05      0.00
    6  -16    4     -0.64      0.00
    7  -16    4      0.83      0.00
    8  -16    4      0.81      0.00
    9  -16    4      0.18      0.00
   10  -16    4     -0.19      0.00
   11  -16    4      0.10      0.00
   12  -16    4     -0.45      0.00
   13  -16    4     -0.49      0.00
   -7  -15    4      0.43      0.00
   -6  -15    4      0.21      0.00
   -5  -15    4     -1.13      0.00
   -4  -15    4      3.04      0.00
   -3  -15    4      3.04      0.00
   -2  -15    4      0.01      0.00
   -1  -15    4     -0.71      0.00
    0  -15    4     -1.20      0.00
    1  -15    4      3.30      0.00
    2  -15    4      0.36      0.00
    3  -15    4     -1.09      0.00
    4  -15    4     -1.38      0.00
    5  -15    4     -0.41      0.00
    6  -15    4      0.60      0.00
    7  -15    4     -0.45      0.00
    8  -15    4     -1.23      0.00
    9  -15    4     -1.11      0.00
   10  -15    4      0.66      0.00
   11  -15    4     -0.29      0.00
   12  -15    4      1.13      0.00
   13  -15    4      0.57      0.00
   -8  -14    4     -1.19      0.00
   -7  -14    4      0.75      0.00
   -6  -14    4      0.03      0.00
   -5  -14    4     -1.21      0.00
   -4  -14    4      1.87      0.00
   -3  -14    4     -0.39      0.00
   -2  -14    4      2.74      0.00
   -1  -14    4      0.20      0.00
    0  -14    4      0.33      0.00
    1  -14    4      2.77      0.00
    2  -14    4     -1.39      0.00
    3  -14    4      1.20      0.00
    4  -14    4     -0.83      0.00
    5  -14    4     -0.77      0.00
    6  -14    4      1.23      0.00
    7  -14    4     -0.57      0.00
    8  -14    4     -0.11      0.00
    9  -14    4     -0.29      0.00
   10  -14    4      0.35      0.00
   11  -14    4     -1.37      0.00
   12  -14    4      0.56      0.00
   13  -14    4      1.26      0.00
   14  -14    4     -0.01      0.00
   -9  -13    4      0.38      0.00
   -8  -13    4      1.35      0.00
   -7  -13    4     -2.27      0.00
   -6  -13    4     -1.66      0.00
   -5  -13    4      2.08      0.00
   -4  -13    4      0.89      0.00
   -3  -13    4      1.84      0.00
   -2  -13    4      2.04      0.00
   -1  -13    4     -0.35      0.00
    0  -13    4      2.26      0.00
    1  -13    4      3.96      0.00
    2  -13    4      0.34      0.00
    3  -13    4     -0.66      0.00
    4  -13    4     -2.65      0.00
    5  -13    4      1.09      0.00
    6  -13    4      3.66      0.00
    7  -13    4      0.45      0.00
    8  -13    4     -1.00      0.00
    9  -13    4     -1.55      0.00
   10  -13    4      1.04      0.00
   11  -13    4     -0.66      0.00
   12  -13    4      1.89      0.00
   13  -13    4     -1.40      0.00
   14  -13    4      1.93      0.00
  -10  -12    4     -0.22      0.00
   -9  -12    4      1.74      0.00
   -8  -12    4     -0.69      0.00
   -7  -12    4      0.78      0.00
   -6  -12    4     -0.74      0.00
   -5  -12    4     -0.16      0.00
   -4  -12    4      0.89      0.00
   -3  -12    4      0.40      0.00
   -2  -12    4      3.62      0.00
   -1  -12    4     -1.76      0.00
    0  -12    4      1.44      0.00
    1  -12    4      1.25      0.00
    2  -12    4      1.29      0.00
    3  -12    4      1.70      0.00
    4  -12    4     -3.91      0.00
    5  -12    4     -0.48      0.00
    6  -12    4     -0.10      0.00
    7  -12    4      2.23      0.00
    8  -12    4     -0.08      0.00
    9  -12    4     -2.28      0.00
   10  -12    4      0.32      0.00
   11  -12    4      0.90      0.00
   12  -12    4      0.50      0.00
   13  -12    4     -0.74      0.00
   14  -12    4     -0.08      0.00
   15  -12    4      3.21      0.00
  -11  -11    4      2.58      0.00
  -10  -11    4      1.69      0.00
   -9  -11    4     -1.48      0.00
   -8  -11    4      3.01      0.00
   -7  -11    4     -2.11      0.00
   -6  -11    4     -1.80      0.00
   -5  -11    4      3.14      0.00
   -4  -11    4     -1.71      0.00
   -3  -11    4      1.55      0.00
   -2  -11    4      1.59      0.00
   -1  -11    4      3.37      0.00
    0  -11    4      5.67      0.00
    1  -11    4      2.46      0.00
    2  -11    4      1.01      0.00
    3  -11    4      1.37      0.00
    4  -11    4     -0.16      0.00
    5  -11    4     -0.92      0.00
    6  -11    4      1.26      0.00
    7  -11    4      3.69      0.00
    8  -11    4     -2.28      0.00
    9  -11    4     -1.75      0.00
   10  -11    4      1.70      0.00
   11  -11    4     -0.55      0.00
   12  -11    4      0.16      0.00
   13  -11    4      0.07      0.00
   14  -11    4     -0.89      0.00
   15  -11    4      2.50      0.00
  -12  -10    4     -0.69      0.00
  -11  -10    4      1.28      0.00
  -10  -10    4     -0.56      0.00
   -9  -10    4      0.90      0.00
   -8  -10    4      0.49      0.00
   -7  -10    4     -1.16      0.00
   -6  -10    4     -0.27      0.00
   -5  -10    4      0.98      0.00
   -4  -10    4      0.75      0.00
   -3  -10    4      3.28      0.00
   -2  -10    4      0.39      0.00
   -1  -10    4      1.52      0.00
    0  -10    4      3.16      0.00
    1  -10    4     -0.86      0.00
    2  -10    4      1.93      0.00
    3  -10    4      1.12      0.00
    4  -10    4     -0.28      0.00
    5  -10    4     -3.43      0.00
    6  -10    4      4.30      0.00
    7  -10    4      4.97      0.00
    8  -10    4     -1.02      0.00
    9  -10    4     -2.73      0.00
   10  -10    4      2.54      0.00
   11  -10    4      0.59      0.00
   12  -10    4     -0.67      0.00
   13  -10    4     -3.36      0.00
   14  -10    4      2.31      0.00
   15  -10    4      4.12      0.00
  -12   -9    4      1.43      0.00
  -11   -9    4     -0.80      0.00
  -10   -9    4      1.33      0.00
   -9   -9    4      2.77      0.00
   -8   -9    4     -1.33      0.00
   -7   -9    4     -1.83      0.00
   -6   -9    4      0.47      0.00
   -5   -9    4     -1.74      0.00
   -4   -9    4      1.19      0.00
   -3   -9    4     -2.33      0.00
   -2   -9    4     -1.43      0.00
   -1   -9    4      8.15      0.00
    0   -9    4      6.19      0.00
    1   -9    4     -0.60      0.00
    2   -9    4      3.77      0.00
    3   -9    4     -1.14      0.00
    4   -9    4     -0.38      0.00
    5   -9    4     -3.99      0.00
    6   -9    4      4.07      0.00
    7   -9    4      1.82      0.00
    8   -9    4     -4.14      0.00
    9   -9    4      0.07      0.00
   10   -9    4      1.32      0.00
   11   -9    4      1.70      0.00
   12   -9    4     -2.43      0.00
   13   -9    4     -0.58      0.00
   14   -9    4     -2.48      0.00
   15   -9    4      0.04      0.00
  -13   -8    4     -0.73      0.00
  -12   -8    4      1.70      0.00
  -11   -8    4     -0.51      0.00
  -10   -8    4      1.01      0.00
   -9   -8    4      0.90      0.00
   -8   -8    4     -0.52      0.00
   -7   -8    4      0.98      0.00
   -6   -8    4     -3.78      0.00
   -5   -8    4     -1.17      0.00
   -4   -8    4      4.02      0.00
   -3   -8    4      1.58      0.00
   -2   -8    4      0.74      0.00
   -1   -8    4      9.25      0.00
    0   -8    4     -0.90      0.00
    1   -8    4      6.78      0.00
    2   -8    4      5.09      0.00
    3   -8    4     -5.27      0.00
    4   -8    4      5.28      0.00
    5   -8    4      0.36      0.00
    6   -8    4      1.35      0.00
    7   -8    4      1.79      0.00
    8   -8    4     -0.08      0.00
    9   -8    4     -1.74      0.00
   10   -8    4      2.63      0.00
   11   -8    4     -0.91      0.00
   12   -8    4      0.18      0.00
   13   -8    4      0.52      0.00
   14   -8    4     -2.25      0.00
   15   -8    4      2.77      0.00
  -14   -7    4      0.62      0.00
  -13   -7    4      2.08      0.00
  -12   -7    4     -1.00      0.00
  -11   -7    4      0.52      0.00
  -10   -7    4     -0.03      0.00
   -9   -7    4      1.26      0.00
   -8   -7    4     -0.69      0.00
   -7   -7    4      0.98      0.00
   -6   -7    4     -3.35      0.00
   -5   -7    4      1.21      0.00
   -4   -7    4      0.56      0.00
   -3   -7    4    -13.13      0.00
   -2   -7    4      4.49      0.00
   -1   -7    4     11.56      0.00
    0   -7    4    -12.20      0.00
    1   -7    4      4.89      0.00
    2   -7    4      0.74      0.00
    3   -7    4    -14.65      0.00
    4   -7    4      5.62      0.00
    5   -7    4      2.58      0.00
    6   -7    4     -0.96      0.00
    7   -7    4      2.11      0.00
    8   -7    4     -1.82      0.00
    9   -7    4      0.76      0.00
   10   -7    4     -0.65      0.00
   11   -7    4      0.99      0.00
   12   -7    4      0.22      0.00
   13   -7    4     -0.01      0.00
   14   -7    4     -2.23      0.00
   15   -7    4     -1.79      0.00
  -14   -6    4     -1.28      0.00
  -13   -6    4      1.23      0.00
  -12   -6    4      0.29      0.00
  -11   -6    4      0.21      0.00
  -10   -6    4      1.61      0.00
   -9   -6    4     -1.50      0.00
   -8   -6    4      3.58      0.00
   -7   -6    4     -2.92      0.00
   -6   -6    4     -2.07      0.00
   -5   -6    4      2.73      0.00
   -4   -6    4     -0.85      0.00
   -3   -6    4     -1.60      0.00
   -2   -6    4      4.56      0.00
   -1   -6    4      8.95      0.00
    0   -6    4     -0.98      0.00
    1   -6    4     28.87      0.00
    2   -6    4    -12.61      0.00
    3   -6    4     -2.90      0.00
    4   -6    4     10.01      0.00
    5   -6    4     -7.32      0.00
    6   -6    4      6.40      0.00
    7   -6    4     -3.49      0.00
    8   -6    4     -1.17      0.00
    9   -6    4      0.69      0.00
   10   -6    4      1.25      0.00
   11   -6    4     -1.89      0.00
   12   -6    4      3.52      0.00
   13   -6    4      1.92      0.00
   14   -6    4     -0.75      0.00
   15   -6    4     -0.62      0.00
  -14   -5    4      0.57      0.00
  -13   -5    4     -0.56      0.00
  -12   -5    4      0.35      0.00
  -11   -5    4      0.84      0.00
  -10   -5    4      2.51      0.00
   -9   -5    4     -1.64      0.00
   -8   -5    4     -0.66      0.00
   -7   -5    4      0.99      0.00
   -6   -5    4     -2.23      0.00
   -5   -5    4      7.03      0.00
   -4   -5    4     -7.10      0.00
   -3   -5    4     -8.24      0.00
   -2   -5    4      5.45      0.00
   -1   -5    4    -16.94      0.00
    0   -5    4     15.81      0.00
    1   -5    4    -18.68      0.00
    2   -5    4     -4.52      0.00
    3   -5    4     -6.19      0.00
    4   -5    4     -4.76      0.00
    5   -5    4     12.50      0.00
    6   -5    4     -5.89      0.00
    7   -5    4     -0.73      0.00
    8   -5    4      4.17      0.00
    9   -5    4     -2.14      0.00
   10   -5    4     -0.52      0.00
   11   -5    4     -0.08      0.00
   12   -5    4     -1.21      0.00
   13   -5    4      2.28      0.00
   14   -5    4     -0.65      0.00
   15   -5    4     -1.19      0.00
  -15   -4    4     -0.19      0.00
  -14   -4    4     -0.51      0.00
  -13   -4    4      1.01      0.00
  -12   -4    4     -2.10      0.00
  -11   -4    4      0.43      0.00
  -10   -4    4     -0.07      0.00
   -9   -4    4     -1.00      0.00
   -8   -4    4      5.41      0.00
   -7   -4    4     -5.18      0.00
   -6   -4    4      0.33      0.00
   -5   -4    4     -2.78      0.00
   -4   -4    4     10.72      0.00
   -3   -4    4     -2.45      0.00
   -2   -4    4    -21.26      0.00
   -1   -4    4     22.68      0.00
    0   -4    4      0.39      0.00
    1   -4    4      9.77      0.00
    2   -4    4      1.58      0.00
    3   -4    4     -9.36      0.00
    4   -4    4     -2.30      0.00
    5   -4    4     15.37      0.00
    6   -4    4    -10.44      0.00
    7   -4    4      0.13      0.00
    8   -4    4      0.98      0.00
    9   -4    4     -2.05      0.00
   10   -4    4      1.54      0.00
   11   -4    4      0.43      0.00
   12   -4    4      0.59      0.00
   13   -4    4      1.18      0.00
   14   -4    4      1.31      0.00
   15   -4    4      0.55      0.00
  -15   -3    4     -1.20      0.00
  -14   -3    4      0.99      0.00
  -13   -3    4      0.27      0.00
  -12   -3    4     -2.08      0.00
  -11   -3    4      2.51      0.00
  -10   -3    4     -0.01      0.00
   -9   -3    4     -0.83      0.00
   -8   -3    4      0.95      0.00
   -7   -3    4     -0.44      0.00
   -6   -3    4      5.51      0.00
   -5   -3    4     -7.92      0.00
   -4   -3    4      5.53      0.00
   -3   -3    4     -2.65      0.00
   -2   -3    4     -0.05      0.00
   -1   -3    4    -13.92      0.00
    0   -3    4     -0.67      0.00
    1   -3    4      6.66      0.00
    2   -3    4    -13.47      0.00
    3   -3    4    -11.38      0.00
    4   -3    4      1.15      0.00
    5   -3    4     -1.86      0.00
    6   -3    4     10.88      0.00
    7   -3    4     -4.72      0.00
    8   -3    4     -2.54      0.00
    9   -3    4      2.05      0.00
   10   -3    4     -0.88      0.00
   11   -3    4     -0.86      0.00
   12   -3    4     -1.47      0.00
   13   -3    4      0.86      0.00
   14   -3    4      0.24      0.00
   15   -3    4      0.38      0.00
  -15   -2    4     -0.75      0.00
  -14   -2    4      0.91      0.00
  -13   -2    4     -0.74      0.00
  -12   -2    4     -0.79      0.00
  -11   -2    4     -1.26      0.00
  -10   -2    4      0.42      0.00
   -9   -2    4     -1.15      0.00
   -8   -2    4     -0.35      0.00
   -7   -2    4     -1.44      0.00
   -6   -2    4      2.81      0.00
   -5   -2    4      0.70      0.00
   -4   -2    4     -0.95      0.00
   -3   -2    4      6.63      0.00
   -2   -2    4    -28.02      0.00
   -1   -2    4    -29.71      0.00
    0   -2    4     33.50      0.00
    1   -2    4    -24.37      0.00
    2   -2    4     11.48      0.00
    3   -2    4      1.01      0.00
    4   -2    4     -3.92      0.00
    5   -2    4     -2.69      0.00
    6   -2    4      5.51      0.00
    7   -2    4     -0.06      0.00
    8   -2    4     -5.79      0.00
    9   -2    4      4.52      0.00
   10   -2    4     -2.12      0.00
   11   -2    4     -0.69      0.00
   12   -2    4      0.39      0.00
   13   -2    4     -2.44      0.00
   14   -2    4      0.22      0.00
  -16   -1    4     -0.18      0.00
  -15   -1    4      0.30      0.00
  -14   -1    4     -0.31      0.00
  -13   -1    4     -0.36      0.00
  -12   -1    4     -0.45      0.00
  -11   -1    4      0.90      0.00
  -10   -1    4     -2.90      0.00
   -9   -1    4      2.57      0.00
   -8   -1    4     -1.60      0.00
   -7   -1    4      0.20      0.00
   -6   -1    4      0.49      0.00
   -5   -1    4     -0.18      0.00
   -4   -1    4     10.40      0.00
   -3   -1    4    -16.86      0.00
   -2   -1    4     42.95      0.00
   -1   -1    4    -14.08      0.00
    0   -1    4    -38.80      0.00
    1   -1    4     31.76      0.00
    2   -1    4    -18.73      0.00
    3   -1    4     -4.96      0.00
    4   -1    4     -5.01      0.00
    5   -1    4     10.05      0.00
    6   -1    4     -3.39      0.00
    7   -1    4      0.35      0.00
    8   -1    4      3.93      0.00
    9   -1    4     -6.08      0.00
   10   -1    4     -0.53      0.00
   11   -1    4      1.88      0.00
   12   -1    4     -2.25      0.00
   13   -1    4      1.54      0.00
   14   -1    4     -1.15      0.00
  -16    0    4     -0.18      0.00
  -15    0    4      1.14      0.00
  -14    0    4     -0.39      0.00
  -13    0    4      0.36      0.00
  -12    0    4     -2.06      0.00
  -11    0    4     -2.13      0.00
  -10    0    4      2.73      0.00
   -9    0    4     -2.22      0.00
   -8    0    4     -2.36      0.00
   -7    0    4      2.44      0.00
   -6    0    4     -3.14      0.00
   -5    0    4      7.87      0.00
   -4    0    4     -1.50      0.00
   -3    0    4    -18.51      0.00
   -2    0    4     -8.36      0.00
   -1    0    4    -16.99      0.00
    0    0    4     -9.30      0.00
    1    0    4     -7.72      0.00
    2    0    4     16.83      0.00
    3    0    4    -15.87      0.00
    4    0    4      9.03      0.00
    5    0    4     -6.64      0.00
    6    0    4      1.88      0.00
    7    0    4      1.79      0.00
    8    0    4      1.01      0.00
    9    0    4     -1.77      0.00
   10    0    4     -0.45      0.00
   11    0    4      1.22      0.00
   12    0    4     -2.85      0.00
   13    0    4      1.96      0.00
   14    0    4      0.19      0.00
  -16    1    4     -1.20      0.00
  -15    1    4     -1.68      0.00
  -14    1    4     -1.79      0.00
  -13    1    4      2.36      0.00
  -12    1    4     -1.85      0.00
  -11    1    4     -0.22      0.00
  -10    1    4     -0.61      0.00
   -9    1    4     -1.25      0.00
   -8    1    4      0.09      0.00
   -7    1    4      0.07      0.00
   -6    1    4     -5.20      0.00
   -5    1    4      4.05      0.00
   -4    1    4      8.55      0.00
   -3    1    4      7.65      0.00
   -2    1    4      9.06      0.00
   -1    1    4    -18.92      0.00
    0    1    4      9.23      0.00
    1    1    4    -10.37      0.00
    2    1    4     -6.62      0.00
    3    1    4      4.51      0.00
    4    1    4     -4.15      0.00
    5    1    4      3.45      0.00
    6    1    4     -1.09      0.00
    7    1    4     -1.42      0.00
    8    1    4      0.84      0.00
    9    1    4     -0.53      0.00
   10    1    4     -1.42      0.00
   11    1    4      0.58      0.00
   12    1    4     -1.75      0.00
   13    1    4     -1.78      0.00
  -16    2    4      0.25      0.00
  -15    2    4      2.33      0.00
  -14    2    4     -1.70      0.00
  -13    2    4     -0.34      0.00
  -12    2    4     -1.96      0.00
  -11    2    4     -0.10      0.00
  -10    2    4     -0.03      0.00
   -9    2    4      1.11      0.00
   -8    2    4     -1.00      0.00
   -7    2    4     -1.37      0.00
   -6    2    4      1.01      0.00
   -5    2    4      4.39      0.00
   -4    2    4    -13.69      0.00
   -3    2    4      7.36      0.00
   -2    2    4     -3.79      0.00
   -1    2    4    -27.05      0.00
    0    2    4      6.93      0.00
    1    2    4     -3.53      0.00
    2    2    4     -6.28      0.00
    3    2    4      0.61      0.00
    4    2    4      3.18      0.00
    5    2    4     -5.94      0.00
    6    2    4      3.23      0.00
    7    2    4      1.86      0.00
    8    2    4     -1.39      0.00
    9    2    4     -0.32      0.00
   10    2    4     -0.16      0.00
   11    2    4      1.79      0.00
   12    2    4      0.96      0.00
   13    2    4      1.01      0.00
  -16    3    4      2.74      0.00
  -15    3    4     -1.63      0.00
  -14    3    4     -3.77      0.00
  -13    3    4      0.97      0.00
  -12    3    4     -1.20      0.00
  -11    3    4     -1.63      0.00
  -10    3    4     -0.46      0.00
   -9    3    4      0.18      0.00
   -8    3    4     -1.79      0.00
   -7    3    4      0.34      0.00
   -6    3    4     -0.56      0.00
   -5    3    4     -3.01      0.00
   -4    3    4      4.98      0.00
   -3    3    4     11.60      0.00
   -2    3    4     -3.49      0.00
   -1    3    4    -15.78      0.00
    0    3    4      5.62      0.00
    1    3    4      1.98      0.00
    2    3    4    -10.03      0.00
    3    3    4      3.60      0.00
    4    3    4      1.64      0.00
    5    3    4     -2.07      0.00
    6    3    4     -0.39      0.00
    7    3    4     -2.42      0.00
    8    3    4      2.42      0.00
    9    3    4     -2.06      0.00
   10    3    4      1.27      0.00
   11    3    4      1.94      0.00
   12    3    4     -1.76      0.00
   13    3    4      0.92      0.00
  -16    4    4      3.85      0.00
  -15    4    4      0.33      0.00
  -14    4    4     -3.60      0.00
  -13    4    4      1.83      0.00
  -12    4    4     -1.91      0.00
  -11    4    4     -0.24      0.00
  -10    4    4      1.61      0.00
   -9    4    4     -3.18      0.00
   -8    4    4     -0.02      0.00
   -7    4    4      4.91      0.00
   -6    4    4     -4.82      0.00
   -5    4    4     -0.93      0.00
   -4    4    4      5.64      0.00
   -3    4    4      4.37      0.00
   -2    4    4     -8.31      0.00
   -1    4    4     -2.28      0.00
    0    4    4     -1.64      0.00
    1    4    4    -10.05      0.00
    2    4    4      3.24      0.00
    3    4    4     -2.95      0.00
    4    4    4      0.75      0.00
    5    4    4     -1.47      0.00
    6    4    4      1.41      0.00
    7    4    4      0.71      0.00
    8    4    4     -1.69      0.00
    9    4    4      0.41      0.00
   10    4    4     -2.25      0.00
   11    4    4      0.87      0.00
   12    4    4      1.15      0.00
  -16    5    4      3.35      0.00
  -15    5    4     -0.10      0.00
  -14    5    4     -1.81      0.00
  -13    5    4      0.82      0.00
  -12    5    4     -1.73      0.00
  -11    5    4     -3.14      0.00
  -10    5    4      3.30      0.00
   -9    5    4     -2.63      0.00
   -8    5    4     -2.64      0.00
   -7    5    4      1.41      0.00
   -6    5    4     -4.71      0.00
   -5    5    4     -3.27      0.00
   -4    5    4      6.29      0.00
   -3    5    4     -2.18      0.00
   -2    5    4     -3.93      0.00
   -1    5    4      0.80      0.00
    0    5    4     -3.34      0.00
    1    5    4      2.78      0.00
    2    5    4     -0.53      0.00
    3    5    4     -5.83      0.00
    4    5    4      4.41      0.00
    5    5    4     -3.24      0.00
    6    5    4     -2.21      0.00
    7    5    4      2.38      0.00
    8    5    4     -0.87      0.00
    9    5    4      0.64      0.00
   10    5    4      1.51      0.00
   11    5    4     -0.77      0.00
   12    5    4      1.90      0.00
  -16    6    4      0.99      0.00
  -15    6    4     -0.72      0.00
  -14    6    4     -0.83      0.00
  -13    6    4      0.89      0.00
  -12    6    4      0.30      0.00
  -11    6    4      0.16      0.00
  -10    6    4     -1.24      0.00
   -9    6    4      1.06      0.00
   -8    6    4      0.59      0.00
   -7    6    4      0.38      0.00
   -6    6    4     -3.55      0.00
   -5    6    4      2.86      0.00
   -4    6    4      8.03      0.00
   -3    6    4     -2.96      0.00
   -2    6    4      2.49      0.00
   -1    6    4     -5.15      0.00
    0    6    4     -3.21      0.00
    1    6    4      1.57      0.00
    2    6    4     -4.23      0.00
    3    6    4      1.29      0.00
    4    6    4      2.66      0.00
    5    6    4     -2.04      0.00
    6    6    4      0.19      0.00
    7    6    4      0.27      0.00
    8    6    4     -1.68      0.00
    9    6    4      0.17      0.00
   10    6    4     -1.53      0.00
   11    6    4      1.38      0.00
  -16    7    4     -0.73      0.00
  -15    7    4      0.30      0.00
  -14    7    4     -2.78      0.00
  -13    7    4      0.51      0.00
  -12    7    4      0.14      0.00
  -11    7    4     -0.66      0.00
  -10    7    4     -1.63      0.00
   -9    7    4      1.44      0.00
   -8    7    4      0.13      0.00
   -7    7    4     -3.80      0.00
   -6    7    4     -0.91      0.00
   -5    7    4     -2.23      0.00
   -4    7    4      1.94      0.00
   -3    7    4      2.38      0.00
   -2    7    4     -3.86      0.00
   -1    7    4      1.16      0.00
    0    7    4      0.54      0.00
    1    7    4     -0.73      0.00
    2    7    4     -0.33      0.00
    3    7    4     -0.54      0.00
    4    7    4     -1.04      0.00
    5    7    4     -1.00      0.00
    6    7    4      0.95      0.00
    7    7    4     -0.04      0.00
    8    7    4      0.87      0.00
    9    7    4     -0.40      0.00
   10    7    4     -1.00      0.00
  -16    8    4      0.30      0.00
  -15    8    4      0.20      0.00
  -14    8    4      0.64      0.00
  -13    8    4      1.56      0.00
  -12    8    4      0.56      0.00
  -11    8    4     -0.26      0.00
  -10    8    4      0.22      0.00
   -9    8    4     -0.22      0.00
   -8    8    4      0.08      0.00
   -7    8    4     -2.18      0.00
   -6    8    4     -1.29      0.00
   -5    8    4      0.14      0.00
   -4    8    4      4.02      0.00
   -3    8    4      1.65      0.00
   -2    8    4     -0.87      0.00
   -1    8    4     -2.60      0.00
    0    8    4     -0.14      0.00
    1    8    4      1.78      0.00
    2    8    4      0.15      0.00
    3    8    4     -2.20      0.00
    4    8    4      1.56      0.00
    5    8    4      1.37      0.00
    6    8    4     -3.12      0.00
    7    8    4      1.25      0.00
    8    8    4      0.79      0.00
    9    8    4     -0.39      0.00
  -15    9    4     -0.62      0.00
  -14    9    4     -1.69      0.00
  -13    9    4      0.89      0.00
  -12    9    4     -0.23      0.00
  -11    9    4     -2.37      0.00
  -10    9    4      3.21      0.00
   -9    9    4      0.40      0.00
   -8    9    4     -1.37      0.00
   -7    9    4      1.92      0.00
   -6    9    4     -2.58      0.00
   -5    9    4     -0.41      0.00
   -4    9    4      1.67      0.00
   -3    9    4     -0.46      0.00
   -2    9    4      1.51      0.00
   -1    9    4      1.60      0.00
    0    9    4     -0.49      0.00
    1    9    4     -1.30      0.00
    2    9    4     -0.31      0.00
    3    9    4      0.53      0.00
    4    9    4     -0.79      0.00
    5    9    4      0.69      0.00
    6    9    4     -0.54      0.00
    7    9    4      2.34      0.00
    8    9    4     -2.63      0.00
    9    9    4      0.40      0.00
  -15   10    4     -1.01      0.00
  -14   10    4      2.39      0.00
  -13   10    4      1.20      0.00
  -12   10    4      1.54      0.00
  -11   10    4      0.18      0.00
  -10   10    4     -0.26      0.00
   -9   10    4      0.00      0.00
   -8   10    4     -0.89      0.00
   -7   10    4     -1.94      0.00
   -6   10    4     -0.77      0.00
   -5   10    4     -0.26      0.00
   -4   10    4      3.91      0.00
   -3   10    4     -0.94      0.00
   -2   10    4     -1.11      0.00
   -1   10    4      0.94      0.00
    0   10    4      0.19      0.00
    1   10    4      2.00      0.00
    2   10    4     -2.14      0.00
    3   10    4      0.71      0.00
    4   10    4      0.14      0.00
    5   10    4     -0.39      0.00
    6   10    4     -0.90      0.00
    7   10    4     -0.13      0.00
    8   10    4      0.88      0.00
  -14   11    4      1.14      0.00
  -13   11    4     -0.56      0.00
  -12   11    4      1.25      0.00
  -11   11    4      2.01      0.00
  -10   11    4      0.63      0.00
   -9   11    4      2.45      0.00
   -8   11    4     -0.05      0.00
   -7   11    4     -1.03      0.00
   -6   11    4      0.97      0.00
   -5   11    4     -1.58      0.00
   -4   11    4      0.92      0.00
   -3   11    4      1.09      0.00
   -2   11    4     -0.17      0.00
   -1   11    4      1.40      0.00
    0   11    4      0.14      0.00
    1   11    4     -1.39      0.00
    2   11    4      1.18      0.00
    3   11    4     -0.92      0.00
    4   11    4      0.08      0.00
    5   11    4     -0.33      0.00
    6   11    4      0.73      0.00
    7   11    4      1.36      0.00
  -14   12    4     -0.58      0.00
  -13   12    4     -1.13      0.00
  -12   12    4      2.59      0.00
  -11   12    4     -3.58      0.00
  -10   12    4      0.58      0.00
   -9   12    4      1.24      0.00
   -8   12    4     -0.67      0.00
   -7   12    4     -0.26      0.00
   -6   12    4     -0.79      0.00
   -5   12    4      1.56      0.00
   -4   12    4      0.23      0.00
   -3   12    4     -1.47      0.00
   -2   12    4      1.31      0.00
   -1   12    4     -0.44      0.00
    0   12    4      1.22      0.00
    1   12    4      0.03      0.00
    2   12    4      0.04      0.00
    3   12    4      2.15      0.00
    4   12    4     -1.93      0.00
    5   12    4     -0.65      0.00
    6   12    4      0.82      0.00
  -13   13    4      0.00      0.00
  -12   13    4      1.05      0.00
  -11   13    4      2.44      0.00
  -10   13    4      0.20      0.00
   -9   13    4      0.72      0.00
   -8   13    4      1.54      0.00
   -7   13    4     -1.39      0.00
   -6   13    4     -0.52      0.00
   -5   13    4      0.09      0.00
   -4   13    4      0.63      0.00
   -3   13    4      0.50      0.00
   -2   13    4      0.60      0.00
   -1   13    4     -0.13      0.00
    0   13    4      0.56      0.00
    1   13    4     -1.06      0.00
    2   13    4      1.71      0.00
    3   13    4     -0.31      0.00
    4   13    4      1.09      0.00
  -12   14    4     -0.14      0.00
  -11   14    4     -1.48      0.00
  -10   14    4     -0.16      0.00
   -9   14    4     -0.15      0.00
   -8   14    4      0.77      0.00
   -7   14    4      0.16      0.00
   -6   14    4      1.06      0.00
   -5   14    4     -0.15      0.00
   -4   14    4     -2.05      0.00
   -3   14    4      0.17      0.00
   -2   14    4      0.63      0.00
   -1   14    4      0.24      0.00
    0   14    4      1.46      0.00
    1   14    4     -1.03      0.00
    2   14    4      1.82      0.00
    3   14    4      0.73      0.00
  -11   15    4      0.14      0.00
  -10   15    4     -0.13      0.00
   -9   15    4      1.13      0.00
   -8   15    4     -1.56      0.00
   -7   15    4     -0.20      0.00
   -6   15    4     -0.24      0.00
   -5   15    4     -0.91      0.00
   -4   15    4      1.24      0.00
   -3   15    4     -0.71      0.00
   -2   15    4     -1.12      0.00
   -1   15    4      0.68      0.00
    0   15    4      0.57      0.00
    1   15    4     -0.12      0.00
   -8   16    4      1.60      0.00
   -7   16    4      0.19      0.00
   -6   16    4      0.48      0.00
   -5   16    4     -1.01      0.00
   -4   16    4     -0.91      0.00
   -3   16    4     -0.81      0.00
   -2   16    4     -0.18      0.00
    1  -20    5     -0.07      0.00
    2  -20    5      0.12      0.00
    3  -20    5      0.52      0.00
    4  -20    5     -0.79      0.00
    5  -20    5      0.68      0.00
    6  -20    5     -0.50      0.00
    7  -20    5     -0.85      0.00
   -2  -19    5      0.98      0.00
   -1  -19    5      0.47      0.00
    0  -19    5      0.82      0.00
    1  -19    5     -0.94      0.00
    2  -19    5     -0.57      0.00
    3  -19    5      0.74      0.00
    4  -19    5      1.83      0.00
    5  -19    5     -1.69      0.00
    6  -19    5      3.29      0.00
    7  -19    5     -0.48      0.00
    8  -19    5      0.14      0.00
    9  -19    5      0.23      0.00
   -4  -18    5     -1.22      0.00
   -3  -18    5      1.10      0.00
   -2  -18    5     -1.74      0.00
   -1  -18    5      1.02      0.00
    0  -18    5     -0.46      0.00
    1  -18    5     -0.64      0.00
    2  -18    5     -0.36      0.00
    3  -18    5     -0.37      0.00
    4  -18    5      0.22      0.00
    5  -18    5      0.61      0.00
    6  -18    5     -0.54      0.00
    7  -18    5     -0.16      0.00
    8  -18    5     -0.98      0.00
    9  -18    5     -0.23      0.00
   10  -18    5      0.58      0.00
   11  -18    5      0.41      0.00
   -5  -17    5     -3.73      0.00
   -4  -17    5     -0.37      0.00
   -3  -17    5     -0.51      0.00
   -2  -17    5      0.09      0.00
   -1  -17    5      1.53      0.00
    0  -17    5     -0.77      0.00
    1  -17    5     -0.32      0.00
    2  -17    5     -1.31      0.00
    3  -17    5      0.45      0.00
    4  -17    5      0.85      0.00
    5  -17    5      0.06      0.00
    6  -17    5      2.35      0.00
    7  -17    5     -1.30      0.00
    8  -17    5      0.75      0.00
    9  -17    5      0.99      0.00
   10  -17    5     -1.90      0.00
   11  -17    5      0.18      0.00
   12  -17    5      0.20      0.00
   -7  -16    5      1.95      0.00
   -6  -16    5      1.35      0.00
   -5  -16    5     -1.49      0.00
   -4  -16    5      0.50      0.00
   -3  -16    5     -1.63      0.00
   -2  -16    5     -0.81      0.00
   -1  -16    5     -1.13      0.00
    0  -16    5     -0.32      0.00
    1  -16    5     -0.19      0.00
    2  -16    5     -1.13      0.00
    3  -16    5     -0.09      0.00
    4  -16    5      0.68      0.00
    5  -16    5     -0.96      0.00
    6  -16    5      0.03      0.00
    7  -16    5     -0.75      0.00
    8  -16    5      0.51      0.00
    9  -16    5      0.85      0.00
   10  -16    5      1.44      0.00
   11  -16    5      0.48      0.00
   12  -16    5     -1.71      0.00
   13  -16    5     -0.09      0.00
   -8  -15    5      0.75      0.00
   -7  -15    5      1.19      0.00
   -6  -15    5      0.47      0.00
   -5  -15    5     -1.54      0.00
   -4  -15    5     -2.01      0.00
   -3  -15    5     -1.31      0.00
   -2  -15    5      1.09      0.00
   -1  -15    5      0.37      0.00
    0  -15    5     -2.91      0.00
    1  -15    5     -3.00      0.00
    2  -15    5     -0.40      0.00
    3  -15    5      1.99      0.00
    4  -15    5      0.89      0.00
    5  -15    5     -1.48      0.00
    6  -15    5      0.75      0.00
    7  -15    5     -2.31      0.00
    8  -15    5      1.23      0.00
    9  -15    5      0.17      0.00
   10  -15    5     -0.94      0.00
   11  -15    5      2.15      0.00
   12  -15    5     -2.01      0.00
   13  -15    5     -0.27      0.00
   -9  -14    5      0.80      0.00
   -8  -14    5      0.13      0.00
   -7  -14    5     -0.04      0.00
   -6  -14    5      1.65      0.00
   -5  -14    5      2.32      0.00
   -4  -14    5     -2.98      0.00
   -3  -14    5     -2.35      0.00
   -2  -14    5     -0.19      0.00
   -1  -14    5     -0.59      0.00
    0  -14    5      1.92      0.00
    1  -14    5     -2.64      0.00
    2  -14    5     -2.81      0.00
    3  -14    5      0.36      0.00
    4  -14    5      1.62      0.00
    5  -14    5      0.72      0.00
    6  -14    5      1.17      0.00
    7  -14    5     -1.44      0.00
    8  -14    5     -1.64      0.00
    9  -14    5      2.20      0.00
   10  -14    5      0.53      0.00
   11  -14    5     -0.68      0.00
   12  -14    5     -0.21      0.00
   13  -14    5     -1.51      0.00
   14  -14    5      0.27      0.00
  -10  -13    5      0.37      0.00
   -9  -13    5     -0.56      0.00
   -8  -13    5     -1.61      0.00
   -7  -13    5      2.46      0.00
   -6  -13    5      0.14      0.00
   -5  -13    5      0.99      0.00
   -4  -13    5     -1.83      0.00
   -3  -13    5     -1.25      0.00
   -2  -13    5      0.07      0.00
   -1  -13    5     -1.06      0.00
    0  -13    5     -4.43      0.00
    1  -13    5     -2.30      0.00
    2  -13    5     -0.82      0.00
    3  -13    5      1.06      0.00
    4  -13    5     -1.42      0.00
    5  -13    5     -0.54      0.00
    6  -13    5     -0.04      0.00
    7  -13    5     -1.14      0.00
    8  -13    5     -0.84      0.00
    9  -13    5     -0.05      0.00
   10  -13    5      3.02      0.00
   11  -13    5     -0.45      0.00
   12  -13    5     -2.48      0.00
   13  -13    5      1.39      0.00
   14  -13    5     -2.43      0.00
  -11  -12    5     -1.58      0.00
  -10  -12    5      0.15      0.00
   -9  -12    5     -1.11      0.00
   -8  -12    5      0.82      0.00
   -7  -12    5     -1.47      0.00
   -6  -12    5      2.38      0.00
   -5  -12    5      2.07      0.00
   -4  -12    5     -3.14      0.00
   -3  -12    5     -3.07      0.00
   -2  -12    5      0.61      0.00
   -1  -12    5      2.97      0.00
    0  -12    5     -0.55      0.00
    1  -12    5     -2.94      0.00
    2  -12    5     -2.84      0.00
    3  -12    5      1.55      0.00
    4  -12    5      2.71      0.00
    5  -12    5     -2.61      0.00
    6  -12    5      0.23      0.00
    7  -12    5     -1.76      0.00
    8  -12    5     -0.55      0.00
    9  -12    5      0.79      0.00
   10  -12    5     -1.12      0.00
   11  -12    5     -1.15      0.00
   12  -12    5      0.19      0.00
   13  -12    5      0.84      0.00
   14  -12    5     -1.39      0.00
  -11  -11    5     -1.33      0.00
  -10  -11    5     -3.02      0.00
   -9  -11    5      0.08      0.00
   -8  -11    5      1.29      0.00
   -7  -11    5     -1.82      0.00
   -6  -11    5      1.59      0.00
   -5  -11    5      0.37      0.00
   -4  -11    5      2.37      0.00
   -3  -11    5     -1.29      0.00
   -2  -11    5     -3.23      0.00
   -1  -11    5     -1.16      0.00
    0  -11    5     -4.24      0.00
    1  -11    5     -3.17      0.00
    2  -11    5     -0.89      0.00
    3  -11    5     -1.99      0.00
    4  -11    5      1.77      0.00
    5  -11    5     -0.17      0.00
    6  -11    5      0.34      0.00
    7  -11    5      0.44      0.00
    8  -11    5     -1.71      0.00
    9  -11    5      1.49      0.00
   10  -11    5      0.82      0.00
   11  -11    5      2.07      0.00
   12  -11    5     -2.38      0.00
   13  -11    5      1.82      0.00
   14  -11    5     -1.16      0.00
   15  -11    5      0.53      0.00
  -12  -10    5      0.70      0.00
  -11  -10    5     -0.74      0.00
  -10  -10    5      0.08      0.00
   -9  -10    5     -0.32      0.00
   -8  -10    5     -1.90      0.00
   -7  -10    5      1.61      0.00
   -6  -10    5      2.33      0.00
   -5  -10    5     -1.73      0.00
   -4  -10    5     -2.22      0.00
   -3  -10    5     -2.89      0.00
   -2  -10    5      0.95      0.00
   -1  -10    5      2.61      0.00
    0  -10    5     -2.13      0.00
    1  -10    5     -1.37      0.00
    2  -10    5     -2.34      0.00
    3  -10    5      0.06      0.00
    4  -10    5      0.92      0.00
    5  -10    5     -2.77      0.00
    6  -10    5     -4.26      0.00
    7  -10    5     -0.83      0.00
    8  -10    5      3.38      0.00
    9  -10    5     -2.16      0.00
   10  -10    5     -1.49      0.00
   11  -10    5      0.10      0.00
   12  -10    5     -0.11      0.00
   13  -10    5      2.89      0.00
   14  -10    5     -4.67      0.00
   15  -10    5     -0.87      0.00
  -13   -9    5      0.81      0.00
  -12   -9    5      1.15      0.00
  -11   -9    5     -0.98      0.00
  -10   -9    5     -1.16      0.00
   -9   -9    5     -1.07      0.00
   -8   -9    5     -0.23      0.00
   -7   -9    5      3.14      0.00
   -6   -9    5     -2.45      0.00
   -5   -9    5      2.01      0.00
   -4   -9    5      5.20      0.00
   -3   -9    5      0.09      0.00
   -2   -9    5     -6.06      0.00
   -1   -9    5      0.84      0.00
    0   -9    5     -0.61      0.00
    1   -9    5     -1.69      0.00
    2   -9    5      2.09      0.00
    3   -9    5     -4.51      0.00
    4   -9    5      7.58      0.00
    5   -9    5      2.49      0.00
    6   -9    5     -6.91      0.00
    7   -9    5      1.96      0.00
    8   -9    5      1.36      0.00
    9   -9    5     -1.08      0.00
   10   -9    5      1.48      0.00
   11   -9    5     -0.86      0.00
   12   -9    5     -0.18      0.00
   13   -9    5      2.19      0.00
   14   -9    5      0.92      0.00
   15   -9    5     -0.72      0.00
  -13   -8    5     -0.43      0.00
  -12   -8    5     -1.28      0.00
  -11   -8    5      1.88      0.00
  -10   -8    5     -1.48      0.00
   -9   -8    5     -0.93      0.00
   -8   -8    5     -0.06      0.00
   -7   -8    5      2.94      0.00
   -6   -8    5     -0.45      0.00
   -5   -8    5     -0.65      0.00
   -4   -8    5     -0.16      0.00
   -3   -8    5     -2.35      0.00
   -2   -8    5      3.97      0.00
   -1   -8    5     -3.71      0.00
    0   -8    5     -9.24      0.00
    1   -8    5      7.01      0.00
    2   -8    5     -6.05      0.00
    3   -8    5     -3.71      0.00
    4   -8    5      7.23      0.00
    5   -8    5     -9.37      0.00
    6   -8    5      1.07      0.00
    7   -8    5      4.20      0.00
    8   -8    5     -1.84      0.00
    9   -8    5     -0.18      0.00
   10   -8    5      0.41      0.00
   11   -8    5     -0.52      0.00
   12   -8    5     -1.36      0.00
   13   -8    5      0.59      0.00
   14   -8    5     -2.55      0.00
   15   -8    5     -0.41      0.00
  -14   -7    5      0.06      0.00
  -13   -7    5     -0.65      0.00
  -12   -7    5      1.20      0.00
  -11   -7    5      0.33      0.00
  -10   -7    5     -0.58      0.00
   -9   -7    5     -1.99      0.00
   -8   -7    5      1.91      0.00
   -7   -7    5     -1.43      0.00
   -6   -7    5      0.45      0.00
   -5   -7    5      3.13      0.00
   -4   -7    5     -2.43      0.00
   -3   -7    5      7.76      0.00
   -2   -7    5     -3.06      0.00
   -1   -7    5     -2.67      0.00
    0   -7    5     12.81      0.00
    1   -7    5      2.80      0.00
    2   -7    5     -2.35      0.00
    3   -7    5      6.13      0.00
    4   -7    5      5.91      0.00
    5   -7    5     -6.64      0.00
    6   -7    5      0.09      0.00
    7   -7    5     -0.15      0.00
    8   -7    5      0.61      0.00
    9   -7    5      1.43      0.00
   10   -7    5     -1.52      0.00
   11   -7    5     -0.31      0.00
   12   -7    5      0.47      0.00
   13   -7    5      0.73      0.00
   14   -7    5      0.62      0.00
   15   -7    5     -0.12      0.00
  -14   -6    5      0.67      0.00
  -13   -6    5     -0.37      0.00
  -12   -6    5     -1.18      0.00
  -11   -6    5      1.86      0.00
  -10   -6    5     -0.09      0.00
   -9   -6    5     -1.20      0.00
   -8   -6    5     -0.75      0.00
   -7   -6    5      5.55      0.00
   -6   -6    5     -2.57      0.00
   -5   -6    5     -3.73      0.00
   -4   -6    5      0.94      0.00
   -3   -6    5      6.84      0.00
   -2   -6    5     -1.83      0.00
   -1   -6    5     -2.44      0.00
    0   -6    5     -5.49      0.00
    1   -6    5     -3.18      0.00
    2   -6    5      4.20      0.00
    3   -6    5      1.83      0.00
    4   -6    5     -8.71      0.00
    5   -6    5      7.34      0.00
    6   -6    5     -2.85      0.00
    7   -6    5     -1.26      0.00
    8   -6    5      3.37      0.00
    9   -6    5     -0.04      0.00
   10   -6    5     -0.16      0.00
   11   -6    5      0.14      0.00
   12   -6    5     -3.28      0.00
   13   -6    5     -0.56      0.00
   14   -6    5     -0.30      0.00
   15   -6    5     -1.78      0.00
  -15   -5    5     -1.06      0.00
  -14   -5    5      1.63      0.00
  -13   -5    5      1.23      0.00
  -12   -5    5     -0.59      0.00
  -11   -5    5      0.42      0.00
  -10   -5    5     -1.13      0.00
   -9   -5    5     -0.57      0.00
   -8   -5    5     -1.05      0.00
   -7   -5    5      0.85      0.00
   -6   -5    5      2.04      0.00
   -5   -5    5     -4.49      0.00
   -4   -5    5      2.19      0.00
   -3   -5    5      3.30      0.00
   -2   -5    5     -3.23      0.00
   -1   -5    5     12.50      0.00
    0   -5    5      6.53      0.00
    1   -5    5      3.05      0.00
    2   -5    5      3.85      0.00
    3   -5    5      7.09      0.00
    4   -5    5      1.33      0.00
    5   -5    5     -4.55      0.00
    6   -5    5      2.89      0.00
    7   -5    5     -3.13      0.00
    8   -5    5      1.14      0.00
    9   -5    5      1.49      0.00
   10   -5    5     -0.21      0.00
   11   -5    5      0.40      0.00
   12   -5    5     -1.43      0.00
   13   -5    5      1.02      0.00
   14   -5    5      2.35      0.00
   15   -5    5     -1.48      0.00
  -15   -4    5     -0.80      0.00
  -14   -4    5     -0.34      0.00
  -13   -4    5      1.24      0.00
  -12   -4    5      0.44      0.00
  -11   -4    5      2.39      0.00
  -10   -4    5      0.88      0.00
   -9   -4    5     -0.66      0.00
   -8   -4    5     -1.04      0.00
   -7   -4    5      0.86      0.00
   -6   -4    5      5.88      0.00
   -5   -4    5    -11.26      0.00
   -4   -4    5     -2.87      0.00
   -3   -4    5     16.70      0.00
   -2   -4    5      8.74      0.00
   -1   -4    5    -11.70      0.00
    0   -4    5      3.88      0.00
    1   -4    5     17.86      0.00
    2   -4    5    -13.33      0.00
    3   -4    5     -1.58      0.00
    4   -4    5     11.09      0.00
    5   -4    5    -10.61      0.00
    6   -4    5      4.73      0.00
    7   -4    5      2.00      0.00
    8   -4    5     -6.92      0.00
    9   -4    5      7.51      0.00
   10   -4    5     -1.44      0.00
   11   -4    5      0.89      0.00
   12   -4    5     -1.27      0.00
   13   -4    5      0.16      0.00
   14   -4    5      0.98      0.00
   15   -4    5      1.54      0.00
  -15   -3    5      0.63      0.00
  -14   -3    5      0.94      0.00
  -13   -3    5      1.25      0.00
  -12   -3    5      1.00      0.00
  -11   -3    5     -0.63      0.00
  -10   -3    5      2.78      0.00
   -9   -3    5     -1.24      0.00
   -8   -3    5     -1.29      0.00
   -7   -3    5      0.64      0.00
   -6   -3    5      0.76      0.00
   -5   -3    5      1.61      0.00
   -4   -3    5     -7.23      0.00
   -3   -3    5    -10.37      0.00
   -2   -3    5     13.05      0.00
   -1   -3    5      9.35      0.00
    0   -3    5     -8.74      0.00
    1   -3    5     15.09      0.00
    2   -3    5     -0.45      0.00
    3   -3    5     10.36      0.00
    4   -3    5     -4.15      0.00
    5   -3    5     -0.82      0.00
    6   -3    5     -1.04      0.00
    7   -3    5      2.55      0.00
    8   -3    5     -1.32      0.00
    9   -3    5      0.49      0.00
   10   -3    5      0.25      0.00
   11   -3    5      1.23      0.00
   12   -3    5     -3.52      0.00
   13   -3    5      1.28      0.00
   14   -3    5      2.45      0.00
  -16   -2    5     -2.00      0.00
  -15   -2    5     -0.11      0.00
  -14   -2    5     -0.40      0.00
  -13   -2    5      0.56      0.00
  -12   -2    5      3.38      0.00
  -11   -2    5     -0.89      0.00
  -10   -2    5      3.18      0.00
   -9   -2    5      0.12      0.00
   -8   -2    5     -2.55      0.00
   -7   -2    5      4.69      0.00
   -6   -2    5      0.32      0.00
   -5   -2    5     -6.67      0.00
   -4   -2    5     10.23      0.00
   -3   -2    5     -8.83      0.00
   -2   -2    5     24.52      0.00
   -1   -2    5     11.49      0.00
    0   -2    5     -0.78      0.00
    1   -2    5      9.69      0.00
    2   -2    5    -12.11      0.00
    3   -2    5      8.01      0.00
    4   -2    5      2.15      0.00
    5   -2    5     -2.20      0.00
    6   -2    5     -0.06      0.00
    7   -2    5     -1.69      0.00
    8   -2    5      4.31      0.00
    9   -2    5     -3.13      0.00
   10   -2    5      0.94      0.00
   11   -2    5      4.67      0.00
   12   -2    5     -2.34      0.00
   13   -2    5     -0.14      0.00
   14   -2    5      1.43      0.00
  -16   -1    5     -0.33      0.00
  -15   -1    5      1.95      0.00
  -14   -1    5     -1.17      0.00
  -13   -1    5      2.65      0.00
  -12   -1    5     -0.67      0.00
  -11   -1    5     -0.41      0.00
  -10   -1    5      6.79      0.00
   -9   -1    5     -2.96      0.00
   -8   -1    5     -3.02      0.00
   -7   -1    5      4.56      0.00
   -6   -1    5      0.19      0.00
   -5   -1    5     -1.70      0.00
   -4   -1    5     -7.41      0.00
   -3   -1    5     -5.43      0.00
   -2   -1    5     -5.26      0.00
   -1   -1    5      8.56      0.00
    0   -1    5     17.80      0.00
    1   -1    5    -14.16      0.00
    2   -1    5     12.41      0.00
    3   -1    5      2.74      0.00
    4   -1    5     -4.53      0.00
    5   -1    5     -0.89      0.00
    6   -1    5      0.26      0.00
    7   -1    5      4.02      0.00
    8   -1    5     -3.62      0.00
    9   -1    5      2.29      0.00
   10   -1    5     -0.93      0.00
   11   -1    5      1.36      0.00
   12   -1    5     -0.20      0.00
   13   -1    5     -0.36      0.00
   14   -1    5      2.00      0.00
  -16    0    5     -1.54      0.00
  -15    0    5     -1.17      0.00
  -14    0    5      1.24      0.00
  -13    0    5      3.18      0.00
  -12    0    5     -0.90      0.00
  -11    0    5      0.10      0.00
  -10    0    5      1.91      0.00
   -9    0    5     -0.31      0.00
   -8    0    5      4.75      0.00
   -7    0    5     -4.71      0.00
   -6    0    5     -1.64      0.00
   -5    0    5      5.79      0.00
   -4    0    5      4.04      0.00
   -3    0    5     -2.10      0.00
   -2    0    5     -1.77      0.00
   -1    0    5     16.36      0.00
    0    0    5     15.81      0.00
    1    0    5     -0.51      0.00
    2    0    5    -20.50      0.00
    3    0    5     24.14      0.00
    4    0    5     -4.82      0.00
    5    0    5     -2.46      0.00
    6    0    5      0.28      0.00
    7    0    5      0.50      0.00
    8    0    5     -1.56      0.00
    9    0    5      2.04      0.00
   10    0    5     -1.41      0.00
   11    0    5     -0.71      0.00
   12    0    5     -0.18      0.00
   13    0    5     -4.27      0.00
  -16    1    5      1.24      0.00
  -15    1    5      2.04      0.00
  -14    1    5     -1.84      0.00
  -13    1    5      1.46      0.00
  -12    1    5      3.57      0.00
  -11    1    5     -1.26      0.00
  -10    1    5     -0.92      0.00
   -9    1    5      1.50      0.00
   -8    1    5      2.42      0.00
   -7    1    5      1.50      0.00
   -6    1    5     -2.17      0.00
   -5    1    5      0.76      0.00
   -4    1    5     -4.79      0.00
   -3    1    5     -5.58      0.00
   -2    1    5      9.50      0.00
   -1    1    5     -4.49      0.00
    0    1    5      8.98      0.00
    1    1    5      0.57      0.00
    2    1    5      2.92      0.00
    3    1    5     -6.76      0.00
    4    1    5      1.62      0.00
    5    1    5      4.69      0.00
    6    1    5     -2.26      0.00
    7    1    5      1.73      0.00
    8    1    5     -1.15      0.00
    9    1    5      1.10      0.00
   10    1    5     -1.53      0.00
   11    1    5      1.44      0.00
   12    1    5     -0.24      0.00
   13    1    5     -0.25      0.00
  -16    2    5      0.55      0.00
  -15    2    5     -0.44      0.00
  -14    2    5     -0.14      0.00
  -13    2    5      0.96      0.00
  -12    2    5      1.21      0.00
  -11    2    5      0.69      0.00
  -10    2    5     -0.32      0.00
   -9    2    5     -1.01      0.00
   -8    2    5      0.88      0.00
   -7    2    5      2.06      0.00
   -6    2    5      1.63      0.00
   -5    2    5     -3.75      0.00
   -4    2    5      2.67      0.00
   -3    2    5     -5.38      0.00
   -2    2    5     -6.37      0.00
   -1    2    5     13.61      0.00
    0    2    5      6.88      0.00
    1    2    5     -0.22      0.00
    2    2    5     -3.34      0.00
    3    2    5      7.54      0.00
    4    2    5     -2.57      0.00
    5    2    5     -0.62      0.00
    6    2    5     -0.84      0.00
    7    2    5      0.88      0.00
    8    2    5      1.34      0.00
    9    2    5     -0.15      0.00
   10    2    5      0.68      0.00
   11    2    5     -1.55      0.00
   12    2    5     -4.50      0.00
   13    2    5     -0.27      0.00
  -16    3    5     -0.64      0.00
  -15    3    5      1.49      0.00
  -14    3    5      0.37      0.00
  -13    3    5      1.07      0.00
  -12    3    5      2.24      0.00
  -11    3    5     -1.49      0.00
  -10    3    5      1.08      0.00
   -9    3    5      0.20      0.00
   -8    3    5     -1.47      0.00
   -7    3    5      3.47      0.00
   -6    3    5      2.78      0.00
   -5    3    5      2.02      0.00
   -4    3    5      2.26      0.00
   -3    3    5     -3.10      0.00
   -2    3    5      2.96      0.00
   -1    3    5      4.40      0.00
    0    3    5     -1.70      0.00
    1    3    5     -3.18      0.00
    2    3    5      7.11      0.00
    3    3    5     -6.57      0.00
    4    3    5      0.84      0.00
    5    3    5      6.58      0.00
    6    3    5     -4.22      0.00
    7    3    5      0.18      0.00
    8    3    5     -0.55      0.00
    9    3    5      0.62      0.00
   10    3    5      0.58      0.00
   11    3    5     -0.85      0.00
   12    3    5     -1.80      0.00
  -16    4    5     -0.62      0.00
  -15    4    5     -1.12      0.00
  -14    4    5      2.16      0.00
  -13    4    5     -0.94      0.00
  -12    4    5     -0.39      0.00
  -11    4    5      0.14      0.00
  -10    4    5      1.46      0.00
   -9    4    5     -0.67      0.00
   -8    4    5     -2.43      0.00
   -7    4    5      0.39      0.00
   -6    4    5      1.51      0.00
   -5    4    5     -1.75      0.00
   -4    4    5     -6.35      0.00
   -3    4    5     -4.90      0.00
   -2    4    5      1.32      0.00
   -1    4    5      9.00      0.00
    0    4    5     -4.60      0.00
    1    4    5      4.50      0.00
    2    4    5      0.55      0.00
    3    4    5     -2.12      0.00
    4    4    5      1.97      0.00
    5    4    5     -1.53      0.00
    6    4    5     -0.54      0.00
    7    4    5      4.60      0.00
    8    4    5     -1.82      0.00
    9    4    5      0.00      0.00
   10    4    5      2.69      0.00
   11    4    5     -2.18      0.00
   12    4    5     -0.93      0.00
  -16    5    5     -1.60      0.00
  -15    5    5      0.20      0.00
  -14    5    5      0.77      0.00
  -13    5    5      0.64      0.00
  -12    5    5      1.03      0.00
  -11    5    5      0.54      0.00
  -10    5    5     -1.89      0.00
   -9    5    5      1.90      0.00
   -8    5    5      2.21      0.00
   -7    5    5     -3.17      0.00
   -6    5    5      8.38      0.00
   -5    5    5      1.21      0.00
   -4    5    5     -1.21      0.00
   -3    5    5      0.67      0.00
   -2    5    5      0.02      0.00
   -1    5    5     -0.63      0.00
    0    5    5      1.48      0.00
    1    5    5     -2.64      0.00
    2    5    5     -2.72      0.00
    3    5    5      4.40      0.00
    4    5    5      0.07      0.00
    5    5    5     -0.77      0.00
    6    5    5      1.58      0.00
    7    5    5     -2.04      0.00
    8    5    5     -0.70      0.00
    9    5    5      1.11      0.00
   10    5    5     -0.06      0.00
   11    5    5      1.25      0.00
  -16    6    5     -0.01      0.00
  -15    6    5     -1.81      0.00
  -14    6    5      0.09      0.00
  -13    6    5     -1.11      0.00
  -12    6    5     -0.43      0.00
  -11    6    5     -0.91      0.00
  -10    6    5      1.46      0.00
   -9    6    5     -1.54      0.00
   -8    6    5     -0.08      0.00
   -7    6    5      1.93      0.00
   -6    6    5      0.56      0.00
   -5    6    5     -1.87      0.00
   -4    6    5     -2.66      0.00
   -3    6    5     -1.38      0.00
   -2    6    5      1.20      0.00
   -1    6    5      2.04      0.00
    0    6    5     -1.69      0.00
    1    6    5     -2.29      0.00
    2    6    5      3.95      0.00
    3    6    5     -3.41      0.00
    4    6    5     -2.38      0.00
    5    6    5      1.48      0.00
    6    6    5      1.95      0.00
    7    6    5      0.09      0.00
    8    6    5      1.15      0.00
    9    6    5     -0.53      0.00
   10    6    5     -1.37      0.00
  -16    7    5      0.43      0.00
  -15    7    5     -0.10      0.00
  -14    7    5      0.39      0.00
  -13    7    5      0.79      0.00
  -12    7    5      0.23      0.00
  -11    7    5     -1.08      0.00
  -10    7    5     -1.49      0.00
   -9    7    5      0.44      0.00
   -8    7    5     -1.96      0.00
   -7    7    5      1.71      0.00
   -6    7    5      1.80      0.00
   -5    7    5      0.00      0.00
   -4    7    5     -0.66      0.00
   -3    7    5     -1.55      0.00
   -2    7    5     -0.60      0.00
   -1    7    5      0.65      0.00
    0    7    5     -1.53      0.00
    1    7    5     -0.61      0.00
    2    7    5     -0.45      0.00
    3    7    5      0.53      0.00
    4    7    5     -0.18      0.00
    5    7    5     -0.04      0.00
    6    7    5     -0.86      0.00
    7    7    5     -0.32      0.00
    8    7    5      1.37      0.00
    9    7    5      0.37      0.00
   10    7    5      0.75      0.00
  -15    8    5     -0.60      0.00
  -14    8    5     -3.06      0.00
  -13    8    5     -0.98      0.00
  -12    8    5     -1.39      0.00
  -11    8    5      0.62      0.00
  -10    8    5      0.18      0.00
   -9    8    5     -1.32      0.00
   -8    8    5      0.11      0.00
   -7    8    5      2.51      0.00
   -6    8    5      1.89      0.00
   -5    8    5     -1.16      0.00
   -4    8    5     -2.58      0.00
   -3    8    5      0.38      0.00
   -2    8    5      1.93      0.00
   -1    8    5      0.01      0.00
    0    8    5     -2.35      0.00
    1    8    5     -2.25      0.00
    2    8    5      2.18      0.00
    3    8    5     -1.57      0.00
    4    8    5     -1.58      0.00
    5    8    5      1.21      0.00
    6    8    5      1.23      0.00
    7    8    5     -1.72      0.00
    8    8    5      0.71      0.00
    9    8    5     -1.40      0.00
  -15    9    5     -0.52      0.00
  -14    9    5      4.46      0.00
  -13    9    5     -4.00      0.00
  -12    9    5     -0.51      0.00
  -11    9    5     -0.72      0.00
  -10    9    5     -0.99      0.00
   -9    9    5      0.50      0.00
   -8    9    5     -3.07      0.00
   -7    9    5     -2.62      0.00
   -6    9    5      4.32      0.00
   -5    9    5     -0.33      0.00
   -4    9    5     -2.42      0.00
   -3    9    5     -0.57      0.00
   -2    9    5      0.56      0.00
   -1    9    5     -0.21      0.00
    0    9    5     -0.89      0.00
    1    9    5      1.39      0.00
    2    9    5     -2.64      0.00
    3    9    5      0.53      0.00
    4    9    5      0.83      0.00
    5    9    5     -0.12      0.00
    6    9    5     -2.08      0.00
    7    9    5     -0.49      0.00
    8    9    5      2.78      0.00
  -15   10    5      0.72      0.00
  -14   10    5     -1.75      0.00
  -13   10    5     -0.62      0.00
  -12   10    5      1.77      0.00
  -11   10    5     -1.63      0.00
  -10   10    5     -1.31      0.00
   -9   10    5      1.61      0.00
   -8   10    5     -1.06      0.00
   -7   10    5     -0.18      0.00
   -6   10    5      2.04      0.00
   -5   10    5     -0.89      0.00
   -4   10    5     -1.72      0.00
   -3   10    5      0.57      0.00
   -2   10    5      0.49      0.00
   -1   10    5     -1.64      0.00
    0   10    5      1.01      0.00
    1   10    5     -0.58      0.00
    2   10    5     -0.61      0.00
    3   10    5     -0.09      0.00
    4   10    5     -2.90      0.00
    5   10    5      2.72      0.00
    6   10    5      1.09      0.00
    7   10    5     -1.39      0.00
  -14   11    5      0.23      0.00
  -13   11    5     -2.30      0.00
  -12   11    5     -0.57      0.00
  -11   11    5     -3.48      0.00
  -10   11    5      1.19      0.00
   -9   11    5     -0.29      0.00
   -8   11    5     -1.06      0.00
   -7   11    5     -0.20      0.00
   -6   11    5      1.41      0.00
   -5   11    5     -0.85      0.00
   -4   11    5     -1.74      0.00
   -3   11    5     -0.53      0.00
   -2   11    5      0.47      0.00
   -1   11    5     -0.09      0.00
    0   11    5     -1.07      0.00
    1   11    5      0.81      0.00
    2   11    5     -1.58      0.00
    3   11    5      0.05      0.00
    4   11    5     -1.26      0.00
    5   11    5     -0.39      0.00
    6   11    5     -1.39      0.00
  -13   12    5      0.99      0.00
  -12   12    5      0.43      0.00
  -11   12    5      2.90      0.00
  -10   12    5     -3.54      0.00
   -9   12    5     -0.90      0.00
   -8   12    5      1.43      0.00
   -7   12    5     -1.40      0.00
   -6   12    5      0.11      0.00
   -5   12    5      1.08      0.00
   -4   12    5      1.08      0.00
   -3   12    5      0.11      0.00
   -2   12    5     -1.30      0.00
   -1   12    5     -1.43      0.00
    0   12    5      1.87      0.00
    1   12    5     -1.21      0.00
    2   12    5     -1.00      0.00
    3   12    5     -0.43      0.00
    4   12    5      0.01      0.00
    5   12    5      0.61      0.00
  -12   13    5      0.82      0.00
  -11   13    5     -1.74      0.00
  -10   13    5      0.08      0.00
   -9   13    5     -0.84      0.00
   -8   13    5      1.55      0.00
   -7   13    5      0.66      0.00
   -6   13    5     -0.35      0.00
   -5   13    5     -0.40      0.00
   -4   13    5     -1.41      0.00
   -3   13    5      1.32      0.00
   -2   13    5      0.43      0.00
   -1   13    5     -0.84      0.00
    0   13    5     -0.16      0.00
    1   13    5     -0.50      0.00
    2   13    5     -0.60      0.00
    3   13    5     -1.13      0.00
  -11   14    5      0.63      0.00
  -10   14    5     -0.83      0.00
   -9   14    5     -0.61      0.00
   -8   14    5     -0.19      0.00
   -7   14    5     -1.38      0.00
   -6   14    5      1.15      0.00
   -5   14    5      2.04      0.00
   -4   14    5      0.50      0.00
   -3   14    5      0.11      0.00
   -2   14    5     -1.19      0.00
   -1   14    5      0.74      0.00
    0   14    5     -0.64      0.00
    1   14    5     -0.11      0.00
   -9   15    5      0.94      0.00
   -8   15    5     -0.01      0.00
   -7   15    5     -0.09      0.00
   -6   15    5     -0.76      0.00
   -5   15    5     -0.54      0.00
   -4   15    5     -1.02      0.00
   -3   15    5      3.17      0.00
   -2   15    5     -1.06      0.00
   -1   15    5     -0.22      0.00
    0  -20    6     -0.39      0.00
    1  -20    6      0.33      0.00
    2  -20    6      1.25      0.00
    3  -20    6     -0.48      0.00
    4  -20    6     -0.71      0.00
    5  -20    6     -0.57      0.00
    6  -20    6      0.41      0.00
    7  -20    6      0.62      0.00
    8  -20    6      0.63      0.00
   -3  -19    6      0.95      0.00
   -2  -19    6     -0.46      0.00
   -1  -19    6     -0.99      0.00
    0  -19    6      0.05      0.00
    1  -19    6      0.97      0.00
    2  -19    6      0.56      0.00
    3  -19    6      0.72      0.00
    4  -19    6     -2.12      0.00
    5  -19    6      1.64      0.00
    6  -19    6     -1.46      0.00
    7  -19    6      0.58      0.00
    8  -19    6      0.06      0.00
    9  -19    6     -0.56      0.00
   10  -19    6      2.01      0.00
   -4  -18    6      1.77      0.00
   -3  -18    6      0.07      0.00
   -2  -18    6      0.33      0.00
   -1  -18    6      0.68      0.00
    0  -18    6     -0.02      0.00
    1  -18    6      1.40      0.00
    2  -18    6      0.99      0.00
    3  -18    6     -0.44      0.00
    4  -18    6      0.38      0.00
    5  -18    6     -0.86      0.00
    6  -18    6      0.39      0.00
    7  -18    6     -0.29      0.00
    8  -18    6     -1.43      0.00
    9  -18    6     -1.82      0.00
   10  -18    6     -1.32      0.00
   11  -18    6      2.17      0.00
   -6  -17    6      0.77      0.00
   -5  -17    6      1.10      0.00
   -4  -17    6      0.45      0.00
   -3  -17    6     -0.30      0.00
   -2  -17    6      1.49      0.00
   -1  -17    6     -0.17      0.00
    0  -17    6     -0.04      0.00
    1  -17    6      2.34      0.00
    2  -17    6      1.68      0.00
    3  -17    6     -0.36      0.00
    4  -17    6     -0.98      0.00
    5  -17    6     -1.15      0.00
    6  -17    6      1.92      0.00
    7  -17    6      1.16      0.00
    8  -17    6     -0.05      0.00
    9  -17    6      0.49      0.00
   10  -17    6     -0.99      0.00
   11  -17    6     -0.88      0.00
   12  -17    6     -0.17      0.00
   -7  -16    6     -1.99      0.00
   -6  -16    6     -1.76      0.00
   -5  -16    6      1.55      0.00
   -4  -16    6      1.53      0.00
   -3  -16    6     -0.14      0.00
   -2  -16    6      2.29      0.00
   -1  -16    6     -1.29      0.00
    0  -16    6     -1.14      0.00
    1  -16    6      3.03      0.00
    2  -16    6      0.22      0.00
    3  -16    6      0.80      0.00
    4  -16    6     -0.51      0.00
    5  -16    6     -1.09      0.00
    6  -16    6      1.45      0.00
    7  -16    6     -0.18      0.00
    8  -16    6     -1.97      0.00
    9  -16    6     -1.44      0.00
   10  -16    6     -0.35      0.00
   11  -16    6     -1.22      0.00
   12  -16    6      2.51      0.00
   -8  -15    6     -1.64      0.00
   -7  -15    6     -1.05      0.00
   -6  -15    6     -0.51      0.00
   -5  -15    6      1.62      0.00
   -4  -15    6     -1.83      0.00
   -3  -15    6      0.27      0.00
   -2  -15    6      1.47      0.00
   -1  -15    6      1.00      0.00
    0  -15    6      1.27      0.00
    1  -15    6      2.80      0.00
    2  -15    6      0.05      0.00
    3  -15    6      0.30      0.00
    4  -15    6      0.31      0.00
    5  -15    6     -1.94      0.00
    6  -15    6      4.92      0.00
    7  -15    6      0.68      0.00
    8  -15    6     -1.47      0.00
    9  -15    6      0.50      0.00
   10  -15    6     -0.87      0.00
   11  -15    6     -0.85      0.00
   12  -15    6      0.13      0.00
   13  -15    6     -0.08      0.00
   -9  -14    6     -1.62      0.00
   -8  -14    6      1.61      0.00
   -7  -14    6     -1.68      0.00
   -6  -14    6     -4.12      0.00
   -5  -14    6      2.35      0.00
   -4  -14    6      1.54      0.00
   -3  -14    6      1.07      0.00
   -2  -14    6     -0.27      0.00
   -1  -14    6     -2.21      0.00
    0  -14    6     -0.14      0.00
    1  -14    6      2.23      0.00
    2  -14    6      2.10      0.00
    3  -14    6     -0.31      0.00
    4  -14    6     -1.16      0.00
    5  -14    6     -2.13      0.00
    6  -14    6      1.13      0.00
    7  -14    6      2.17      0.00
    8  -14    6      1.05      0.00
    9  -14    6     -2.40      0.00
   10  -14    6      0.79      0.00
   11  -14    6      0.51      0.00
   12  -14    6      0.29      0.00
   13  -14    6      1.24      0.00
  -10  -13    6      0.71      0.00
   -9  -13    6      0.05      0.00
   -8  -13    6      1.56      0.00
   -7  -13    6     -0.26      0.00
   -6  -13    6     -1.81      0.00
   -5  -13    6     -0.85      0.00
   -4  -13    6     -0.89      0.00
   -3  -13    6      1.41      0.00
   -2  -13    6     -0.09      0.00
   -1  -13    6      1.81      0.00
    0  -13    6      2.61      0.00
    1  -13    6      0.65      0.00
    2  -13    6      1.44      0.00
    3  -13    6      1.65      0.00
    4  -13    6      1.57      0.00
    5  -13    6     -2.36      0.00
    6  -13    6      0.61      0.00
    7  -13    6      2.38      0.00
    8  -13    6      0.56      0.00
    9  -13    6     -2.25      0.00
   10  -13    6     -2.89      0.00
   11  -13    6      1.51      0.00
   12  -13    6      0.11      0.00
   13  -13    6     -0.15      0.00
   14  -13    6     -0.90      0.00
  -11  -12    6      0.83      0.00
  -10  -12    6     -0.18      0.00
   -9  -12    6     -0.64      0.00
   -8  -12    6      2.22      0.00
   -7  -12    6     -2.65      0.00
   -6  -12    6     -0.41      0.00
   -5  -12    6      0.66      0.00
   -4  -12    6      0.99      0.00
   -3  -12    6      1.77      0.00
   -2  -12    6     -3.79      0.00
   -1  -12    6     -2.10      0.00
    0  -12    6     -0.28      0.00
    1  -12    6      2.16      0.00
    2  -12    6      0.17      0.00
    3  -12    6     -0.55      0.00
    4  -12    6      1.13      0.00
    5  -12    6     -0.57      0.00
    6  -12    6      1.90      0.00
    7  -12    6      1.38      0.00
    8  -12    6      1.65      0.00
    9  -12    6     -1.31      0.00
   10  -12    6      0.57      0.00
   11  -12    6      1.79      0.00
   12  -12    6     -1.53      0.00
   13  -12    6      0.80      0.00
   14  -12    6      0.39      0.00
  -12  -11    6      0.46      0.00
  -11  -11    6      0.19      0.00
  -10  -11    6      1.49      0.00
   -9  -11    6     -0.11      0.00
   -8  -11    6     -0.62      0.00
   -7  -11    6      2.18      0.00
   -6  -11    6     -0.57      0.00
   -5  -11    6     -5.13      0.00
   -4  -11    6      1.15      0.00
   -3  -11    6      3.24      0.00
   -2  -11    6     -0.91      0.00
   -1  -11    6      0.32      0.00
    0  -11    6      4.00      0.00
    1  -11    6     -1.78      0.00
    2  -11    6      3.17      0.00
    3  -11    6      0.92      0.00
    4  -11    6     -3.27      0.00
    5  -11    6      0.49      0.00
    6  -11    6     -1.33      0.00
    7  -11    6      0.53      0.00
    8  -11    6      2.36      0.00
    9  -11    6     -2.83      0.00
   10  -11    6     -0.93      0.00
   11  -11    6     -0.77      0.00
   12  -11    6      1.01      0.00
   13  -11    6     -2.19      0.00
   14  -11    6     -1.23      0.00
  -12  -10    6     -0.08      0.00
  -11  -10    6      0.20      0.00
  -10  -10    6      0.50      0.00
   -9  -10    6     -0.37      0.00
   -8  -10    6      0.93      0.00
   -7  -10    6     -2.48      0.00
   -6  -10    6      0.32      0.00
   -5  -10    6      0.46      0.00
   -4  -10    6      2.50      0.00
   -3  -10    6     -1.69      0.00
   -2  -10    6     -3.37      0.00
   -1  -10    6     -0.40      0.00
    0  -10    6      0.13      0.00
    1  -10    6     -1.51      0.00
    2  -10    6      3.15      0.00
    3  -10    6     -2.84      0.00
    4  -10    6      4.05      0.00
    5  -10    6      3.41      0.00
    6  -10    6     -3.13      0.00
    7  -10    6      1.41      0.00
    8  -10    6      0.19      0.00
    9  -10    6     -0.47      0.00
   10  -10    6      0.30      0.00
   11  -10    6      0.85      0.00
   12  -10    6     -0.54      0.00
   13  -10    6      1.07      0.00
   14  -10    6      0.82      0.00
  -13   -9    6     -3.30      0.00
  -12   -9    6      1.16      0.00
  -11   -9    6      0.17      0.00
  -10   -9    6     -0.87      0.00
   -9   -9    6      0.31      0.00
   -8   -9    6      0.99      0.00
   -7   -9    6     -0.24      0.00
   -6   -9    6     -2.10      0.00
   -5   -9    6     -0.67      0.00
   -4   -9    6     -1.47      0.00
   -3   -9    6      3.18      0.00
   -2   -9    6      0.37      0.00
   -1   -9    6     -5.10      0.00
    0   -9    6     -3.84      0.00
    1   -9    6      2.62      0.00
    2   -9    6      0.18      0.00
    3   -9    6     -8.43      0.00
    4   -9    6      2.66      0.00
    5   -9    6      0.16      0.00
    6   -9    6     -2.08      0.00
    7   -9    6      2.75      0.00
    8   -9    6      0.05      0.00
    9   -9    6     -1.72      0.00
   10   -9    6      0.52      0.00
   11   -9    6     -0.67      0.00
   12   -9    6      1.54      0.00
   13   -9    6      0.09      0.00
   14   -9    6     -4.24      0.00
   15   -9    6     -1.78      0.00
  -13   -8    6     -0.16      0.00
  -12   -8    6     -1.49      0.00
  -11   -8    6      0.21      0.00
  -10   -8    6      1.35      0.00
   -9   -8    6     -0.54      0.00
   -8   -8    6     -2.52      0.00
   -7   -8    6      1.15      0.00
   -6   -8    6      0.51      0.00
   -5   -8    6     -1.16      0.00
   -4   -8    6      0.15      0.00
   -3   -8    6     -3.22      0.00
   -2   -8    6     -1.31      0.00
   -1   -8    6      5.05      0.00
    0   -8    6     -6.33      0.00
    1   -8    6      1.65      0.00
    2   -8    6      3.70      0.00
    3   -8    6     -5.52      0.00
    4   -8    6      3.00      0.00
    5   -8    6      4.18      0.00
    6   -8    6     -3.45      0.00
    7   -8    6     -2.48      0.00
    8   -8    6      2.74      0.00
    9   -8    6     -0.90      0.00
   10   -8    6     -1.73      0.00
   11   -8    6      1.54      0.00
   12   -8    6      0.71      0.00
   13   -8    6      4.56      0.00
   14   -8    6     -1.21      0.00
   15   -8    6      0.06      0.00
  -14   -7    6     -2.27      0.00
  -13   -7    6     -0.80      0.00
  -12   -7    6      0.06      0.00
  -11   -7    6     -0.19      0.00
  -10   -7    6      1.99      0.00
   -9   -7    6     -0.97      0.00
   -8   -7    6     -0.45      0.00
   -7   -7    6     -1.25      0.00
   -6   -7    6      0.09      0.00
   -5   -7    6      2.25      0.00
   -4   -7    6      1.12      0.00
   -3   -7    6      2.14      0.00
   -2   -7    6     -8.13      0.00
   -1   -7    6     -4.91      0.00
    0   -7    6     -9.91      0.00
    1   -7    6      4.01      0.00
    2   -7    6     -6.97      0.00
    3   -7    6     -3.92      0.00
    4   -7    6      3.21      0.00
    5   -7    6     -2.77      0.00
    6   -7    6      2.00      0.00
    7   -7    6     -1.61      0.00
    8   -7    6      0.44      0.00
    9   -7    6     -0.02      0.00
   10   -7    6     -0.18      0.00
   11   -7    6     -0.38      0.00
   12   -7    6      0.25      0.00
   13   -7    6     -0.01      0.00
   14   -7    6      1.21      0.00
   15   -7    6     -1.49      0.00
  -14   -6    6      0.94      0.00
  -13   -6    6     -1.65      0.00
  -12   -6    6     -0.21      0.00
  -11   -6    6     -2.82      0.00
  -10   -6    6      1.74      0.00
   -9   -6    6      0.39      0.00
   -8   -6    6     -2.25      0.00
   -7   -6    6      0.26      0.00
   -6   -6    6      0.00      0.00
   -5   -6    6      1.08      0.00
   -4   -6    6     -2.15      0.00
   -3   -6    6     -0.81      0.00
   -2   -6    6      3.37      0.00
   -1   -6    6     -7.38      0.00
    0   -6    6     -4.56      0.00
    1   -6    6      1.96      0.00
    2   -6    6     -1.19      0.00
    3   -6    6     -6.42      0.00
    4   -6    6      9.64      0.00
    5   -6    6     -3.83      0.00
    6   -6    6     -1.45      0.00
    7   -6    6      4.01      0.00
    8   -6    6     -3.81      0.00
    9   -6    6      0.28      0.00
   10   -6    6     -0.69      0.00
   11   -6    6      0.32      0.00
   12   -6    6     -0.28      0.00
   13   -6    6      2.49      0.00
   14   -6    6     -0.35      0.00
  -15   -5    6     -1.01      0.00
  -14   -5    6     -2.44      0.00
  -13   -5    6     -0.21      0.00
  -12   -5    6     -1.39      0.00
  -11   -5    6     -1.26      0.00
  -10   -5    6      1.38      0.00
   -9   -5    6      2.28      0.00
   -8   -5    6     -1.28      0.00
   -7   -5    6     -3.16      0.00
   -6   -5    6      1.12      0.00
   -5   -5    6      0.25      0.00
   -4   -5    6      7.62      0.00
   -3   -5    6     -1.80      0.00
   -2   -5    6     -6.84      0.00
   -1   -5    6     -1.72      0.00
    0   -5    6    -20.62      0.00
    1   -5    6     17.11      0.00
    2   -5    6    -17.47      0.00
    3   -5    6      1.67      0.00
    4   -5    6      1.40      0.00
    5   -5    6     -3.03      0.00
    6   -5    6      2.95      0.00
    7   -5    6     -1.55      0.00
    8   -5    6     -1.86      0.00
    9   -5    6      1.69      0.00
   10   -5    6      0.36      0.00
   11   -5    6      0.29      0.00
   12   -5    6     -1.62      0.00
   13   -5    6      1.76      0.00
   14   -5    6      1.07      0.00
  -15   -4    6      1.26      0.00
  -14   -4    6     -0.08      0.00
  -13   -4    6     -2.49      0.00
  -12   -4    6      0.95      0.00
  -11   -4    6     -2.68      0.00
  -10   -4    6     -1.43      0.00
   -9   -4    6     -0.49      0.00
   -8   -4    6      1.12      0.00
   -7   -4    6      0.55      0.00
   -6   -4    6     -2.13      0.00
   -5   -4    6     -1.16      0.00
   -4   -4    6      4.62      0.00
   -3   -4    6     -6.99      0.00
   -2   -4    6     -1.93      0.00
   -1   -4    6     -0.62      0.00
    0   -4    6    -15.69      0.00
    1   -4    6     -8.12      0.00
    2   -4    6     15.67      0.00
    3   -4    6     -5.93      0.00
    4   -4    6     -6.98      0.00
    5   -4    6      4.97      0.00
    6   -4    6      1.96      0.00
    7   -4    6     -2.49      0.00
    8   -4    6      3.49      0.00
    9   -4    6     -4.51      0.00
   10   -4    6     -0.49      0.00
   11   -4    6     -0.70      0.00
   12   -4    6     -2.37      0.00
   13   -4    6      2.51      0.00
   14   -4    6     -3.07      0.00
  -15   -3    6      0.43      0.00
  -14   -3    6     -1.70      0.00
  -13   -3    6     -2.11      0.00
  -12   -3    6     -0.61      0.00
  -11   -3    6     -3.89      0.00
  -10   -3    6      3.19      0.00
   -9   -3    6     -0.49      0.00
   -8   -3    6     -2.16      0.00
   -7   -3    6      0.68      0.00
   -6   -3    6     -0.63      0.00
   -5   -3    6      2.77      0.00
   -4   -3    6      3.21      0.00
   -3   -3    6      2.69      0.00
   -2   -3    6     -2.83      0.00
   -1   -3    6      4.47      0.00
    0   -3    6    -20.62      0.00
    1   -3    6     -5.34      0.00
    2   -3    6     12.75      0.00
    3   -3    6     -9.58      0.00
    4   -3    6      1.72      0.00
    5   -3    6      0.39      0.00
    6   -3    6     -4.85      0.00
    7   -3    6      3.46      0.00
    8   -3    6      0.04      0.00
    9   -3    6      0.11      0.00
   10   -3    6     -0.25      0.00
   11   -3    6      1.00      0.00
   12   -3    6      1.84      0.00
   13   -3    6     -2.63      0.00
   14   -3    6     -0.28      0.00
  -16   -2    6     -0.22      0.00
  -15   -2    6      0.26      0.00
  -14   -2    6      0.77      0.00
  -13   -2    6     -0.46      0.00
  -12   -2    6     -2.56      0.00
  -11   -2    6     -1.61      0.00
  -10   -2    6     -0.67      0.00
   -9   -2    6      1.78      0.00
   -8   -2    6     -2.31      0.00
   -7   -2    6     -0.40      0.00
   -6   -2    6     -3.54      0.00
   -5   -2    6      0.78      0.00
   -4   -2    6      5.06      0.00
   -3   -2    6    -13.26      0.00
   -2   -2    6      7.79      0.00
   -1   -2    6     -2.65      0.00
    0   -2    6    -22.85      0.00
    1   -2    6     10.65      0.00
    2   -2    6     -3.04      0.00
    3   -2    6     -0.49      0.00
    4   -2    6     -3.38      0.00
    5   -2    6      2.21      0.00
    6   -2    6     -0.54      0.00
    7   -2    6      0.39      0.00
    8   -2    6     -1.05      0.00
    9   -2    6      1.07      0.00
   10   -2    6      0.22      0.00
   11   -2    6     -3.38      0.00
   12   -2    6      4.04      0.00
   13   -2    6      0.77      0.00
   14   -2    6     -1.81      0.00
  -16   -1    6     -0.35      0.00
  -15   -1    6     -0.03      0.00
  -14   -1    6      0.47      0.00
  -13   -1    6     -1.67      0.00
  -12   -1    6     -0.50      0.00
  -11   -1    6     -1.69      0.00
  -10   -1    6     -1.08      0.00
   -9   -1    6     -0.17      0.00
   -8   -1    6      4.09      0.00
   -7   -1    6     -5.73      0.00
   -6   -1    6     -1.85      0.00
   -5   -1    6      8.12      0.00
   -4   -1    6     -0.40      0.00
   -3   -1    6     -4.54      0.00
   -2   -1    6      0.50      0.00
   -1   -1    6      3.27      0.00
    0   -1    6    -12.96      0.00
    1   -1    6      0.93      0.00
    2   -1    6      5.70      0.00
    3   -1    6     -5.46      0.00
    4   -1    6      6.01      0.00
    5   -1    6     -7.80      0.00
    6   -1    6      2.54      0.00
    7   -1    6     -1.32      0.00
    8   -1    6      0.78      0.00
    9   -1    6      1.26      0.00
   10   -1    6     -0.48      0.00
   11   -1    6     -1.07      0.00
   12   -1    6      1.09      0.00
   13   -1    6     -2.83      0.00
  -16    0    6      0.41      0.00
  -15    0    6      0.02      0.00
  -14    0    6     -0.99      0.00
  -13    0    6     -0.83      0.00
  -12    0    6      0.71      0.00
  -11    0    6     -0.32      0.00
  -10    0    6     -3.06      0.00
   -9    0    6      3.90      0.00
   -8    0    6     -1.01      0.00
   -7    0    6     -4.41      0.00
   -6    0    6      2.04      0.00
   -5    0    6     -2.19      0.00
   -4    0    6     -0.36      0.00
   -3    0    6     14.62      0.00
   -2    0    6     -2.46      0.00
   -1    0    6    -14.73      0.00
    0    0    6     -3.42      0.00
    1    0    6      7.34      0.00
    2    0    6     -3.27      0.00
    3    0    6     -6.91      0.00
    4    0    6      8.31      0.00
    5    0    6     -0.98      0.00
    6    0    6     -4.41      0.00
    7    0    6      1.25      0.00
    8    0    6      0.24      0.00
    9    0    6      0.32      0.00
   10    0    6      0.47      0.00
   11    0    6      3.74      0.00
   12    0    6      0.54      0.00
   13    0    6     -1.05      0.00
  -16    1    6     -1.02      0.00
  -15    1    6      0.82      0.00
  -14    1    6     -0.20      0.00
  -13    1    6     -2.87      0.00
  -12    1    6      0.42      0.00
  -11    1    6     -0.23      0.00
  -10    1    6     -0.63      0.00
   -9    1    6      2.56      0.00
   -8    1    6     -2.89      0.00
   -7    1    6      2.92      0.00
   -6    1    6     -3.50      0.00
   -5    1    6     -8.32      0.00
   -4    1    6      3.33      0.00
   -3    1    6      1.41      0.00
   -2    1    6     -9.60      0.00
   -1    1    6      5.80      0.00
    0    1    6     -4.09      0.00
    1    1    6     -0.30      0.00
    2    1    6      6.59      0.00
    3    1    6     -1.39      0.00
    4    1    6     -3.60      0.00
    5    1    6      2.07      0.00
    6    1    6      0.36      0.00
    7    1    6     -3.05      0.00
    8    1    6      1.84      0.00
    9    1    6     -1.25      0.00
   10    1    6      1.31      0.00
   11    1    6      1.32      0.00
   12    1    6     -0.55      0.00
  -16    2    6      0.31      0.00
  -15    2    6     -0.89      0.00
  -14    2    6      1.89      0.00
  -13    2    6     -1.46      0.00
  -12    2    6      0.66      0.00
  -11    2    6     -2.63      0.00
  -10    2    6      1.71      0.00
   -9    2    6      0.55      0.00
   -8    2    6     -3.02      0.00
   -7    2    6      3.91      0.00
   -6    2    6      0.34      0.00
   -5    2    6     -2.91      0.00
   -4    2    6     12.39      0.00
   -3    2    6      4.43      0.00
   -2    2    6     -4.79      0.00
   -1    2    6      3.91      0.00
    0    2    6    -11.50      0.00
    1    2    6      3.76      0.00
    2    2    6      3.09      0.00
    3    2    6     -4.20      0.00
    4    2    6      2.45      0.00
    5    2    6      3.27      0.00
    6    2    6     -5.95      0.00
    7    2    6      0.34      0.00
    8    2    6      2.31      0.00
    9    2    6     -3.90      0.00
   10    2    6      2.28      0.00
   11    2    6      0.58      0.00
   12    2    6      0.12      0.00
  -16    3    6      0.07      0.00
  -15    3    6      0.27      0.00
  -14    3    6     -0.16      0.00
  -13    3    6     -1.49      0.00
  -12    3    6     -0.08      0.00
  -11    3    6      2.06      0.00
  -10    3    6     -1.36      0.00
   -9    3    6     -0.28      0.00
   -8    3    6      1.42      0.00
   -7    3    6     -4.39      0.00
   -6    3    6     -3.99      0.00
   -5    3    6     -2.69      0.00
   -4    3    6     -4.08      0.00
   -3    3    6      1.70      0.00
   -2    3    6      0.62      0.00
   -1    3    6      0.69      0.00
    0    3    6     -1.87      0.00
    1    3    6      6.94      0.00
    2    3    6      0.07      0.00
    3    3    6     -3.00      0.00
    4    3    6      1.12      0.00
    5    3    6     -0.55      0.00
    6    3    6      0.76      0.00
    7    3    6      0.87      0.00
    8    3    6     -2.93      0.00
    9    3    6      0.79      0.00
   10    3    6      0.21      0.00
   11    3    6     -0.30      0.00
  -16    4    6     -1.07      0.00
  -15    4    6     -0.34      0.00
  -14    4    6      2.49      0.00
  -13    4    6     -0.71      0.00
  -12    4    6      0.82      0.00
  -11    4    6     -1.13      0.00
  -10    4    6      1.54      0.00
   -9    4    6     -1.58      0.00
   -8    4    6      3.70      0.00
   -7    4    6     -2.19      0.00
   -6    4    6     -0.43      0.00
   -5    4    6      2.83      0.00
   -4    4    6      3.59      0.00
   -3    4    6     -0.74      0.00
   -2    4    6      1.07      0.00
   -1    4    6      0.02      0.00
    0    4    6     -1.66      0.00
    1    4    6      2.96      0.00
    2    4    6     -0.02      0.00
    3    4    6      3.48      0.00
    4    4    6     -1.08      0.00
    5    4    6      0.54      0.00
    6    4    6     -2.16      0.00
    7    4    6     -2.70      0.00
    8    4    6      2.14      0.00
    9    4    6     -1.51      0.00
   10    4    6     -0.54      0.00
   11    4    6      2.10      0.00
  -16    5    6     -0.56      0.00
  -15    5    6     -0.20      0.00
  -14    5    6      0.07      0.00
  -13    5    6     -0.15      0.00
  -12    5    6      1.24      0.00
  -11    5    6      1.07      0.00
  -10    5    6      0.29      0.00
   -9    5    6     -0.35      0.00
   -8    5    6      1.73      0.00
   -7    5    6     -0.05      0.00
   -6    5    6     -6.10      0.00
   -5    5    6      1.72      0.00
   -4    5    6      2.42      0.00
   -3    5    6      0.06      0.00
   -2    5    6      1.08      0.00
   -1    5    6     -3.11      0.00
    0    5    6      3.27      0.00
    1    5    6      3.28      0.00
    2    5    6      0.66      0.00
    3    5    6     -0.44      0.00
    4    5    6     -2.72      0.00
    5    5    6      4.79      0.00
    6    5    6     -1.18      0.00
    7    5    6     -0.97      0.00
    8    5    6      1.09      0.00
    9    5    6     -2.31      0.00
   10    5    6     -2.80      0.00
  -16    6    6     -0.53      0.00
  -15    6    6      1.67      0.00
  -14    6    6      0.43      0.00
  -13    6    6      0.44      0.00
  -12    6    6      0.07      0.00
  -11    6    6      0.78      0.00
  -10    6    6      0.58      0.00
   -9    6    6     -0.43      0.00
   -8    6    6     -0.67      0.00
   -7    6    6     -0.92      0.00
   -6    6    6      1.43      0.00
   -5    6    6     -5.36      0.00
   -4    6    6      2.43      0.00
   -3    6    6      3.07      0.00
   -2    6    6     -2.28      0.00
   -1    6    6      1.26      0.00
    0    6    6      0.74      0.00
    1    6    6      3.44      0.00
    2    6    6     -0.95      0.00
    3    6    6      2.30      0.00
    4    6    6      0.73      0.00
    5    6    6     -1.62      0.00
    6    6    6      0.81      0.00
    7    6    6     -1.70      0.00
    8    6    6      3.07      0.00
    9    6    6     -1.67      0.00
   10    6    6      1.26      0.00
  -16    7    6      0.84      0.00
  -15    7    6     -2.19      0.00
  -14    7    6      2.29      0.00
  -13    7    6      0.31      0.00
  -12    7    6     -0.74      0.00
  -11    7    6      1.55      0.00
  -10    7    6      2.06      0.00
   -9    7    6      0.93      0.00
   -8    7    6      2.31      0.00
   -7    7    6     -0.42      0.00
   -6    7    6     -0.25      0.00
   -5    7    6     -0.23      0.00
   -4    7    6      0.95      0.00
   -3    7    6      1.63      0.00
   -2    7    6      0.08      0.00
   -1    7    6     -1.62      0.00
    0    7    6      2.18      0.00
    1    7    6      1.55      0.00
    2    7    6     -0.14      0.00
    3    7    6     -0.07      0.00
    4    7    6      2.14      0.00
    5    7    6      0.24      0.00
    6    7    6     -0.90      0.00
    7    7    6     -1.94      0.00
    8    7    6      1.84      0.00
    9    7    6     -1.06      0.00
  -15    8    6      0.79      0.00
  -14    8    6      1.05      0.00
  -13    8    6      0.22      0.00
  -12    8    6      1.12      0.00
  -11    8    6     -0.04      0.00
  -10    8    6      0.39      0.00
   -9    8    6      0.66      0.00
   -8    8    6     -0.54      0.00
   -7    8    6      0.02      0.00
   -6    8    6     -0.92      0.00
   -5    8    6      0.10      0.00
   -4    8    6     -0.03      0.00
   -3    8    6      1.21      0.00
   -2    8    6     -1.44      0.00
   -1    8    6      0.66      0.00
    0    8    6      1.43      0.00
    1    8    6      0.49      0.00
    2    8    6      0.46      0.00
    3    8    6      1.14      0.00
    4    8    6      0.35      0.00
    5    8    6     -0.17      0.00
    6    8    6      0.93      0.00
    7    8    6     -0.70      0.00
    8    8    6      0.15      0.00
  -15    9    6     -0.99      0.00
  -14    9    6     -0.47      0.00
  -13    9    6      2.71      0.00
  -12    9    6      0.75      0.00
  -11    9    6      0.50      0.00
  -10    9    6     -0.70      0.00
   -9    9    6      2.13      0.00
   -8    9    6      1.59      0.00
   -7    9    6     -0.78      0.00
   -6    9    6      0.00      0.00
   -5    9    6      0.68      0.00
   -4    9    6      2.78      0.00
   -3    9    6     -1.99      0.00
   -2    9    6     -0.08      0.00
   -1    9    6      0.13      0.00
    0    9    6      0.41      0.00
    1    9    6      1.31      0.00
    2    9    6     -0.10      0.00
    3    9    6      2.74      0.00
    4    9    6      0.35      0.00
    5    9    6     -1.57      0.00
    6    9    6      3.89      0.00
    7    9    6     -1.22      0.00
  -14   10    6      1.16      0.00
  -13   10    6     -2.88      0.00
  -12   10    6     -0.10      0.00
  -11   10    6      2.46      0.00
  -10   10    6     -1.11      0.00
   -9   10    6      0.14      0.00
   -8   10    6      3.51      0.00
   -7   10    6     -1.21      0.00
   -6   10    6     -2.80      0.00
   -5   10    6      1.38      0.00
   -4   10    6     -0.43      0.00
   -3   10    6      0.29      0.00
   -2   10    6      0.51      0.00
   -1   10    6      0.86      0.00
    0   10    6     -1.86      0.00
    1   10    6     -0.09      0.00
    2   10    6      0.59      0.00
    3   10    6      1.09      0.00
    4   10    6      1.86      0.00
    5   10    6     -2.13      0.00
    6   10    6      0.65      0.00
  -14   11    6     -0.81      0.00
  -13   11    6      0.34      0.00
  -12   11    6      3.03      0.00
  -11   11    6     -1.15      0.00
  -10   11    6     -0.69      0.00
   -9   11    6     -1.32      0.00
   -8   11    6      1.24      0.00
   -7   11    6      0.44      0.00
   -6   11    6     -1.70      0.00
   -5   11    6      2.69      0.00
   -4   11    6      1.41      0.00
   -3   11    6     -0.96      0.00
   -2   11    6      0.32      0.00
   -1   11    6     -0.88      0.00
    0   11    6      2.10      0.00
    1   11    6     -0.67      0.00
    2   11    6      0.28      0.00
    3   11    6      4.02      0.00
    4   11    6     -1.04      0.00
    5   11    6      1.27      0.00
  -13   12    6     -0.94      0.00
  -12   12    6      1.08      0.00
  -11   12    6     -1.23      0.00
  -10   12    6     -0.16      0.00
   -9   12    6      1.68      0.00
   -8   12    6      0.08      0.00
   -7   12    6      0.21      0.00
   -6   12    6     -0.79      0.00
   -5   12    6     -2.54      0.00
   -4   12    6      0.40      0.00
   -3   12    6     -0.86      0.00
   -2   12    6      1.87      0.00
   -1   12    6      1.22      0.00
    0   12    6     -2.05      0.00
    1   12    6      0.53      0.00
    2   12    6      0.95      0.00
    3   12    6      0.28      0.00
  -12   13    6      0.29      0.00
  -11   13    6     -0.21      0.00
  -10   13    6      0.72      0.00
   -9   13    6     -0.27      0.00
   -8   13    6     -2.17      0.00
   -7   13    6      0.42      0.00
   -6   13    6      2.01      0.00
   -5   13    6      0.04      0.00
   -4   13    6     -0.57      0.00
   -3   13    6      0.15      0.00
   -2   13    6     -1.46      0.00
   -1   13    6      1.28      0.00
    0   13    6      0.26      0.00
    1   13    6     -0.62      0.00
    2   13    6      1.27      0.00
  -10   14    6      1.17      0.00
   -9   14    6      0.87      0.00
   -8   14    6     -0.44      0.00
   -7   14    6      0.24      0.00
   -6   14    6     -2.68      0.00
   -5   14    6     -0.20      0.00
   -4   14    6      0.07      0.00
   -3   14    6     -0.64      0.00
   -2   14    6     -0.29      0.00
   -1   14    6      0.71      0.00
    0   14    6     -0.32      0.00
   -7   15    6      0.06      0.00
   -6   15    6      3.46      0.00
   -5   15    6     -0.17      0.00
   -4   15    6     -1.36      0.00
   -1  -20    7     -1.20      0.00
    0  -20    7     -0.06      0.00
    1  -20    7     -1.75      0.00
    2  -20    7     -0.76      0.00
    3  -20    7      0.67      0.00
    4  -20    7      0.98      0.00
    5  -20    7      1.14      0.00
    6  -20    7      0.65      0.00
    7  -20    7     -0.44      0.00
    8  -20    7      1.71      0.00
   -3  -19    7     -1.21      0.00
   -2  -19    7      0.24      0.00
   -1  -19    7      0.02      0.00
    0  -19    7     -1.08      0.00
    1  -19    7     -1.00      0.00
    2  -19    7      0.62      0.00
    3  -19    7     -1.48      0.00
    4  -19    7     -0.38      0.00
    5  -19    7     -0.09      0.00
    6  -19    7     -1.46      0.00
    7  -19    7      0.71      0.00
    8  -19    7     -2.75      0.00
    9  -19    7      3.19      0.00
   10  -19    7     -0.67      0.00
   -5  -18    7      0.76      0.00
   -4  -18    7     -1.09      0.00
   -3  -18    7     -0.58      0.00
   -2  -18    7      1.40      0.00
   -1  -18    7     -0.45      0.00
    0  -18    7     -1.17      0.00
    1  -18    7     -0.92      0.00
    2  -18    7     -0.69      0.00
    3  -18    7      0.19      0.00
    4  -18    7      0.10      0.00
    5  -18    7      0.16      0.00
    6  -18    7      1.18      0.00
    7  -18    7     -0.33      0.00
    8  -18    7      3.35      0.00
    9  -18    7      2.45      0.00
   10  -18    7     -0.54      0.00
   11  -18    7     -0.67      0.00
   -6  -17    7      0.61      0.00
   -5  -17    7      2.09      0.00
   -4  -17    7     -1.96      0.00
   -3  -17    7     -1.23      0.00
   -2  -17    7     -0.16      0.00
   -1  -17    7     -0.39      0.00
    0  -17    7     -1.36      0.00
    1  -17    7     -1.67      0.00
    2  -17    7     -0.91      0.00
    3  -17    7     -0.38      0.00
    4  -17    7      1.33      0.00
    5  -17    7     -0.75      0.00
    6  -17    7     -3.27      0.00
    7  -17    7      0.19      0.00
    8  -17    7     -2.02      0.00
    9  -17    7      2.03      0.00
   10  -17    7      1.53      0.00
   11  -17    7      1.48      0.00
   12  -17    7      1.09      0.00
   -7  -16    7      1.72      0.00
   -6  -16    7      0.22      0.00
   -5  -16    7     -0.70      0.00
   -4  -16    7     -0.55      0.00
   -3  -16    7     -0.59      0.00
   -2  -16    7      0.41      0.00
   -1  -16    7      2.67      0.00
    0  -16    7     -0.62      0.00
    1  -16    7     -1.52      0.00
    2  -16    7     -1.08      0.00
    3  -16    7     -0.90      0.00
    4  -16    7      2.03      0.00
    5  -16    7      0.57      0.00
    6  -16    7     -1.05      0.00
    7  -16    7      0.08      0.00
    8  -16    7     -0.01      0.00
    9  -16    7      1.01      0.00
   10  -16    7      0.40      0.00
   11  -16    7      1.18      0.00
   12  -16    7     -2.92      0.00
   -9  -15    7      0.67      0.00
   -8  -15    7      0.21      0.00
   -7  -15    7      0.08      0.00
   -6  -15    7      0.87      0.00
   -5  -15    7      3.83      0.00
   -4  -15    7     -1.14      0.00
   -3  -15    7     -0.42      0.00
   -2  -15    7     -1.52      0.00
   -1  -15    7      0.46      0.00
    0  -15    7      1.13      0.00
    1  -15    7     -2.48      0.00
    2  -15    7     -1.99      0.00
    3  -15    7     -0.30      0.00
    4  -15    7      0.25      0.00
    5  -15    7     -1.62      0.00
    6  -15    7     -2.38      0.00
    7  -15    7      1.78      0.00
    8  -15    7     -0.44      0.00
    9  -15    7      0.85      0.00
   10  -15    7      0.64      0.00
   11  -15    7      2.38      0.00
   12  -15    7      0.08      0.00
   13  -15    7     -0.42      0.00
   -9  -14    7     -0.30      0.00
   -8  -14    7     -0.23      0.00
   -7  -14    7      2.08      0.00
   -6  -14    7      0.32      0.00
   -5  -14    7     -0.72      0.00
   -4  -14    7     -0.84      0.00
   -3  -14    7      0.99      0.00
   -2  -14    7      0.70      0.00
   -1  -14    7      3.08      0.00
    0  -14    7     -0.04      0.00
    1  -14    7     -0.84      0.00
    2  -14    7     -0.18      0.00
    3  -14    7     -0.67      0.00
    4  -14    7      2.34      0.00
    5  -14    7     -0.64      0.00
    6  -14    7     -2.13      0.00
    7  -14    7     -0.41      0.00
    8  -14    7     -1.56      0.00
    9  -14    7      1.22      0.00
   10  -14    7     -0.71      0.00
   11  -14    7      0.24      0.00
   12  -14    7      0.09      0.00
   13  -14    7     -1.34      0.00
  -10  -13    7     -1.46      0.00
   -9  -13    7      0.36      0.00
   -8  -13    7     -0.57      0.00
   -7  -13    7     -3.22      0.00
   -6  -13    7      5.28      0.00
   -5  -13    7      0.95      0.00
   -4  -13    7     -1.58      0.00
   -3  -13    7     -0.12      0.00
   -2  -13    7     -1.27      0.00
   -1  -13    7      1.08      0.00
    0  -13    7      0.97      0.00
    1  -13    7     -1.57      0.00
    2  -13    7     -2.75      0.00
    3  -13    7     -0.66      0.00
    4  -13    7      0.45      0.00
    5  -13    7     -0.38      0.00
    6  -13    7      1.19      0.00
    7  -13    7     -1.85      0.00
    8  -13    7      1.43      0.00
    9  -13    7      0.17      0.00
   10  -13    7      1.33      0.00
   11  -13    7      1.74      0.00
   12  -13    7      0.13      0.00
   13  -13    7      1.18      0.00
   14  -13    7      0.48      0.00
  -11  -12    7      1.10      0.00
  -10  -12    7     -0.40      0.00
   -9  -12    7     -0.62      0.00
   -8  -12    7      0.06      0.00
   -7  -12    7      1.59      0.00
   -6  -12    7     -0.57      0.00
   -5  -12    7     -1.08      0.00
   -4  -12    7      1.67      0.00
   -3  -12    7      0.96      0.00
   -2  -12    7      1.03      0.00
   -1  -12    7      3.04      0.00
    0  -12    7      2.30      0.00
    1  -12    7     -0.63      0.00
    2  -12    7      2.28      0.00
    3  -12    7     -2.79      0.00
    4  -12    7      0.10      0.00
    5  -12    7      1.24      0.00
    6  -12    7     -4.95      0.00
    7  -12    7      0.40      0.00
    8  -12    7      1.57      0.00
    9  -12    7     -0.18      0.00
   10  -12    7     -0.61      0.00
   11  -12    7      0.06      0.00
   12  -12    7      0.02      0.00
   13  -12    7     -0.18      0.00
   14  -12    7     -1.41      0.00
  -12  -11    7      0.57      0.00
  -11  -11    7      2.01      0.00
  -10  -11    7      0.21      0.00
   -9  -11    7     -1.51      0.00
   -8  -11    7     -0.77      0.00
   -7  -11    7      0.12      0.00
   -6  -11    7      2.89      0.00
   -5  -11    7      0.63      0.00
   -4  -11    7     -2.03      0.00
   -3  -11    7     -1.57      0.00
   -2  -11    7      1.86      0.00
   -1  -11    7      2.51      0.00
    0  -11    7      0.41      0.00
    1  -11    7      0.30      0.00
    2  -11    7      1.01      0.00
    3  -11    7     -2.56      0.00
    4  -11    7      4.30      0.00
    5  -11    7      2.19      0.00
    6  -11    7     -4.52      0.00
    7  -11    7      1.61      0.00
    8  -11    7      1.45      0.00
    9  -11    7     -2.73      0.00
   10  -11    7      2.26      0.00
   11  -11    7      0.73      0.00
   12  -11    7      0.52      0.00
   13  -11    7      2.13      0.00
   14  -11    7      3.08      0.00
  -12  -10    7     -0.37      0.00
  -11  -10    7     -0.88      0.00
  -10  -10    7      0.81      0.00
   -9  -10    7      1.35      0.00
   -8  -10    7     -1.07      0.00
   -7  -10    7      1.49      0.00
   -6  -10    7     -2.19      0.00
   -5  -10    7      3.27      0.00
   -4  -10    7      1.13      0.00
   -3  -10    7     -0.16      0.00
   -2  -10    7      0.49      0.00
   -1  -10    7      1.43      0.00
    0  -10    7      2.90      0.00
    1  -10    7      2.29      0.00
    2  -10    7      2.41      0.00
    3  -10    7     -6.79      0.00
    4  -10    7      4.18      0.00
    5  -10    7     -2.29      0.00
    6  -10    7     -0.71      0.00
    7  -10    7      2.39      0.00
    8  -10    7     -1.75      0.00
    9  -10    7      1.25      0.00
   10  -10    7      0.83      0.00
   11  -10    7     -1.32      0.00
   12  -10    7     -0.27      0.00
   13  -10    7     -1.66      0.00
   14  -10    7      1.23      0.00
  -13   -9    7      0.05      0.00
  -12   -9    7      0.91      0.00
  -11   -9    7      1.38      0.00
  -10   -9    7      1.38      0.00
   -9   -9    7     -1.24      0.00
   -8   -9    7     -0.89      0.00
   -7   -9    7      2.08      0.00
   -6   -9    7      0.66      0.00
   -5   -9    7     -3.18      0.00
   -4   -9    7     -0.87      0.00
   -3   -9    7      0.24      0.00
   -2   -9    7      8.03      0.00
   -1   -9    7      2.14      0.00
    0   -9    7      1.72      0.00
    1   -9    7      5.58      0.00
    2   -9    7     -0.39      0.00
    3   -9    7      0.63      0.00
    4   -9    7      3.25      0.00
    5   -9    7     -2.95      0.00
    6   -9    7      3.66      0.00
    7   -9    7     -1.98      0.00
    8   -9    7     -0.79      0.00
    9   -9    7      1.17      0.00
   10   -9    7     -1.20      0.00
   11   -9    7      0.97      0.00
   12   -9    7      0.02      0.00
   13   -9    7     -0.43      0.00
   14   -9    7      3.43      0.00
  -14   -8    7     -0.32      0.00
  -13   -8    7      0.81      0.00
  -12   -8    7     -0.22      0.00
  -11   -8    7     -0.45      0.00
  -10   -8    7      1.88      0.00
   -9   -8    7      0.31      0.00
   -8   -8    7      1.48      0.00
   -7   -8    7     -3.06      0.00
   -6   -8    7      2.54      0.00
   -5   -8    7      3.93      0.00
   -4   -8    7     -4.27      0.00
   -3   -8    7      2.77      0.00
   -2   -8    7     -3.58      0.00
   -1   -8    7      5.31      0.00
    0   -8    7      4.78      0.00
    1   -8    7     -0.02      0.00
    2   -8    7      4.73      0.00
    3   -8    7     -4.85      0.00
    4   -8    7      2.94      0.00
    5   -8    7     -2.63      0.00
    6   -8    7      1.11      0.00
    7   -8    7      1.14      0.00
    8   -8    7     -1.66      0.00
    9   -8    7      2.33      0.00
   10   -8    7     -0.30      0.00
   11   -8    7     -1.34      0.00
   12   -8    7     -1.08      0.00
   13   -8    7     -1.63      0.00
   14   -8    7      3.80      0.00
  -14   -7    7      1.75      0.00
  -13   -7    7      1.45      0.00
  -12   -7    7     -1.15      0.00
  -11   -7    7     -1.25      0.00
  -10   -7    7      0.99      0.00
   -9   -7    7      0.36      0.00
   -8   -7    7      1.25      0.00
   -7   -7    7      2.39      0.00
   -6   -7    7     -4.78      0.00
   -5   -7    7     -1.88      0.00
   -4   -7    7     -1.87      0.00
   -3   -7    7      2.98      0.00
   -2   -7    7      7.99      0.00
   -1   -7    7      5.79      0.00
    0   -7    7     -1.82      0.00
    1   -7    7      9.95      0.00
    2   -7    7      1.81      0.00
    3   -7    7     -6.41      0.00
    4   -7    7      2.87      0.00
    5   -7    7      4.94      0.00
    6   -7    7     -0.92      0.00
    7   -7    7     -0.70      0.00
    8   -7    7     -1.57      0.00
    9   -7    7      1.03      0.00
   10   -7    7      1.27      0.00
   11   -7    7     -0.37      0.00
   12   -7    7     -2.26      0.00
   13   -7    7     -1.57      0.00
   14   -7    7      2.17      0.00
  -14   -6    7      1.84      0.00
  -13   -6    7     -0.58      0.00
  -12   -6    7      2.56      0.00
  -11   -6    7     -0.47      0.00
  -10   -6    7      1.43      0.00
   -9   -6    7     -0.43      0.00
   -8   -6    7     -1.60      0.00
   -7   -6    7      1.62      0.00
   -6   -6    7      4.48      0.00
   -5   -6    7     -1.91      0.00
   -4   -6    7     -3.71      0.00
   -3   -6    7     -2.03      0.00
   -2   -6    7      0.63      0.00
   -1   -6    7      9.20      0.00
    0   -6    7      5.64      0.00
    1   -6    7      0.42      0.00
    2   -6    7      4.08      0.00
    3   -6    7     -0.02      0.00
    4   -6    7     -6.19      0.00
    5   -6    7      3.19      0.00
    6   -6    7      1.81      0.00
    7   -6    7     -3.64      0.00
    8   -6    7      2.47      0.00
    9   -6    7      0.20      0.00
   10   -6    7      1.00      0.00
   11   -6    7      0.45      0.00
   12   -6    7     -0.33      0.00
   13   -6    7      1.26      0.00
   14   -6    7      1.03      0.00
  -15   -5    7     -0.06      0.00
  -14   -5    7      3.16      0.00
  -13   -5    7     -0.30      0.00
  -12   -5    7      2.73      0.00
  -11   -5    7     -0.85      0.00
  -10   -5    7     -0.77      0.00
   -9   -5    7      0.21      0.00
   -8   -5    7      3.48      0.00
   -7   -5    7     -3.76      0.00
   -6   -5    7      2.09      0.00
   -5   -5    7     -1.33      0.00
   -4   -5    7     -4.38      0.00
   -3   -5    7      3.79      0.00
   -2   -5    7      0.57      0.00
   -1   -5    7      8.75      0.00
    0   -5    7      0.17      0.00
    1   -5    7      3.45      0.00
    2   -5    7      8.52      0.00
    3   -5    7    -11.25      0.00
    4   -5    7      4.84      0.00
    5   -5    7      6.53      0.00
    6   -5    7     -5.30      0.00
    7   -5    7      2.27      0.00
    8   -5    7     -0.18      0.00
    9   -5    7     -2.00      0.00
   10   -5    7      0.11      0.00
   11   -5    7      0.71      0.00
   12   -5    7     -0.95      0.00
   13   -5    7     -3.43      0.00
   14   -5    7      2.22      0.00
  -15   -4    7     -1.48      0.00
  -14   -4    7      1.00      0.00
  -13   -4    7      0.95      0.00
  -12   -4    7      1.57      0.00
  -11   -4    7     -1.77      0.00
  -10   -4    7      3.78      0.00
   -9   -4    7     -0.74      0.00
   -8   -4    7     -2.82      0.00
   -7   -4    7      3.59      0.00
   -6   -4    7      5.49      0.00
   -5   -4    7     -3.23      0.00
   -4   -4    7     -3.81      0.00
   -3   -4    7     -0.98      0.00
   -2   -4    7      1.14      0.00
   -1   -4    7     11.90      0.00
    0   -4    7     -0.30      0.00
    1   -4    7     -0.20      0.00
    2   -4    7      5.62      0.00
    3   -4    7     -3.39      0.00
    4   -4    7     -0.77      0.00
    5   -4    7      2.11      0.00
    6   -4    7     -2.49      0.00
    7   -4    7      3.36      0.00
    8   -4    7     -1.39      0.00
    9   -4    7     -1.24      0.00
   10   -4    7      2.31      0.00
   11   -4    7      1.25      0.00
   12   -4    7     -0.04      0.00
   13   -4    7     -0.96      0.00
   14   -4    7     -0.14      0.00
  -15   -3    7     -0.74      0.00
  -14   -3    7      1.90      0.00
  -13   -3    7      1.11      0.00
  -12   -3    7      1.85      0.00
  -11   -3    7     -0.84      0.00
  -10   -3    7      1.60      0.00
   -9   -3    7      0.14      0.00
   -8   -3    7     -1.80      0.00
   -7   -3    7      0.49      0.00
   -6   -3    7     -0.48      0.00
   -5   -3    7      0.75      0.00
   -4   -3    7      5.72      0.00
   -3   -3    7    -10.45      0.00
   -2   -3    7      2.14      0.00
   -1   -3    7      6.06      0.00
    0   -3    7     12.96      0.00
    1   -3    7     -6.50      0.00
    2   -3    7     -6.32      0.00
    3   -3    7      7.51      0.00
    4   -3    7     -0.46      0.00
    5   -3    7     -0.85      0.00
    6   -3    7      2.46      0.00
    7   -3    7     -1.37      0.00
    8   -3    7      0.81      0.00
    9   -3    7     -2.43      0.00
   10   -3    7      1.12      0.00
   11   -3    7     -0.59      0.00
   12   -3    7      1.03      0.00
   13   -3    7     -0.80      0.00
  -16   -2    7      1.26      0.00
  -15   -2    7     -1.25      0.00
  -14   -2    7      0.12      0.00
  -13   -2    7      0.02      0.00
  -12   -2    7     -0.34      0.00
  -11   -2    7      1.25      0.00
  -10   -2    7     -1.76      0.00
   -9   -2    7      0.22      0.00
   -8   -2    7      5.00      0.00
   -7   -2    7     -4.20      0.00
   -6   -2    7      3.42      0.00
   -5   -2    7      1.99      0.00
   -4   -2    7     -7.48      0.00
   -3   -2    7      3.74      0.00
   -2   -2    7     -9.65      0.00
   -1   -2    7      5.16      0.00
    0   -2    7      9.50      0.00
    1   -2    7     -1.47      0.00
    2   -2    7     -0.89      0.00
    3   -2    7     -6.47      0.00
    4   -2    7      8.29      0.00
    5   -2    7     -3.54      0.00
    6   -2    7      0.34      0.00
    7   -2    7      2.66      0.00
    8   -2    7     -2.04      0.00
    9   -2    7     -1.18      0.00
   10   -2    7     -0.61      0.00
   11   -2    7      0.33      0.00
   12   -2    7     -0.51      0.00
   13   -2    7     -2.39      0.00
  -16   -1    7     -1.08      0.00
  -15   -1    7     -0.16      0.00
  -14   -1    7      1.05      0.00
  -13   -1    7      0.92      0.00
  -12   -1    7      1.03      0.00
  -11   -1    7      0.96      0.00
  -10   -1    7     -3.55      0.00
   -9   -1    7      2.04      0.00
   -8   -1    7     -0.15      0.00
   -7   -1    7     -1.07      0.00
   -6   -1    7      4.80      0.00
   -5   -1    7     -2.37      0.00
   -4   -1    7      6.20      0.00
   -3   -1    7      4.71      0.00
   -2   -1    7     -5.88      0.00
   -1   -1    7      0.91      0.00
    0   -1    7      6.84      0.00
    1   -1    7     -3.62      0.00
    2   -1    7     -7.75      0.00
    3   -1    7      4.24      0.00
    4   -1    7      0.08      0.00
    5   -1    7      2.03      0.00
    6   -1    7     -0.78      0.00
    7   -1    7     -0.86      0.00
    8   -1    7      2.35      0.00
    9   -1    7     -2.07      0.00
   10   -1    7     -0.93      0.00
   11   -1    7      1.29      0.00
   12   -1    7     -0.24      0.00
   13   -1    7     -0.39      0.00
  -16    0    7     -0.05      0.00
  -15    0    7     -0.22      0.00
  -14    0    7     -0.40      0.00
  -13    0    7     -1.00      0.00
  -12    0    7      1.46      0.00
  -11    0    7     -1.74      0.00
  -10    0    7      0.25      0.00
   -9    0    7      0.37      0.00
   -8    0    7     -2.37      0.00
   -7    0    7      8.28      0.00
   -6    0    7     -8.08      0.00
   -5    0    7     -4.59      0.00
   -4    0    7      2.64      0.00
   -3    0    7     -8.25      0.00
   -2    0    7     -2.95      0.00
   -1    0    7      2.29      0.00
    0    0    7      8.21      0.00
    1    0    7     -7.07      0.00
    2    0    7      5.54      0.00
    3    0    7     -7.74      0.00
    4    0    7     -2.65      0.00
    5    0    7      6.54      0.00
    6    0    7      0.01      0.00
    7    0    7     -3.44      0.00
    8    0    7      4.24      0.00
    9    0    7     -3.28      0.00
   10    0    7      1.26      0.00
   11    0    7     -1.15      0.00
   12    0    7     -1.00      0.00
  -16    1    7     -0.07      0.00
  -15    1    7      0.53      0.00
  -14    1    7      0.67      0.00
  -13    1    7      0.22      0.00
  -12    1    7     -0.09      0.00
  -11    1    7      1.00      0.00
  -10    1    7     -2.42      0.00
   -9    1    7     -1.27      0.00
   -8    1    7     -0.64      0.00
   -7    1    7      4.55      0.00
   -6    1    7      6.39      0.00
   -5    1    7      3.47      0.00
   -4    1    7     -2.76      0.00
   -3    1    7      4.97      0.00
   -2    1    7     -0.29      0.00
   -1    1    7     -1.92      0.00
    0    1    7     -3.60      0.00
    1    1    7     -2.78      0.00
    2    1    7     -0.46      0.00
    3    1    7     -1.10      0.00
    4    1    7      2.31      0.00
    5    1    7     -2.37      0.00
    6    1    7      0.77      0.00
    7    1    7      2.80      0.00
    8    1    7     -0.11      0.00
    9    1    7     -1.70      0.00
   10    1    7      1.57      0.00
   11    1    7     -2.98      0.00
   12    1    7     -0.11      0.00
  -16    2    7      0.60      0.00
  -15    2    7     -1.06      0.00
  -14    2    7     -0.74      0.00
  -13    2    7      0.39      0.00
  -12    2    7     -0.21      0.00
  -11    2    7      0.56      0.00
  -10    2    7      1.13      0.00
   -9    2    7     -1.79      0.00
   -8    2    7     -1.21      0.00
   -7    2    7     -2.72      0.00
   -6    2    7     -0.51      0.00
   -5    2    7      5.03      0.00
   -4    2    7    -12.51      0.00
   -3    2    7      3.46      0.00
   -2    2    7      2.81      0.00
   -1    2    7     -7.37      0.00
    0    2    7      5.26      0.00
    1    2    7     -1.11      0.00
    2    2    7     -4.17      0.00
    3    2    7     -3.85      0.00
    4    2    7      4.09      0.00
    5    2    7     -2.50      0.00
    6    2    7      2.32      0.00
    7    2    7      0.30      0.00
    8    2    7     -1.17      0.00
    9    2    7      1.91      0.00
   10    2    7     -0.17      0.00
   11    2    7      0.84      0.00
  -16    3    7     -0.06      0.00
  -15    3    7     -1.77      0.00
  -14    3    7      1.71      0.00
  -13    3    7     -1.26      0.00
  -12    3    7     -1.10      0.00
  -11    3    7      0.30      0.00
  -10    3    7     -0.11      0.00
   -9    3    7     -1.49      0.00
   -8    3    7      1.46      0.00
   -7    3    7      3.22      0.00
   -6    3    7     -1.23      0.00
   -5    3    7      2.83      0.00
   -4    3    7     -3.83      0.00
   -3    3    7      2.34      0.00
   -2    3    7     -3.05      0.00
   -1    3    7      2.76      0.00
    0    3    7     -3.11      0.00
    1    3    7     -7.29      0.00
    2    3    7      1.60      0.00
    3    3    7      3.73      0.00
    4    3    7     -4.03      0.00
    5    3    7     -1.37      0.00
    6    3    7      2.26      0.00
    7    3    7      1.55      0.00
    8    3    7      1.02      0.00
    9    3    7      0.16      0.00
   10    3    7     -0.94      0.00
   11    3    7      0.80      0.00
  -16    4    7      0.87      0.00
  -15    4    7      0.48      0.00
  -14    4    7     -2.68      0.00
  -13    4    7      1.46      0.00
  -12    4    7     -0.32      0.00
  -11    4    7     -0.58      0.00
  -10    4    7      0.63      0.00
   -9    4    7     -0.18      0.00
   -8    4    7     -2.13      0.00
   -7    4    7      2.16      0.00
   -6    4    7      4.06      0.00
   -5    4    7     -2.20      0.00
   -4    4    7      1.69      0.00
   -3    4    7      1.37      0.00
   -2    4    7     -4.27      0.00
   -1    4    7     -1.76      0.00
    0    4    7      2.76      0.00
    1    4    7     -4.68      0.00
    2    4    7     -2.89      0.00
    3    4    7     -0.26      0.00
    4    4    7      1.04      0.00
    5    4    7     -0.97      0.00
    6    4    7      0.09      0.00
    7    4    7      0.41      0.00
    8    4    7      0.80      0.00
    9    4    7      0.09      0.00
   10    4    7     -1.51      0.00
  -16    5    7      0.54      0.00
  -15    5    7     -2.16      0.00
  -14    5    7      0.85      0.00
  -13    5    7     -1.93      0.00
  -12    5    7     -0.92      0.00
  -11    5    7     -1.62      0.00
  -10    5    7      0.46      0.00
   -9    5    7     -2.25      0.00
   -8    5    7     -1.60      0.00
   -7    5    7      0.76      0.00
   -6    5    7      0.09      0.00
   -5    5    7     -3.65      0.00
   -4    5    7     -0.71      0.00
   -3    5    7      1.10      0.00
   -2    5    7     -0.65      0.00
   -1    5    7      1.68      0.00
    0    5    7     -3.95      0.00
    1    5    7     -0.40      0.00
    2    5    7     -1.09      0.00
    3    5    7     -1.43      0.00
    4    5    7      0.91      0.00
    5    5    7     -2.37      0.00
    6    5    7      1.89      0.00
    7    5    7      0.39      0.00
    8    5    7      0.39      0.00
    9    5    7      1.87      0.00
   10    5    7      0.80      0.00
  -16    6    7      1.45      0.00
  -15    6    7     -1.38      0.00
  -14    6    7     -0.80      0.00
  -13    6    7      1.60      0.00
  -12    6    7     -0.96      0.00
  -11    6    7     -1.00      0.00
  -10    6    7     -1.34      0.00
   -9    6    7      2.76      0.00
   -8    6    7     -0.88      0.00
   -7    6    7     -1.27      0.00
   -6    6    7      3.03      0.00
   -5    6    7      2.62      0.00
   -4    6    7     -2.11      0.00
   -3    6    7     -0.32      0.00
   -2    6    7      0.44      0.00
   -1    6    7      0.22      0.00
    0    6    7     -1.83      0.00
    1    6    7     -2.16      0.00
    2    6    7     -0.32      0.00
    3    6    7      0.17      0.00
    4    6    7     -0.69      0.00
    5    6    7      0.43      0.00
    6    6    7     -2.68      0.00
    7    6    7     -0.86      0.00
    8    6    7     -0.50      0.00
    9    6    7      1.04      0.00
  -15    7    7     -0.12      0.00
  -14    7    7     -1.18      0.00
  -13    7    7     -0.23      0.00
  -12    7    7     -2.56      0.00
  -11    7    7      1.37      0.00
  -10    7    7     -1.51      0.00
   -9    7    7     -1.24      0.00
   -8    7    7     -0.79      0.00
   -7    7    7     -2.56      0.00
   -6    7    7      1.33      0.00
   -5    7    7     -0.69      0.00
   -4    7    7     -1.86      0.00
   -3    7    7      0.64      0.00
   -2    7    7      1.20      0.00
   -1    7    7     -0.31      0.00
    0    7    7     -1.33      0.00
    1    7    7     -0.44      0.00
    2    7    7      0.12      0.00
    3    7    7     -3.71      0.00
    4    7    7     -0.28      0.00
    5    7    7      0.78      0.00
    6    7    7      1.28      0.00
    7    7    7     -0.17      0.00
    8    7    7     -2.30      0.00
  -15    8    7     -0.81      0.00
  -14    8    7      4.57      0.00
  -13    8    7     -1.65      0.00
  -12    8    7     -1.75      0.00
  -11    8    7     -0.44      0.00
  -10    8    7     -0.16      0.00
   -9    8    7      1.09      0.00
   -8    8    7     -0.37      0.00
   -7    8    7     -1.98      0.00
   -6    8    7      2.01      0.00
   -5    8    7      1.95      0.00
   -4    8    7     -2.14      0.00
   -3    8    7     -1.89      0.00
   -2    8    7      2.06      0.00
   -1    8    7      1.42      0.00
    0    8    7     -1.12      0.00
    1    8    7      1.18      0.00
    2    8    7     -1.98      0.00
    3    8    7      0.01      0.00
    4    8    7      0.31      0.00
    5    8    7     -2.16      0.00
    6    8    7      1.31      0.00
    7    8    7     -0.08      0.00
  -14    9    7     -1.26      0.00
  -13    9    7      0.79      0.00
  -12    9    7     -1.19      0.00
  -11    9    7      0.51      0.00
  -10    9    7     -1.21      0.00
   -9    9    7      1.18      0.00
   -8    9    7      0.01      0.00
   -7    9    7     -0.16      0.00
   -6    9    7     -2.67      0.00
   -5    9    7     -0.64      0.00
   -4    9    7      0.44      0.00
   -3    9    7      0.01      0.00
   -2    9    7     -0.93      0.00
   -1    9    7      0.66      0.00
    0    9    7      0.06      0.00
    1    9    7     -0.46      0.00
    2    9    7     -0.62      0.00
    3    9    7     -3.71      0.00
    4    9    7     -0.51      0.00
    5    9    7      0.41      0.00
    6    9    7     -0.86      0.00
  -14   10    7      0.90      0.00
  -13   10    7     -0.95      0.00
  -12   10    7      0.99      0.00
  -11   10    7     -0.25      0.00
  -10   10    7     -0.11      0.00
   -9   10    7     -0.99      0.00
   -8   10    7     -0.86      0.00
   -7   10    7      3.03      0.00
   -6   10    7      0.46      0.00
   -5   10    7     -1.14      0.00
   -4   10    7      1.98      0.00
   -3   10    7     -1.18      0.00
   -2   10    7     -1.36      0.00
   -1   10    7      0.55      0.00
    0   10    7      0.05      0.00
    1   10    7      2.49      0.00
    2   10    7     -1.28      0.00
    3   10    7     -0.29      0.00
    4   10    7     -0.40      0.00
    5   10    7     -1.47      0.00
  -13   11    7      0.95      0.00
  -12   11    7     -1.54      0.00
  -11   11    7      0.71      0.00
  -10   11    7     -2.84      0.00
   -9   11    7      3.94      0.00
   -8   11    7     -0.41      0.00
   -7   11    7     -0.31      0.00
   -6   11    7     -0.14      0.00
   -5   11    7     -1.14      0.00
   -4   11    7      0.74      0.00
   -3   11    7     -0.70      0.00
   -2   11    7     -0.25      0.00
   -1   11    7      1.83      0.00
    0   11    7     -1.04      0.00
    1   11    7     -1.01      0.00
    2   11    7      1.84      0.00
    3   11    7     -2.96      0.00
    4   11    7      0.52      0.00
  -12   12    7      0.82      0.00
  -11   12    7      0.20      0.00
  -10   12    7      1.13      0.00
   -9   12    7     -3.52      0.00
   -8   12    7      2.05      0.00
   -7   12    7      0.33      0.00
   -6   12    7     -0.42      0.00
   -5   12    7      2.32      0.00
   -4   12    7     -0.97      0.00
   -3   12    7      0.59      0.00
   -2   12    7     -0.93      0.00
   -1   12    7     -1.37      0.00
    0   12    7      1.88      0.00
    1   12    7     -0.45      0.00
    2   12    7     -1.20      0.00
  -11   13    7      0.19      0.00
  -10   13    7     -0.98      0.00
   -9   13    7      1.16      0.00
   -8   13    7     -0.27      0.00
   -7   13    7     -2.29      0.00
   -6   13    7      0.73      0.00
   -5   13    7      0.48      0.00
   -4   13    7     -0.10      0.00
   -3   13    7     -0.99      0.00
   -2   13    7      0.37      0.00
   -1   13    7      0.60      0.00
    0   13    7     -0.38      0.00
   -8   14    7     -0.75      0.00
   -7   14    7      0.13      0.00
   -6   14    7      1.49      0.00
   -5   14    7     -0.18      0.00
   -4   14    7     -0.30      0.00
   -3   14    7      1.40      0.00
    2  -21    8      1.10      0.00
    3  -21    8      1.06      0.00
    4  -21    8      0.51      0.00
    5  -21    8      0.88      0.00
   -2  -20    8     -1.10      0.00
   -1  -20    8      1.24      0.00
    0  -20    8      0.53      0.00
    1  -20    8      1.01      0.00
    2  -20    8      0.34      0.00
    3  -20    8     -0.59      0.00
    4  -20    8     -0.43      0.00
    5  -20    8     -2.09      0.00
    6  -20    8      0.21      0.00
    7  -20    8     -1.36      0.00
    8  -20    8     -2.34      0.00
   -4  -19    8      1.57      0.00
   -3  -19    8      0.19      0.00
   -2  -19    8      0.56      0.00
   -1  -19    8      1.40      0.00
    0  -19    8     -0.06      0.00
    1  -19    8     -0.94      0.00
    2  -19    8      2.17      0.00
    3  -19    8     -0.29      0.00
    4  -19    8      0.95      0.00
    5  -19    8      0.38      0.00
    6  -19    8      1.60      0.00
    7  -19    8      0.20      0.00
    8  -19    8      1.16      0.00
    9  -19    8     -4.08      0.00
   -5  -18    8      0.34      0.00
   -4  -18    8      0.73      0.00
   -3  -18    8     -1.32      0.00
   -2  -18    8     -0.81      0.00
   -1  -18    8     -0.04      0.00
    0  -18    8     -0.70      0.00
    1  -18    8      0.66      0.00
    2  -18    8      1.51      0.00
    3  -18    8     -1.86      0.00
    4  -18    8     -0.12      0.00
    5  -18    8      1.14      0.00
    6  -18    8     -1.85      0.00
    7  -18    8      0.62      0.00
    8  -18    8     -0.74      0.00
    9  -18    8     -1.78      0.00
   10  -18    8     -0.57      0.00
   11  -18    8      0.93      0.00
   -7  -17    8     -1.35      0.00
   -6  -17    8     -2.42      0.00
   -5  -17    8      0.15      0.00
   -4  -17    8      0.70      0.00
   -3  -17    8     -0.51      0.00
   -2  -17    8      0.96      0.00
   -1  -17    8      0.44      0.00
    0  -17    8      0.64      0.00
    1  -17    8     -1.11      0.00
    2  -17    8      1.40      0.00
    3  -17    8      0.70      0.00
    4  -17    8      0.90      0.00
    5  -17    8      1.04      0.00
    6  -17    8     -1.83      0.00
    7  -17    8      3.68      0.00
    8  -17    8     -1.76      0.00
    9  -17    8     -2.60      0.00
   10  -17    8     -0.50      0.00
   11  -17    8     -1.75      0.00
   -8  -16    8     -0.65      0.00
   -7  -16    8      0.01      0.00
   -6  -16    8     -0.50      0.00
   -5  -16    8      1.15      0.00
   -4  -16    8     -0.80      0.00
   -3  -16    8     -0.78      0.00
   -2  -16    8     -1.35      0.00
   -1  -16    8     -1.15      0.00
    0  -16    8     -0.68      0.00
    1  -16    8     -0.70      0.00
    2  -16    8      0.86      0.00
    3  -16    8     -0.91      0.00
    4  -16    8      0.20      0.00
    5  -16    8     -0.45      0.00
    6  -16    8     -0.07      0.00
    7  -16    8      4.09      0.00
    8  -16    8     -0.41      0.00
    9  -16    8     -1.40      0.00
   10  -16    8     -0.57      0.00
   11  -16    8      0.70      0.00
   12  -16    8      0.59      0.00
   -9  -15    8      0.41      0.00
   -8  -15    8      1.79      0.00
   -7  -15    8     -1.43      0.00
   -6  -15    8     -2.70      0.00
   -5  -15    8      0.00      0.00
   -4  -15    8      0.65      0.00
   -3  -15    8     -0.50      0.00
   -2  -15    8      0.41      0.00
   -1  -15    8     -2.25      0.00
    0  -15    8      0.43      0.00
    1  -15    8      0.42      0.00
    2  -15    8      1.74      0.00
    3  -15    8     -0.85      0.00
    4  -15    8      2.58      0.00
    5  -15    8     -0.19      0.00
    6  -15    8     -3.14      0.00
    7  -15    8      3.45      0.00
    8  -15    8     -1.19      0.00
    9  -15    8     -1.47      0.00
   10  -15    8     -1.82      0.00
   11  -15    8     -0.66      0.00
   12  -15    8      0.30      0.00
   13  -15    8      0.71      0.00
  -10  -14    8     -0.98      0.00
   -9  -14    8      0.96      0.00
   -8  -14    8     -2.20      0.00
   -7  -14    8      1.89      0.00
   -6  -14    8      0.57      0.00
   -5  -14    8     -0.39      0.00
   -4  -14    8     -1.70      0.00
   -3  -14    8      0.27      0.00
   -2  -14    8     -2.16      0.00
   -1  -14    8     -0.75      0.00
    0  -14    8     -3.08      0.00
    1  -14    8     -0.60      0.00
    2  -14    8     -0.96      0.00
    3  -14    8      0.65      0.00
    4  -14    8      0.36      0.00
    5  -14    8      0.25      0.00
    6  -14    8      0.87      0.00
    7  -14    8      0.69      0.00
    8  -14    8      0.77      0.00
    9  -14    8     -0.70      0.00
   10  -14    8     -0.53      0.00
   11  -14    8      0.69      0.00
   12  -14    8     -3.10      0.00
   13  -14    8      3.29      0.00
  -11  -13    8     -1.38      0.00
  -10  -13    8      0.97      0.00
   -9  -13    8      0.62      0.00
   -8  -13    8     -0.21      0.00
   -7  -13    8      0.76      0.00
   -6  -13    8     -3.04      0.00
   -5  -13    8      0.91      0.00
   -4  -13    8      2.07      0.00
   -3  -13    8     -0.47      0.00
   -2  -13    8     -1.10      0.00
   -1  -13    8     -2.93      0.00
    0  -13    8     -0.34      0.00
    1  -13    8      0.93      0.00
    2  -13    8      0.53      0.00
    3  -13    8     -0.28      0.00
    4  -13    8     -1.23      0.00
    5  -13    8      0.55      0.00
    6  -13    8     -2.43      0.00
    7  -13    8      1.57      0.00
    8  -13    8      1.45      0.00
    9  -13    8     -1.36      0.00
   10  -13    8     -1.22      0.00
   11  -13    8     -0.88      0.00
   12  -13    8     -2.18      0.00
   13  -13    8      0.28      0.00
  -11  -12    8     -1.09      0.00
  -10  -12    8      0.05      0.00
   -9  -12    8      0.66      0.00
   -8  -12    8     -1.02      0.00
   -7  -12    8      0.38      0.00
   -6  -12    8      0.17      0.00
   -5  -12    8     -0.68      0.00
   -4  -12    8     -0.20      0.00
   -3  -12    8     -0.75      0.00
   -2  -12    8     -0.20      0.00
   -1  -12    8     -1.58      0.00
    0  -12    8     -3.80      0.00
    1  -12    8     -3.84      0.00
    2  -12    8      1.30      0.00
    3  -12    8      1.35      0.00
    4  -12    8     -0.29      0.00
    5  -12    8      1.17      0.00
    6  -12    8     -0.04      0.00
    7  -12    8     -0.92      0.00
    8  -12    8     -1.00      0.00
    9  -12    8      0.22      0.00
   10  -12    8     -0.26      0.00
   11  -12    8      0.11      0.00
   12  -12    8     -0.14      0.00
   13  -12    8      0.91      0.00
  -12  -11    8     -3.55      0.00
  -11  -11    8     -1.12      0.00
  -10  -11    8      0.11      0.00
   -9  -11    8      1.81      0.00
   -8  -11    8     -2.10      0.00
   -7  -11    8     -1.31      0.00
   -6  -11    8     -0.37      0.00
   -5  -11    8      1.66      0.00
   -4  -11    8      0.76      0.00
   -3  -11    8     -2.39      0.00
   -2  -11    8     -1.63      0.00
   -1  -11    8     -4.75      0.00
    0  -11    8     -1.24      0.00
    1  -11    8     -0.65      0.00
    2  -11    8     -0.92      0.00
    3  -11    8     -1.96      0.00
    4  -11    8     -0.33      0.00
    5  -11    8     -0.54      0.00
    6  -11    8      0.58      0.00
    7  -11    8     -0.73      0.00
    8  -11    8      0.28      0.00
    9  -11    8      2.01      0.00
   10  -11    8     -1.70      0.00
   11  -11    8     -1.29      0.00
   12  -11    8     -0.91      0.00
   13  -11    8      1.14      0.00
   14  -11    8     -2.52      0.00
  -13  -10    8     -0.11      0.00
  -12  -10    8     -0.40      0.00
  -11  -10    8     -0.41      0.00
  -10  -10    8      0.08      0.00
   -9  -10    8     -1.20      0.00
   -8  -10    8      1.16      0.00
   -7  -10    8      0.07      0.00
   -6  -10    8     -2.77      0.00
   -5  -10    8     -1.45      0.00
   -4  -10    8      1.39      0.00
   -3  -10    8      2.47      0.00
   -2  -10    8      0.48      0.00
   -1  -10    8     -3.86      0.00
    0  -10    8     -4.58      0.00
    1  -10    8     -3.71      0.00
    2  -10    8      3.04      0.00
    3  -10    8     -2.49      0.00
    4  -10    8     -0.65      0.00
    5  -10    8      3.75      0.00
    6  -10    8     -2.01      0.00
    7  -10    8     -3.04      0.00
    8  -10    8      2.31      0.00
    9  -10    8     -0.42      0.00
   10  -10    8     -0.71      0.00
   11  -10    8     -1.71      0.00
   12  -10    8      3.42      0.00
   13  -10    8     -0.03      0.00
   14  -10    8     -2.39      0.00
  -13   -9    8      1.76      0.00
  -12   -9    8     -4.76      0.00
  -11   -9    8      1.59      0.00
  -10   -9    8     -0.85      0.00
   -9   -9    8      0.12      0.00
   -8   -9    8     -1.61      0.00
   -7   -9    8      0.45      0.00
   -6   -9    8      2.56      0.00
   -5   -9    8      1.09      0.00
   -4   -9    8     -0.44      0.00
   -3   -9    8     -5.32      0.00
   -2   -9    8     -4.37      0.00
   -1   -9    8      0.23      0.00
    0   -9    8     -6.59      0.00
    1   -9    8     -3.07      0.00
    2   -9    8      5.00      0.00
    3   -9    8     -4.10      0.00
    4   -9    8     -1.31      0.00
    5   -9    8      1.98      0.00
    6   -9    8     -3.09      0.00
    7   -9    8      0.93      0.00
    8   -9    8      0.92      0.00
    9   -9    8      0.61      0.00
   10   -9    8     -0.21      0.00
   11   -9    8     -1.87      0.00
   12   -9    8      0.93      0.00
   13   -9    8      1.41      0.00
   14   -9    8      1.33      0.00
  -14   -8    8      0.08      0.00
  -13   -8    8     -0.16      0.00
  -12   -8    8     -0.39      0.00
  -11   -8    8     -1.41      0.00
  -10   -8    8      0.23      0.00
   -9   -8    8      0.00      0.00
   -8   -8    8     -0.91      0.00
   -7   -8    8     -0.57      0.00
   -6   -8    8     -3.11      0.00
   -5   -8    8      1.15      0.00
   -4   -8    8      3.99      0.00
   -3   -8    8      3.95      0.00
   -2   -8    8     -1.20      0.00
   -1   -8    8     -8.03      0.00
    0   -8    8     -1.90      0.00
    1   -8    8     -4.67      0.00
    2   -8    8     -0.25      0.00
    3   -8    8      1.60      0.00
    4   -8    8      0.38      0.00
    5   -8    8      0.33      0.00
    6   -8    8      0.07      0.00
    7   -8    8     -2.62      0.00
    8   -8    8      0.69      0.00
    9   -8    8      1.23      0.00
   10   -8    8     -1.63      0.00
   11   -8    8     -0.50      0.00
   12   -8    8      0.30      0.00
   13   -8    8     -3.00      0.00
   14   -8    8      2.84      0.00
  -14   -7    8      0.66      0.00
  -13   -7    8     -2.16      0.00
  -12   -7    8      1.17      0.00
  -11   -7    8      0.17      0.00
  -10   -7    8     -1.43      0.00
   -9   -7    8      0.68      0.00
   -8   -7    8     -0.68      0.00
   -7   -7    8      1.16      0.00
   -6   -7    8     -0.44      0.00
   -5   -7    8      1.11      0.00
   -4   -7    8     -1.75      0.00
   -3   -7    8     -1.84      0.00
   -2   -7    8     -3.45      0.00
   -1   -7    8     -1.02      0.00
    0   -7    8     -1.84      0.00
    1   -7    8    -11.58      0.00
    2   -7    8     10.43      0.00
    3   -7    8     -1.43      0.00
    4   -7    8     -5.61      0.00
    5   -7    8      1.27      0.00
    6   -7    8     -0.39      0.00
    7   -7    8      1.08      0.00
    8   -7    8      1.29      0.00
    9   -7    8     -1.01      0.00
   10   -7    8     -0.29      0.00
   11   -7    8      1.02      0.00
   12   -7    8      1.31      0.00
   13   -7    8     -0.65      0.00
   14   -7    8      1.32      0.00
  -14   -6    8     -1.21      0.00
  -13   -6    8      0.50      0.00
  -12   -6    8     -0.09      0.00
  -11   -6    8     -0.61      0.00
  -10   -6    8     -2.61      0.00
   -9   -6    8      3.27      0.00
   -8   -6    8     -1.12      0.00
   -7   -6    8     -2.91      0.00
   -6   -6    8     -0.22      0.00
   -5   -6    8      1.30      0.00
   -4   -6    8      4.27      0.00
   -3   -6    8      3.58      0.00
   -2   -6    8     -7.55      0.00
   -1   -6    8      2.46      0.00
    0   -6    8     -6.03      0.00
    1   -6    8     -5.19      0.00
    2   -6    8      3.35      0.00
    3   -6    8      5.05      0.00
    4   -6    8     -5.07      0.00
    5   -6    8      1.64      0.00
    6   -6    8     -1.10      0.00
    7   -6    8     -1.07      0.00
    8   -6    8      2.71      0.00
    9   -6    8     -1.44      0.00
   10   -6    8     -1.94      0.00
   11   -6    8      1.40      0.00
   12   -6    8     -2.95      0.00
   13   -6    8     -1.31      0.00
   14   -6    8      3.55      0.00
  -15   -5    8      0.28      0.00
  -14   -5    8     -0.84      0.00
  -13   -5    8     -0.79      0.00
  -12   -5    8      0.45      0.00
  -11   -5    8     -2.67      0.00
  -10   -5    8      1.95      0.00
   -9   -5    8     -0.81      0.00
   -8   -5    8     -0.67      0.00
   -7   -5    8      4.30      0.00
   -6   -5    8     -2.18      0.00
   -5   -5    8     -6.66      0.00
   -4   -5    8      4.97      0.00
   -3   -5    8      0.10      0.00
   -2   -5    8     -4.13      0.00
   -1   -5    8      2.62      0.00
    0   -5    8     -6.22      0.00
    1   -5    8    -12.21      0.00
    2   -5    8     15.69      0.00
    3   -5    8     -1.33      0.00
    4   -5    8     -5.35      0.00
    5   -5    8     -1.66      0.00
    6   -5    8      1.85      0.00
    7   -5    8      0.30      0.00
    8   -5    8      0.73      0.00
    9   -5    8      0.17      0.00
   10   -5    8      0.05      0.00
   11   -5    8      0.27      0.00
   12   -5    8      0.71      0.00
   13   -5    8     -1.34      0.00
  -15   -4    8      0.61      0.00
  -14   -4    8     -0.89      0.00
  -13   -4    8      1.08      0.00
  -12   -4    8     -0.14      0.00
  -11   -4    8     -0.32      0.00
  -10   -4    8      2.25      0.00
   -9   -4    8     -2.90      0.00
   -8   -4    8      1.25      0.00
   -7   -4    8     -3.90      0.00
   -6   -4    8     -2.03      0.00
   -5   -4    8     10.24      0.00
   -4   -4    8     -5.26      0.00
   -3   -4    8     -1.43      0.00
   -2   -4    8      5.63      0.00
   -1   -4    8      1.48      0.00
    0   -4    8     -4.57      0.00
    1   -4    8     -0.92      0.00
    2   -4    8      0.00      0.00
    3   -4    8      4.27      0.00
    4   -4    8      2.53      0.00
    5   -4    8     -5.26      0.00
    6   -4    8     -1.69      0.00
    7   -4    8      2.62      0.00
    8   -4    8      0.63      0.00
    9   -4    8      0.53      0.00
   10   -4    8     -0.93      0.00
   11   -4    8      0.25      0.00
   12   -4    8      0.32      0.00
   13   -4    8      1.19      0.00
  -15   -3    8      0.36      0.00
  -14   -3    8     -0.44      0.00
  -13   -3    8     -0.28      0.00
  -12   -3    8     -0.93      0.00
  -11   -3    8      0.10      0.00
  -10   -3    8     -2.36      0.00
   -9   -3    8      2.48      0.00
   -8   -3    8      4.38      0.00
   -7   -3    8     -4.61      0.00
   -6   -3    8     -2.00      0.00
   -5   -3    8     -0.88      0.00
   -4   -3    8      0.44      0.00
   -3   -3    8     -5.64      0.00
   -2   -3    8      6.78      0.00
   -1   -3    8     -8.15      0.00
    0   -3    8     -2.61      0.00
    1   -3    8      8.89      0.00
    2   -3    8     -2.24      0.00
    3   -3    8     -0.19      0.00
    4   -3    8      2.91      0.00
    5   -3    8     -0.65      0.00
    6   -3    8     -2.53      0.00
    7   -3    8      0.55      0.00
    8   -3    8      0.21      0.00
    9   -3    8      1.58      0.00
   10   -3    8     -0.98      0.00
   11   -3    8      0.11      0.00
   12   -3    8     -1.21      0.00
   13   -3    8     -1.03      0.00
  -16   -2    8     -1.13      0.00
  -15   -2    8      0.26      0.00
  -14   -2    8      0.64      0.00
  -13   -2    8      2.75      0.00
  -12   -2    8      1.29      0.00
  -11   -2    8      0.25      0.00
  -10   -2    8     -0.45      0.00
   -9   -2    8     -0.91      0.00
   -8   -2    8      0.53      0.00
   -7   -2    8     -0.81      0.00
   -6   -2    8      3.18      0.00
   -5   -2    8     -2.88      0.00
   -4   -2    8      4.15      0.00
   -3   -2    8      6.77      0.00
   -2   -2    8     -1.37      0.00
   -1   -2    8     -0.47      0.00
    0   -2    8      3.89      0.00
    1   -2    8     -7.53      0.00
    2   -2    8      6.72      0.00
    3   -2    8      7.63      0.00
    4   -2    8     -7.61      0.00
    5   -2    8      1.66      0.00
    6   -2    8      1.35      0.00
    7   -2    8     -3.61      0.00
    8   -2    8      3.78      0.00
    9   -2    8     -0.99      0.00
   10   -2    8      0.38      0.00
   11   -2    8      2.00      0.00
   12   -2    8     -1.90      0.00
   13   -2    8      0.71      0.00
  -16   -1    8     -0.49      0.00
  -15   -1    8      0.22      0.00
  -14   -1    8     -2.45      0.00
  -13   -1    8      0.38      0.00
  -12   -1    8      0.14      0.00
  -11   -1    8      1.29      0.00
  -10   -1    8     -0.45      0.00
   -9   -1    8      2.61      0.00
   -8   -1    8     -2.41      0.00
   -7   -1    8      0.11      0.00
   -6   -1    8     -3.53      0.00
   -5   -1    8     -4.79      0.00
   -4   -1    8     -0.04      0.00
   -3   -1    8      2.36      0.00
   -2   -1    8     -5.16      0.00
   -1   -1    8     -0.18      0.00
    0   -1    8     11.32      0.00
    1   -1    8     -4.98      0.00
    2   -1    8      3.85      0.00
    3   -1    8      2.92      0.00
    4   -1    8     -2.66      0.00
    5   -1    8      2.95      0.00
    6   -1    8     -2.52      0.00
    7   -1    8     -1.47      0.00
    8   -1    8      0.97      0.00
    9   -1    8     -0.59      0.00
   10   -1    8      1.44      0.00
   11   -1    8      1.90      0.00
   12   -1    8     -3.03      0.00
  -16    0    8      0.23      0.00
  -15    0    8      0.96      0.00
  -14    0    8     -0.38      0.00
  -13    0    8      1.72      0.00
  -12    0    8      0.45      0.00
  -11    0    8      0.41      0.00
  -10    0    8     -0.76      0.00
   -9    0    8      0.31      0.00
   -8    0    8      0.80      0.00
   -7    0    8      1.57      0.00
   -6    0    8      2.74      0.00
   -5    0    8     -0.58      0.00
   -4    0    8     -1.99      0.00
   -3    0    8      3.68      0.00
   -2    0    8      7.01      0.00
   -1    0    8     -3.74      0.00
    0    0    8     -2.29      0.00
    1    0    8      2.93      0.00
    2    0    8      5.82      0.00
    3    0    8     -0.07      0.00
    4    0    8     -0.14      0.00
    5    0    8      1.15      0.00
    6    0    8     -1.18      0.00
    7    0    8      2.17      0.00
    8    0    8     -2.54      0.00
    9    0    8      0.55      0.00
   10    0    8     -1.27      0.00
   11    0    8     -0.06      0.00
   12    0    8      0.63      0.00
  -16    1    8      0.56      0.00
  -15    1    8     -2.55      0.00
  -14    1    8      1.51      0.00
  -13    1    8      0.35      0.00
  -12    1    8     -0.95      0.00
  -11    1    8      1.68      0.00
  -10    1    8      1.86      0.00
   -9    1    8     -1.55      0.00
   -8    1    8     -2.31      0.00
   -7    1    8     -1.39      0.00
   -6    1    8     -0.99      0.00
   -5    1    8      1.85      0.00
   -4    1    8      0.91      0.00
   -3    1    8     -3.50      0.00
   -2    1    8     -0.01      0.00
   -1    1    8      5.08      0.00
    0    1    8      5.27      0.00
    1    1    8     -0.98      0.00
    2    1    8     -0.44      0.00
    3    1    8      4.24      0.00
    4    1    8     -0.78      0.00
    5    1    8     -1.09      0.00
    6    1    8     -0.82      0.00
    7    1    8     -2.31      0.00
    8    1    8      0.51      0.00
    9    1    8     -0.19      0.00
   10    1    8      1.08      0.00
   11    1    8     -0.07      0.00
  -16    2    8     -0.68      0.00
  -15    2    8      0.38      0.00
  -14    2    8      0.60      0.00
  -13    2    8      0.79      0.00
  -12    2    8     -0.43      0.00
  -11    2    8      0.31      0.00
  -10    2    8      0.19      0.00
   -9    2    8      3.05      0.00
   -8    2    8     -1.25      0.00
   -7    2    8     -0.02      0.00
   -6    2    8     -4.08      0.00
   -5    2    8     -1.81      0.00
   -4    2    8      1.97      0.00
   -3    2    8     -2.66      0.00
   -2    2    8      0.86      0.00
   -1    2    8      4.16      0.00
    0    2    8      0.00      0.00
    1    2    8      0.46      0.00
    2    2    8      6.66      0.00
    3    2    8     -2.44      0.00
    4    2    8     -0.26      0.00
    5    2    8      1.74      0.00
    6    2    8      2.11      0.00
    7    2    8     -2.69      0.00
    8    2    8     -0.40      0.00
    9    2    8      2.39      0.00
   10    2    8     -3.71      0.00
   11    2    8      0.35      0.00
  -16    3    8     -0.15      0.00
  -15    3    8      0.97      0.00
  -14    3    8     -0.21      0.00
  -13    3    8      2.04      0.00
  -12    3    8     -0.40      0.00
  -11    3    8     -1.20      0.00
  -10    3    8      3.75      0.00
   -9    3    8     -0.56      0.00
   -8    3    8     -1.12      0.00
   -7    3    8      2.38      0.00
   -6    3    8      3.90      0.00
   -5    3    8      0.48      0.00
   -4    3    8      1.81      0.00
   -3    3    8     -0.22      0.00
   -2    3    8     -2.37      0.00
   -1    3    8      1.99      0.00
    0    3    8      0.96      0.00
    1    3    8      3.56      0.00
    2    3    8      0.08      0.00
    3    3    8     -1.96      0.00
    4    3    8      4.81      0.00
    5    3    8     -2.25      0.00
    6    3    8     -0.82      0.00
    7    3    8     -0.10      0.00
    8    3    8     -0.95      0.00
    9    3    8     -0.60      0.00
   10    3    8     -0.29      0.00
  -16    4    8      0.04      0.00
  -15    4    8     -0.32      0.00
  -14    4    8     -1.21      0.00
  -13    4    8      1.74      0.00
  -12    4    8      0.44      0.00
  -11    4    8     -0.66      0.00
  -10    4    8     -0.56      0.00
   -9    4    8      3.47      0.00
   -8    4    8     -2.84      0.00
   -7    4    8     -2.20      0.00
   -6    4    8     -4.32      0.00
   -5    4    8      1.72      0.00
   -4    4    8     -3.08      0.00
   -3    4    8      1.53      0.00
   -2    4    8      0.90      0.00
   -1    4    8     -0.44      0.00
    0    4    8      1.90      0.00
    1    4    8      1.42      0.00
    2    4    8      1.25      0.00
    3    4    8     -2.34      0.00
    4    4    8      0.52      0.00
    5    4    8      2.80      0.00
    6    4    8      1.97      0.00
    7    4    8     -0.84      0.00
    8    4    8      0.51      0.00
    9    4    8      1.62      0.00
   10    4    8     -1.88      0.00
  -16    5    8      2.18      0.00
  -15    5    8      0.83      0.00
  -14    5    8     -0.23      0.00
  -13    5    8      3.37      0.00
  -12    5    8     -1.36      0.00
  -11    5    8     -0.70      0.00
  -10    5    8      2.52      0.00
   -9    5    8      1.33      0.00
   -8    5    8      1.21      0.00
   -7    5    8      1.20      0.00
   -6    5    8      2.86      0.00
   -5    5    8     -1.31      0.00
   -4    5    8      0.96      0.00
   -3    5    8      1.24      0.00
   -2    5    8     -0.94      0.00
   -1    5    8      1.19      0.00
    0    5    8     -2.11      0.00
    1    5    8      2.86      0.00
    2    5    8      1.89      0.00
    3    5    8     -0.13      0.00
    4    5    8     -0.68      0.00
    5    5    8      0.39      0.00
    6    5    8     -0.52      0.00
    7    5    8     -0.97      0.00
    8    5    8      2.08      0.00
    9    5    8     -1.23      0.00
  -15    6    8     -2.56      0.00
  -14    6    8      2.09      0.00
  -13    6    8     -0.52      0.00
  -12    6    8     -0.27      0.00
  -11    6    8      1.70      0.00
  -10    6    8      0.58      0.00
   -9    6    8     -2.20      0.00
   -8    6    8      0.92      0.00
   -7    6    8     -0.67      0.00
   -6    6    8     -1.12      0.00
   -5    6    8      0.55      0.00
   -4    6    8     -1.42      0.00
   -3    6    8     -0.10      0.00
   -2    6    8     -0.76      0.00
   -1    6    8     -0.50      0.00
    0    6    8      1.06      0.00
    1    6    8      0.20      0.00
    2    6    8      0.25      0.00
    3    6    8     -1.67      0.00
    4    6    8      1.84      0.00
    5    6    8      1.20      0.00
    6    6    8      0.06      0.00
    7    6    8      3.31      0.00
    8    6    8     -2.56      0.00
  -15    7    8      1.35      0.00
  -14    7    8     -0.25      0.00
  -13    7    8      1.23      0.00
  -12    7    8      1.16      0.00
  -11    7    8     -1.13      0.00
  -10    7    8      0.16      0.00
   -9    7    8      1.23      0.00
   -8    7    8      0.68      0.00
   -7    7    8      2.23      0.00
   -6    7    8     -0.70      0.00
   -5    7    8      0.29      0.00
   -4    7    8      2.43      0.00
   -3    7    8     -1.58      0.00
   -2    7    8     -1.27      0.00
   -1    7    8      2.44      0.00
    0    7    8     -1.68      0.00
    1    7    8     -0.02      0.00
    2    7    8      1.79      0.00
    3    7    8      2.11      0.00
    4    7    8      0.32      0.00
    5    7    8     -0.35      0.00
    6    7    8     -1.19      0.00
    7    7    8      2.65      0.00
  -14    8    8     -1.24      0.00
  -13    8    8     -0.45      0.00
  -12    8    8      0.67      0.00
  -11    8    8      2.33      0.00
  -10    8    8     -1.51      0.00
   -9    8    8     -0.70      0.00
   -8    8    8     -0.79      0.00
   -7    8    8      0.29      0.00
   -6    8    8     -0.25      0.00
   -5    8    8     -3.22      0.00
   -4    8    8      4.96      0.00
   -3    8    8     -1.81      0.00
   -2    8    8     -0.95      0.00
   -1    8    8     -0.55      0.00
    0    8    8     -0.53      0.00
    1    8    8     -1.09      0.00
    2    8    8      0.26      0.00
    3    8    8     -0.06      0.00
    4    8    8      1.54      0.00
    5    8    8     -0.28      0.00
    6    8    8     -1.58      0.00
  -14    9    8     -0.12      0.00
  -13    9    8     -1.98      0.00
  -12    9    8      2.50      0.00
  -11    9    8      1.76      0.00
  -10    9    8     -3.06      0.00
   -9    9    8      0.14      0.00
   -8    9    8      1.03      0.00
   -7    9    8      0.25      0.00
   -6    9    8      1.24      0.00
   -5    9    8     -1.04      0.00
   -4    9    8     -0.12      0.00
   -3    9    8      1.81      0.00
   -2    9    8     -1.65      0.00
   -1    9    8      1.14      0.00
    0    9    8     -1.28      0.00
    1    9    8     -1.69      0.00
    2    9    8      1.47      0.00
    3    9    8      0.96      0.00
    4    9    8      1.53      0.00
    5    9    8     -1.66      0.00
  -13   10    8      1.96      0.00
  -12   10    8     -1.09      0.00
  -11   10    8     -0.40      0.00
  -10   10    8     -0.12      0.00
   -9   10    8      0.00      0.00
   -8   10    8     -0.83      0.00
   -7   10    8      0.01      0.00
   -6   10    8     -0.84      0.00
   -5   10    8      1.59      0.00
   -4   10    8     -0.92      0.00
   -3   10    8     -0.72      0.00
   -2   10    8      2.33      0.00
   -1   10    8     -0.07      0.00
    0   10    8      0.50      0.00
    1   10    8     -2.14      0.00
    2   10    8      0.22      0.00
    3   10    8      0.78      0.00
    4   10    8      0.30      0.00
  -12   11    8      0.30      0.00
  -11   11    8      3.51      0.00
  -10   11    8     -0.18      0.00
   -9   11    8     -1.75      0.00
   -8   11    8     -0.24      0.00
   -7   11    8     -0.26      0.00
   -6   11    8     -0.20      0.00
   -5   11    8     -0.23      0.00
   -4   11    8     -0.54      0.00
   -3   11    8      1.12      0.00
   -2   11    8     -1.14      0.00
   -1   11    8     -0.25      0.00
    0   11    8     -0.56      0.00
    1   11    8      0.14      0.00
    2   11    8     -1.86      0.00
  -11   12    8     -0.10      0.00
  -10   12    8     -0.12      0.00
   -9   12    8      2.11      0.00
   -8   12    8     -1.77      0.00
   -7   12    8      0.31      0.00
   -6   12    8      0.82      0.00
   -5   12    8     -0.69      0.00
   -4   12    8     -0.50      0.00
   -3   12    8      0.19      0.00
   -2   12    8     -0.26      0.00
   -1   12    8      0.36      0.00
    0   12    8     -0.24      0.00
    1   12    8      0.17      0.00
   -9   13    8      0.71      0.00
   -8   13    8      0.87      0.00
   -7   13    8      0.94      0.00
   -6   13    8     -1.13      0.00
   -5   13    8      0.78      0.00
   -4   13    8      0.31      0.00
   -3   13    8      0.57      0.00
   -2   13    8      1.34      0.00
    1  -21    9     -0.21      0.00
    2  -21    9      0.64      0.00
    3  -21    9     -0.54      0.00
    4  -21    9      0.55      0.00
    5  -21    9     -2.68      0.00
   -2  -20    9      2.36      0.00
   -1  -20    9      0.32      0.00
    0  -20    9     -0.89      0.00
    1  -20    9      0.56      0.00
    2  -20    9      1.20      0.00
    3  -20    9     -1.12      0.00
    4  -20    9     -0.12      0.00
    5  -20    9      2.73      0.00
    6  -20    9     -0.42      0.00
    7  -20    9     -0.39      0.00
    8  -20    9      1.11      0.00
   -4  -19    9      1.09      0.00
   -3  -19    9     -1.06      0.00
   -2  -19    9     -0.68      0.00
   -1  -19    9     -0.24      0.00
    0  -19    9      1.03      0.00
    1  -19    9     -0.57      0.00
    2  -19    9     -1.15      0.00
    3  -19    9      1.79      0.00
    4  -19    9     -0.26      0.00
    5  -19    9     -0.82      0.00
    6  -19    9     -0.50      0.00
    7  -19    9     -0.45      0.00
    8  -19    9      2.23      0.00
    9  -19    9      0.29      0.00
   -5  -18    9     -0.05      0.00
   -4  -18    9      0.36      0.00
   -3  -18    9      0.06      0.00
   -2  -18    9      1.86      0.00
   -1  -18    9      1.38      0.00
    0  -18    9      2.75      0.00
    1  -18    9     -1.06      0.00
    2  -18    9     -0.29      0.00
    3  -18    9      0.40      0.00
    4  -18    9      1.38      0.00
    5  -18    9     -0.64      0.00
    6  -18    9     -1.96      0.00
    7  -18    9      1.51      0.00
    8  -18    9     -2.19      0.00
    9  -18    9      0.36      0.00
   10  -18    9      1.97      0.00
   -7  -17    9      1.21      0.00
   -6  -17    9      0.18      0.00
   -5  -17    9      0.31      0.00
   -4  -17    9      1.87      0.00
   -3  -17    9     -0.72      0.00
   -2  -17    9     -0.62      0.00
   -1  -17    9     -0.24      0.00
    0  -17    9      2.31      0.00
    1  -17    9      0.77      0.00
    2  -17    9     -1.69      0.00
    3  -17    9     -1.09      0.00
    4  -17    9      0.53      0.00
    5  -17    9     -0.28      0.00
    6  -17    9      1.05      0.00
    7  -17    9      0.42      0.00
    8  -17    9      1.65      0.00
    9  -17    9     -0.17      0.00
   10  -17    9      0.39      0.00
   11  -17    9     -0.07      0.00
   -8  -16    9     -1.37      0.00
   -7  -16    9     -0.99      0.00
   -6  -16    9      0.64      0.00
   -5  -16    9      0.15      0.00
   -4  -16    9     -1.43      0.00
   -3  -16    9      2.64      0.00
   -2  -16    9     -0.06      0.00
   -1  -16    9      1.62      0.00
    0  -16    9      3.73      0.00
    1  -16    9      0.52      0.00
    2  -16    9     -0.23      0.00
    3  -16    9      0.57      0.00
    4  -16    9      0.09      0.00
    5  -16    9     -1.17      0.00
    6  -16    9     -1.13      0.00
    7  -16    9     -1.04      0.00
    8  -16    9     -0.77      0.00
    9  -16    9      2.46      0.00
   10  -16    9      0.38      0.00
   11  -16    9      1.23      0.00
   12  -16    9     -0.85      0.00
   -9  -15    9     -0.98      0.00
   -8  -15    9     -1.78      0.00
   -7  -15    9      3.52      0.00
   -6  -15    9     -1.92      0.00
   -5  -15    9     -1.02      0.00
   -4  -15    9      1.56      0.00
   -3  -15    9      0.25      0.00
   -2  -15    9     -0.50      0.00
   -1  -15    9      1.39      0.00
    0  -15    9      1.05      0.00
    1  -15    9      1.10      0.00
    2  -15    9     -0.99      0.00
    3  -15    9     -0.10      0.00
    4  -15    9      0.50      0.00
    5  -15    9      1.71      0.00
    6  -15    9      0.24      0.00
    7  -15    9     -2.65      0.00
    8  -15    9      0.85      0.00
    9  -15    9      0.77      0.00
   10  -15    9      0.67      0.00
   11  -15    9      0.52      0.00
   12  -15    9     -0.95      0.00
  -10  -14    9      0.85      0.00
   -9  -14    9      0.78      0.00
   -8  -14    9     -0.44      0.00
   -7  -14    9     -3.24      0.00
   -6  -14    9      1.31      0.00
   -5  -14    9      0.59      0.00
   -4  -14    9     -0.17      0.00
   -3  -14    9     -0.45      0.00
   -2  -14    9     -0.16      0.00
   -1  -14    9      2.01      0.00
    0  -14    9      4.63      0.00
    1  -14    9      0.54      0.00
    2  -14    9      0.82      0.00
    3  -14    9     -0.23      0.00
    4  -14    9     -2.24      0.00
    5  -14    9      2.54      0.00
    6  -14    9     -0.54      0.00
    7  -14    9     -0.47      0.00
    8  -14    9      2.25      0.00
    9  -14    9     -0.91      0.00
   10  -14    9      0.06      0.00
   11  -14    9      1.37      0.00
   12  -14    9      1.19      0.00
   13  -14    9     -0.51      0.00
  -11  -13    9      0.97      0.00
  -10  -13    9      0.38      0.00
   -9  -13    9      0.01      0.00
   -8  -13    9      0.99      0.00
   -7  -13    9      1.95      0.00
   -6  -13    9     -2.46      0.00
   -5  -13    9      0.66      0.00
   -4  -13    9     -0.58      0.00
   -3  -13    9      1.50      0.00
   -2  -13    9      0.68      0.00
   -1  -13    9      2.40      0.00
    0  -13    9      0.50      0.00
    1  -13    9      0.42      0.00
    2  -13    9      2.76      0.00
    3  -13    9     -1.79      0.00
    4  -13    9      2.36      0.00
    5  -13    9      2.57      0.00
    6  -13    9     -2.77      0.00
    7  -13    9      0.10      0.00
    8  -13    9     -1.20      0.00
    9  -13    9      0.83      0.00
   10  -13    9      0.85      0.00
   11  -13    9      1.77      0.00
   12  -13    9     -1.76      0.00
   13  -13    9      2.01      0.00
  -11  -12    9      0.77      0.00
  -10  -12    9      0.54      0.00
   -9  -12    9     -0.22      0.00
   -8  -12    9     -0.94      0.00
   -7  -12    9      0.30      0.00
   -6  -12    9      1.12      0.00
   -5  -12    9     -1.09      0.00
   -4  -12    9     -0.69      0.00
   -3  -12    9     -0.55      0.00
   -2  -12    9     -0.84      0.00
   -1  -12    9      1.74      0.00
    0  -12    9      3.97      0.00
    1  -12    9      3.52      0.00
    2  -12    9      0.20      0.00
    3  -12    9     -2.92      0.00
    4  -12    9      0.13      0.00
    5  -12    9      3.83      0.00
    6  -12    9     -0.38      0.00
    7  -12    9      0.50      0.00
    8  -12    9      0.79      0.00
    9  -12    9     -1.45      0.00
   10  -12    9      2.37      0.00
   11  -12    9     -1.34      0.00
   12  -12    9      1.23      0.00
   13  -12    9      2.04      0.00
  -12  -11    9      1.96      0.00
  -11  -11    9     -1.07      0.00
  -10  -11    9      2.72      0.00
   -9  -11    9     -0.03      0.00
   -8  -11    9      1.19      0.00
   -7  -11    9      0.63      0.00
   -6  -11    9     -2.21      0.00
   -5  -11    9      1.31      0.00
   -4  -11    9      0.46      0.00
   -3  -11    9      3.37      0.00
   -2  -11    9      0.60      0.00
   -1  -11    9      3.35      0.00
    0  -11    9      0.57      0.00
    1  -11    9      0.73      0.00
    2  -11    9      3.58      0.00
    3  -11    9     -2.49      0.00
    4  -11    9      0.72      0.00
    5  -11    9      1.84      0.00
    6  -11    9     -0.42      0.00
    7  -11    9      1.12      0.00
    8  -11    9     -1.99      0.00
    9  -11    9      0.55      0.00
   10  -11    9      0.77      0.00
   11  -11    9     -1.21      0.00
   12  -11    9      0.54      0.00
   13  -11    9     -0.58      0.00
  -13  -10    9      0.16      0.00
  -12  -10    9      0.12      0.00
  -11  -10    9      2.01      0.00
  -10  -10    9     -2.79      0.00
   -9  -10    9      2.22      0.00
   -8  -10    9     -0.66      0.00
   -7  -10    9      1.39      0.00
   -6  -10    9      3.46      0.00
   -5  -10    9     -4.89      0.00
   -4  -10    9     -0.51      0.00
   -3  -10    9     -3.26      0.00
   -2  -10    9      3.12      0.00
   -1  -10    9      1.06      0.00
    0  -10    9      3.59      0.00
    1  -10    9      4.20      0.00
    2  -10    9     -1.87      0.00
    3  -10    9     -0.22      0.00
    4  -10    9     -0.11      0.00
    5  -10    9      0.35      0.00
    6  -10    9      2.62      0.00
    7  -10    9      0.46      0.00
    8  -10    9     -2.10      0.00
    9  -10    9      1.01      0.00
   10  -10    9      1.94      0.00
   11  -10    9     -0.25      0.00
   12  -10    9     -0.64      0.00
   13  -10    9      1.57      0.00
  -13   -9    9     -0.52      0.00
  -12   -9    9      0.09      0.00
  -11   -9    9     -0.10      0.00
  -10   -9    9      1.56      0.00
   -9   -9    9      1.22      0.00
   -8   -9    9     -1.23      0.00
   -7   -9    9     -1.00      0.00
   -6   -9    9     -0.76      0.00
   -5   -9    9      1.31      0.00
   -4   -9    9      1.70      0.00
   -3   -9    9      2.45      0.00
   -2   -9    9      0.02      0.00
   -1   -9    9      3.34      0.00
    0   -9    9      1.83      0.00
    1   -9    9      0.66      0.00
    2   -9    9      1.35      0.00
    3   -9    9     -1.85      0.00
    4   -9    9      0.35      0.00
    5   -9    9      0.70      0.00
    6   -9    9      1.82      0.00
    7   -9    9     -2.06      0.00
    8   -9    9      0.70      0.00
    9   -9    9     -0.73      0.00
   10   -9    9     -0.24      0.00
   11   -9    9     -0.03      0.00
   12   -9    9     -0.52      0.00
   13   -9    9     -2.14      0.00
  -14   -8    9      1.45      0.00
  -13   -8    9     -0.05      0.00
  -12   -8    9      0.94      0.00
  -11   -8    9      0.52      0.00
  -10   -8    9     -3.39      0.00
   -9   -8    9      2.65      0.00
   -8   -8    9      0.33      0.00
   -7   -8    9      3.22      0.00
   -6   -8    9     -2.93      0.00
   -5   -8    9     -0.01      0.00
   -4   -8    9     -4.58      0.00
   -3   -8    9     -2.28      0.00
   -2   -8    9      3.67      0.00
   -1   -8    9      0.73      0.00
    0   -8    9      3.81      0.00
    1   -8    9      0.23      0.00
    2   -8    9     -1.44      0.00
    3   -8    9      0.37      0.00
    4   -8    9     -4.26      0.00
    5   -8    9      4.56      0.00
    6   -8    9      1.46      0.00
    7   -8    9     -0.98      0.00
    8   -8    9      0.07      0.00
    9   -8    9      0.17      0.00
   10   -8    9      1.92      0.00
   11   -8    9      1.40      0.00
   12   -8    9     -0.08      0.00
   13   -8    9     -1.18      0.00
  -14   -7    9     -0.91      0.00
  -13   -7    9      1.28      0.00
  -12   -7    9      1.06      0.00
  -11   -7    9     -0.69      0.00
  -10   -7    9      0.38      0.00
   -9   -7    9      0.77      0.00
   -8   -7    9     -4.57      0.00
   -7   -7    9      2.64      0.00
   -6   -7    9      4.74      0.00
   -5   -7    9     -1.38      0.00
   -4   -7    9     -0.34      0.00
   -3   -7    9      1.82      0.00
   -2   -7    9     -0.87      0.00
   -1   -7    9      0.63      0.00
    0   -7    9      6.87      0.00
    1   -7    9     -1.17      0.00
    2   -7    9     -2.25      0.00
    3   -7    9      2.33      0.00
    4   -7    9     -3.02      0.00
    5   -7    9      1.49      0.00
    6   -7    9     -0.15      0.00
    7   -7    9     -0.24      0.00
    8   -7    9      0.10      0.00
    9   -7    9     -1.36      0.00
   10   -7    9     -0.20      0.00
   11   -7    9      1.13      0.00
   12   -7    9      1.15      0.00
   13   -7    9     -1.25      0.00
  -14   -6    9     -0.45      0.00
  -13   -6    9      0.22      0.00
  -12   -6    9     -0.35      0.00
  -11   -6    9     -0.96      0.00
  -10   -6    9      0.97      0.00
   -9   -6    9      0.60      0.00
   -8   -6    9     -0.58      0.00
   -7   -6    9     -0.41      0.00
   -6   -6    9     -0.64      0.00
   -5   -6    9      0.77      0.00
   -4   -6    9     -0.09      0.00
   -3   -6    9     -2.55      0.00
   -2   -6    9     -0.80      0.00
   -1   -6    9      1.65      0.00
    0   -6    9     -5.47      0.00
    1   -6    9      5.61      0.00
    2   -6    9     -4.97      0.00
    3   -6    9     -3.96      0.00
    4   -6    9      6.67      0.00
    5   -6    9     -2.53      0.00
    6   -6    9     -1.13      0.00
    7   -6    9      3.25      0.00
    8   -6    9     -2.49      0.00
    9   -6    9      0.49      0.00
   10   -6    9      0.06      0.00
   11   -6    9      1.64      0.00
   12   -6    9      0.09      0.00
   13   -6    9     -2.36      0.00
  -15   -5    9     -0.62      0.00
  -14   -5    9     -1.96      0.00
  -13   -5    9      2.03      0.00
  -12   -5    9     -0.14      0.00
  -11   -5    9      0.96      0.00
  -10   -5    9      1.16      0.00
   -9   -5    9     -4.37      0.00
   -8   -5    9      0.61      0.00
   -7   -5    9      1.45      0.00
   -6   -5    9     -0.16      0.00
   -5   -5    9      7.43      0.00
   -4   -5    9     -5.38      0.00
   -3   -5    9     -2.37      0.00
   -2   -5    9      6.68      0.00
   -1   -5    9     -1.32      0.00
    0   -5    9      3.68      0.00
    1   -5    9      0.83      0.00
    2   -5    9     -7.77      0.00
    3   -5    9     -0.68      0.00
    4   -5    9      1.88      0.00
    5   -5    9     -0.71      0.00
    6   -5    9     -0.27      0.00
    7   -5    9      1.85      0.00
    8   -5    9     -1.43      0.00
    9   -5    9     -0.50      0.00
   10   -5    9     -0.56      0.00
   11   -5    9      2.56      0.00
   12   -5    9      0.45      0.00
   13   -5    9      2.07      0.00
  -15   -4    9     -1.73      0.00
  -14   -4    9     -0.26      0.00
  -13   -4    9     -1.69      0.00
  -12   -4    9     -1.54      0.00
  -11   -4    9     -0.45      0.00
  -10   -4    9     -0.11      0.00
   -9   -4    9      1.15      0.00
   -8   -4    9      0.78      0.00
   -7   -4    9     -3.04      0.00
   -6   -4    9     -1.56      0.00
   -5   -4    9      2.70      0.00
   -4   -4    9      4.49      0.00
   -3   -4    9     -6.84      0.00
   -2   -4    9     -4.54      0.00
   -1   -4    9     -6.14      0.00
    0   -4    9      8.48      0.00
    1   -4    9     -3.17      0.00
    2   -4    9     -9.16      0.00
    3   -4    9      5.67      0.00
    4   -4    9     -2.65      0.00
    5   -4    9      1.09      0.00
    6   -4    9      0.50      0.00
    7   -4    9     -2.47      0.00
    8   -4    9      1.31      0.00
    9   -4    9     -0.34      0.00
   10   -4    9     -1.28      0.00
   11   -4    9      0.37      0.00
   12   -4    9     -0.66      0.00
   13   -4    9     -1.02      0.00
  -15   -3    9     -0.23      0.00
  -14   -3    9      0.26      0.00
  -13   -3    9      0.02      0.00
  -12   -3    9     -0.27      0.00
  -11   -3    9      1.25      0.00
  -10   -3    9     -2.70      0.00
   -9   -3    9      0.27      0.00
   -8   -3    9      0.54      0.00
   -7   -3    9     -0.34      0.00
   -6   -3    9      2.88      0.00
   -5   -3    9     -5.22      0.00
   -4   -3    9      5.75      0.00
   -3   -3    9     10.84      0.00
   -2   -3    9    -13.26      0.00
   -1   -3    9      2.38      0.00
    0   -3    9      2.17      0.00
    1   -3    9     -3.93      0.00
    2   -3    9     -4.18      0.00
    3   -3    9     -0.88      0.00
    4   -3    9     -3.45      0.00
    5   -3    9      1.86      0.00
    6   -3    9      3.36      0.00
    7   -3    9     -2.70      0.00
    8   -3    9      0.09      0.00
    9   -3    9      1.61      0.00
   10   -3    9     -2.75      0.00
   11   -3    9      2.84      0.00
   12   -3    9      1.24      0.00
  -15   -2    9      0.37      0.00
  -14   -2    9     -2.37      0.00
  -13   -2    9     -2.84      0.00
  -12   -2    9     -0.66      0.00
  -11   -2    9      0.94      0.00
  -10   -2    9     -0.62      0.00
   -9   -2    9      0.58      0.00
   -8   -2    9     -1.60      0.00
   -7   -2    9      0.10      0.00
   -6   -2    9     -0.85      0.00
   -5   -2    9      0.13      0.00
   -4   -2    9      1.65      0.00
   -3   -2    9     -6.41      0.00
   -2   -2    9      1.62      0.00
   -1   -2    9     -3.61      0.00
    0   -2    9     -2.28      0.00
    1   -2    9      0.20      0.00
    2   -2    9     -1.36      0.00
    3   -2    9     -4.73      0.00
    4   -2    9     -0.48      0.00
    5   -2    9      3.88      0.00
    6   -2    9     -3.61      0.00
    7   -2    9     -0.39      0.00
    8   -2    9      1.36      0.00
    9   -2    9      1.23      0.00
   10   -2    9     -1.79      0.00
   11   -2    9     -2.06      0.00
   12   -2    9      1.96      0.00
  -16   -1    9      1.07      0.00
  -15   -1    9      0.24      0.00
  -14   -1    9      1.19      0.00
  -13   -1    9     -2.02      0.00
  -12   -1    9     -0.88      0.00
  -11   -1    9     -0.06      0.00
  -10   -1    9      0.46      0.00
   -9   -1    9     -0.76      0.00
   -8   -1    9      0.05      0.00
   -7   -1    9      3.82      0.00
   -6   -1    9     -4.37      0.00
   -5   -1    9      1.86      0.00
   -4   -1    9     -0.50      0.00
   -3   -1    9      1.93      0.00
   -2   -1    9      5.91      0.00
   -1   -1    9    -12.85      0.00
    0   -1    9     -3.36      0.00
    1   -1    9      7.44      0.00
    2   -1    9     -6.29      0.00
    3   -1    9     -5.03      0.00
    4   -1    9      3.47      0.00
    5   -1    9      0.09      0.00
    6   -1    9     -0.01      0.00
    7   -1    9      2.57      0.00
    8   -1    9     -1.75      0.00
    9   -1    9      2.26      0.00
   10   -1    9      0.21      0.00
   11   -1    9     -2.83      0.00
   12   -1    9      2.97      0.00
  -16    0    9     -0.10      0.00
  -15    0    9      0.01      0.00
  -14    0    9     -0.13      0.00
  -13    0    9     -2.06      0.00
  -12    0    9     -2.02      0.00
  -11    0    9      1.81      0.00
  -10    0    9     -1.00      0.00
   -9    0    9     -0.08      0.00
   -8    0    9     -2.95      0.00
   -7    0    9      2.10      0.00
   -6    0    9      4.29      0.00
   -5    0    9     -0.73      0.00
   -4    0    9      0.78      0.00
   -3    0    9     -0.05      0.00
   -2    0    9     -0.64      0.00
   -1    0    9      1.00      0.00
    0    0    9     -6.08      0.00
    1    0    9     -1.61      0.00
    2    0    9     -0.28      0.00
    3    0    9      0.76      0.00
    4    0    9     -2.36      0.00
    5    0    9     -1.52      0.00
    6    0    9      0.46      0.00
    7    0    9     -1.00      0.00
    8    0    9     -0.40      0.00
    9    0    9      2.83      0.00
   10    0    9     -0.75      0.00
   11    0    9     -1.29      0.00
  -16    1    9      0.09      0.00
  -15    1    9      1.24      0.00
  -14    1    9     -0.36      0.00
  -13    1    9     -1.30      0.00
  -12    1    9      0.30      0.00
  -11    1    9     -2.28      0.00
  -10    1    9      3.03      0.00
   -9    1    9     -0.14      0.00
   -8    1    9     -1.83      0.00
   -7    1    9     -2.13      0.00
   -6    1    9     -2.64      0.00
   -5    1    9     -1.97      0.00
   -4    1    9      0.30      0.00
   -3    1    9      1.42      0.00
   -2    1    9     -0.10      0.00
   -1    1    9     -3.63      0.00
    0    1    9     -1.51      0.00
    1    1    9      1.57      0.00
    2    1    9     -2.70      0.00
    3    1    9     -1.62      0.00
    4    1    9      0.72      0.00
    5    1    9      0.72      0.00
    6    1    9     -0.61      0.00
    7    1    9      2.28      0.00
    8    1    9     -1.23      0.00
    9    1    9      2.84      0.00
   10    1    9     -2.14      0.00
   11    1    9      0.69      0.00
  -16    2    9      1.05      0.00
  -15    2    9      1.39      0.00
  -14    2    9     -2.67      0.00
  -13    2    9     -0.64      0.00
  -12    2    9      0.45      0.00
  -11    2    9     -1.76      0.00
  -10    2    9     -1.75      0.00
   -9    2    9      1.15      0.00
   -8    2    9      2.51      0.00
   -7    2    9      3.26      0.00
   -6    2    9      1.72      0.00
   -5    2    9      0.72      0.00
   -4    2    9      1.07      0.00
   -3    2    9      2.90      0.00
   -2    2    9     -2.58      0.00
   -1    2    9      0.11      0.00
    0    2    9     -2.49      0.00
    1    2    9     -1.80      0.00
    2    2    9      1.95      0.00
    3    2    9      0.84      0.00
    4    2    9     -1.44      0.00
    5    2    9     -1.74      0.00
    6    2    9     -2.31      0.00
    7    2    9      1.72      0.00
    8    2    9     -0.46      0.00
    9    2    9     -1.08      0.00
   10    2    9      0.95      0.00
  -16    3    9      0.74      0.00
  -15    3    9      0.54      0.00
  -14    3    9     -3.67      0.00
  -13    3    9      3.29      0.00
  -12    3    9      0.04      0.00
  -11    3    9     -2.39      0.00
  -10    3    9     -1.15      0.00
   -9    3    9     -0.11      0.00
   -8    3    9     -1.91      0.00
   -7    3    9     -3.01      0.00
   -6    3    9     -3.11      0.00
   -5    3    9     -0.17      0.00
   -4    3    9      1.19      0.00
   -3    3    9     -3.41      0.00
   -2    3    9      3.95      0.00
   -1    3    9     -3.81      0.00
    0    3    9      1.84      0.00
    1    3    9     -1.27      0.00
    2    3    9     -1.10      0.00
    3    3    9      0.95      0.00
    4    3    9     -1.39      0.00
    5    3    9      0.43      0.00
    6    3    9      0.02      0.00
    7    3    9     -2.96      0.00
    8    3    9      2.85      0.00
    9    3    9      0.03      0.00
  -15    4    9     -0.98      0.00
  -14    4    9      0.37      0.00
  -13    4    9     -0.35      0.00
  -12    4    9     -0.49      0.00
  -11    4    9     -0.36      0.00
  -10    4    9     -0.53      0.00
   -9    4    9     -1.12      0.00
   -8    4    9      5.49      0.00
   -7    4    9     -0.11      0.00
   -6    4    9     -1.64      0.00
   -5    4    9      2.78      0.00
   -4    4    9      0.94      0.00
   -3    4    9     -0.18      0.00
   -2    4    9      2.35      0.00
   -1    4    9      0.12      0.00
    0    4    9     -4.23      0.00
    1    4    9      2.69      0.00
    2    4    9      2.74      0.00
    3    4    9     -1.24      0.00
    4    4    9     -1.14      0.00
    5    4    9      0.18      0.00
    6    4    9     -2.63      0.00
    7    4    9     -1.82      0.00
    8    4    9      0.37      0.00
    9    4    9     -0.93      0.00
  -15    5    9     -1.50      0.00
  -14    5    9     -1.25      0.00
  -13    5    9      0.65      0.00
  -12    5    9     -0.35      0.00
  -11    5    9      0.78      0.00
  -10    5    9     -2.49      0.00
   -9    5    9     -0.58      0.00
   -8    5    9     -1.02      0.00
   -7    5    9     -1.93      0.00
   -6    5    9     -0.04      0.00
   -5    5    9      1.15      0.00
   -4    5    9     -3.19      0.00
   -3    5    9     -0.01      0.00
   -2    5    9      0.01      0.00
   -1    5    9     -0.44      0.00
    0    5    9      2.80      0.00
    1    5    9     -3.16      0.00
    2    5    9      0.31      0.00
    3    5    9      0.22      0.00
    4    5    9      0.55      0.00
    5    5    9     -0.08      0.00
    6    5    9     -1.15      0.00
    7    5    9      0.50      0.00
    8    5    9     -2.19      0.00
  -15    6    9      1.58      0.00
  -14    6    9      0.05      0.00
  -13    6    9      0.50      0.00
  -12    6    9     -1.29      0.00
  -11    6    9     -1.30      0.00
  -10    6    9      0.75      0.00
   -9    6    9      1.94      0.00
   -8    6    9      1.35      0.00
   -7    6    9     -1.35      0.00
   -6    6    9      0.49      0.00
   -5    6    9     -0.48      0.00
   -4    6    9      1.80      0.00
   -3    6    9      1.66      0.00
   -2    6    9     -0.37      0.00
   -1    6    9      0.50      0.00
    0    6    9      1.43      0.00
    1    6    9     -1.12      0.00
    2    6    9      1.20      0.00
    3    6    9     -0.64      0.00
    4    6    9      0.20      0.00
    5    6    9      1.36      0.00
    6    6    9     -0.79      0.00
    7    6    9     -1.71      0.00
  -14    7    9     -0.21      0.00
  -13    7    9     -0.25      0.00
  -12    7    9      0.50      0.00
  -11    7    9     -0.89      0.00
  -10    7    9     -0.56      0.00
   -9    7    9     -0.29      0.00
   -8    7    9      0.23      0.00
   -7    7    9     -1.61      0.00
   -6    7    9      1.91      0.00
   -5    7    9     -1.75      0.00
   -4    7    9     -1.67      0.00
   -3    7    9      2.20      0.00
   -2    7    9     -1.70      0.00
   -1    7    9      0.14      0.00
    0    7    9      3.40      0.00
    1    7    9     -0.65      0.00
    2    7    9     -0.46      0.00
    3    7    9     -0.83      0.00
    4    7    9     -1.03      0.00
    5    7    9      1.09      0.00
    6    7    9     -1.00      0.00
  -14    8    9     -2.33      0.00
  -13    8    9      3.84      0.00
  -12    8    9     -1.19      0.00
  -11    8    9     -0.97      0.00
  -10    8    9     -0.47      0.00
   -9    8    9      1.07      0.00
   -8    8    9      2.33      0.00
   -7    8    9     -0.07      0.00
   -6    8    9     -1.19      0.00
   -5    8    9     -1.01      0.00
   -4    8    9      2.49      0.00
   -3    8    9      0.66      0.00
   -2    8    9     -3.01      0.00
   -1    8    9      0.57      0.00
    0    8    9      2.58      0.00
    1    8    9     -0.93      0.00
    2    8    9      0.67      0.00
    3    8    9     -1.72      0.00
    4    8    9      1.38      0.00
    5    8    9     -0.08      0.00
  -13    9    9      0.64      0.00
  -12    9    9     -1.68      0.00
  -11    9    9     -1.35      0.00
  -10    9    9      1.43      0.00
   -9    9    9     -1.30      0.00
   -8    9    9      1.55      0.00
   -7    9    9      1.70      0.00
   -6    9    9     -1.29      0.00
   -5    9    9     -0.22      0.00
   -4    9    9      1.93      0.00
   -3    9    9     -1.46      0.00
   -2    9    9      0.77      0.00
   -1    9    9      0.41      0.00
    0    9    9      1.48      0.00
    1    9    9      2.32      0.00
    2    9    9      0.41      0.00
    3    9    9     -0.23      0.00
    4    9    9      0.48      0.00
  -12   10    9     -0.78      0.00
  -11   10    9      3.14      0.00
  -10   10    9     -4.04      0.00
   -9   10    9      1.74      0.00
   -8   10    9     -0.43      0.00
   -7   10    9      0.77      0.00
   -6   10    9     -1.68      0.00
   -5   10    9     -0.57      0.00
   -4   10    9      2.16      0.00
   -3   10    9      0.05      0.00
   -2   10    9     -2.16      0.00
   -1   10    9     -0.40      0.00
    0   10    9      0.50      0.00
    1   10    9     -0.43      0.00
    2   10    9     -0.36      0.00
    3   10    9     -0.30      0.00
  -11   11    9     -3.27      0.00
  -10   11    9     -0.08      0.00
   -9   11    9      0.36      0.00
   -8   11    9      1.18      0.00
   -7   11    9     -0.59      0.00
   -6   11    9      0.20      0.00
   -5   11    9      1.12      0.00
   -4   11    9     -0.56      0.00
   -3   11    9     -0.48      0.00
   -2   11    9     -0.25      0.00
   -1   11    9      0.56      0.00
    0   11    9      1.58      0.00
    1   11    9      0.94      0.00
   -9   12    9      0.85      0.00
   -8   12    9     -1.56      0.00
   -7   12    9      1.06      0.00
   -6   12    9     -1.32      0.00
   -5   12    9      1.50      0.00
   -4   12    9      1.33      0.00
   -3   12    9     -0.71      0.00
   -2   12    9      0.94      0.00
   -1   12    9     -0.22      0.00
    1  -21   10     -0.88      0.00
    2  -21   10     -2.45      0.00
    3  -21   10      0.40      0.00
    4  -21   10     -0.33      0.00
    5  -21   10      1.49      0.00
   -2  -20   10     -2.33      0.00
   -1  -20   10     -1.49      0.00
    0  -20   10      0.73      0.00
    1  -20   10     -2.30      0.00
    2  -20   10     -0.50      0.00
    3  -20   10      1.51      0.00
    4  -20   10     -0.79      0.00
    5  -20   10     -0.25      0.00
    6  -20   10     -0.47      0.00
    7  -20   10      1.44      0.00
    8  -20   10      0.12      0.00
   -4  -19   10     -0.36      0.00
   -3  -19   10     -1.04      0.00
   -2  -19   10      1.61      0.00
   -1  -19   10     -1.32      0.00
    0  -19   10      0.79      0.00
    1  -19   10      0.21      0.00
    2  -19   10     -2.43      0.00
    3  -19   10      0.03      0.00
    4  -19   10      1.38      0.00
    5  -19   10     -0.47      0.00
    6  -19   10     -2.14      0.00
    7  -19   10      1.27      0.00
    8  -19   10     -0.18      0.00
    9  -19   10     -0.57      0.00
   -6  -18   10      0.90      0.00
   -5  -18   10      0.45      0.00
   -4  -18   10      0.21      0.00
   -3  -18   10     -0.49      0.00
   -2  -18   10     -2.16      0.00
   -1  -18   10     -2.48      0.00
    0  -18   10     -1.16      0.00
    1  -18   10     -0.84      0.00
    2  -18   10     -0.20      0.00
    3  -18   10      0.12      0.00
    4  -18   10     -0.20      0.00
    5  -18   10      0.76      0.00
    6  -18   10      1.05      0.00
    7  -18   10      0.44      0.00
    8  -18   10      0.01      0.00
    9  -18   10     -0.30      0.00
   10  -18   10     -2.83      0.00
   -7  -17   10      1.47      0.00
   -6  -17   10      0.19      0.00
   -5  -17   10     -1.28      0.00
   -4  -17   10     -0.14      0.00
   -3  -17   10     -0.01      0.00
   -2  -17   10      0.05      0.00
   -1  -17   10     -0.21      0.00
    0  -17   10     -1.16      0.00
    1  -17   10     -0.65      0.00
    2  -17   10     -0.07      0.00
    3  -17   10     -0.36      0.00
    4  -17   10      0.57      0.00
    5  -17   10     -0.18      0.00
    6  -17   10     -0.78      0.00
    7  -17   10     -0.52      0.00
    8  -17   10      1.67      0.00
    9  -17   10     -0.91      0.00
   10  -17   10      0.42      0.00
   11  -17   10      2.59      0.00
   -8  -16   10      3.12      0.00
   -7  -16   10     -0.67      0.00
   -6  -16   10     -1.51      0.00
   -5  -16   10      3.40      0.00
   -4  -16   10      1.00      0.00
   -3  -16   10     -1.97      0.00
   -2  -16   10      0.02      0.00
   -1  -16   10     -2.58      0.00
    0  -16   10     -1.87      0.00
    1  -16   10     -1.06      0.00
    2  -16   10     -0.25      0.00
    3  -16   10     -0.21      0.00
    4  -16   10      0.02      0.00
    5  -16   10      0.99      0.00
    6  -16   10     -2.02      0.00
    7  -16   10      0.95      0.00
    8  -16   10      1.71      0.00
    9  -16   10     -3.31      0.00
   10  -16   10     -2.31      0.00
   11  -16   10      0.62      0.00
   -9  -15   10     -0.22      0.00
   -8  -15   10      0.33      0.00
   -7  -15   10      0.24      0.00
   -6  -15   10      1.32      0.00
   -5  -15   10     -0.08      0.00
   -4  -15   10     -0.89      0.00
   -3  -15   10      0.50      0.00
   -2  -15   10     -0.32      0.00
   -1  -15   10      0.37      0.00
    0  -15   10     -3.29      0.00
    1  -15   10     -0.62      0.00
    2  -15   10      1.33      0.00
    3  -15   10     -0.54      0.00
    4  -15   10     -3.36      0.00
    5  -15   10      1.52      0.00
    6  -15   10     -0.29      0.00
    7  -15   10      1.62      0.00
    8  -15   10      1.00      0.00
    9  -15   10     -0.85      0.00
   10  -15   10     -0.17      0.00
   11  -15   10      0.82      0.00
   12  -15   10     -0.70      0.00
  -10  -14   10     -0.28      0.00
   -9  -14   10      0.43      0.00
   -8  -14   10      1.04      0.00
   -7  -14   10     -0.68      0.00
   -6  -14   10      0.46      0.00
   -5  -14   10      1.38      0.00
   -4  -14   10      0.85      0.00
   -3  -14   10      0.48      0.00
   -2  -14   10      1.07      0.00
   -1  -14   10     -2.90      0.00
    0  -14   10     -2.13      0.00
    1  -14   10     -1.94      0.00
    2  -14   10      0.27      0.00
    3  -14   10      0.21      0.00
    4  -14   10     -0.80      0.00
    5  -14   10     -1.30      0.00
    6  -14   10     -1.74      0.00
    7  -14   10      1.14      0.00
    8  -14   10     -1.71      0.00
    9  -14   10      0.11      0.00
   10  -14   10      0.27      0.00
   11  -14   10     -0.51      0.00
   12  -14   10     -1.49      0.00
  -11  -13   10     -1.60      0.00
  -10  -13   10     -1.65      0.00
   -9  -13   10      0.27      0.00
   -8  -13   10     -1.67      0.00
   -7  -13   10     -1.81      0.00
   -6  -13   10      3.29      0.00
   -5  -13   10     -2.17      0.00
   -4  -13   10     -0.23      0.00
   -3  -13   10     -0.05      0.00
   -2  -13   10      0.02      0.00
   -1  -13   10     -1.40      0.00
    0  -13   10     -1.95      0.00
    1  -13   10     -0.49      0.00
    2  -13   10     -0.26      0.00
    3  -13   10      0.63      0.00
    4  -13   10     -2.51      0.00
    5  -13   10     -0.29      0.00
    6  -13   10      0.39      0.00
    7  -13   10      0.00      0.00
    8  -13   10     -0.39      0.00
    9  -13   10      2.01      0.00
   10  -13   10     -2.10      0.00
   11  -13   10     -0.86      0.00
   12  -13   10      2.20      0.00
  -11  -12   10     -1.35      0.00
  -10  -12   10      1.24      0.00
   -9  -12   10      0.33      0.00
   -8  -12   10     -1.06      0.00
   -7  -12   10     -0.67      0.00
   -6  -12   10     -0.24      0.00
   -5  -12   10      0.62      0.00
   -4  -12   10      0.90      0.00
   -3  -12   10      1.78      0.00
   -2  -12   10      0.09      0.00
   -1  -12   10     -2.32      0.00
    0  -12   10     -1.91      0.00
    1  -12   10     -1.54      0.00
    2  -12   10      0.09      0.00
    3  -12   10      0.20      0.00
    4  -12   10     -0.87      0.00
    5  -12   10     -1.72      0.00
    6  -12   10     -0.62      0.00
    7  -12   10      0.89      0.00
    8  -12   10     -1.46      0.00
    9  -12   10      1.61      0.00
   10  -12   10     -1.23      0.00
   11  -12   10     -1.91      0.00
   12  -12   10     -1.63      0.00
   13  -12   10      1.14      0.00
  -12  -11   10     -1.21      0.00
  -11  -11   10     -0.25      0.00
  -10  -11   10     -2.20      0.00
   -9  -11   10      0.66      0.00
   -8  -11   10      0.10      0.00
   -7  -11   10      0.57      0.00
   -6  -11   10      1.77      0.00
   -5  -11   10     -4.03      0.00
   -4  -11   10      1.05      0.00
   -3  -11   10     -1.43      0.00
   -2  -11   10      0.24      0.00
   -1  -11   10     -1.25      0.00
    0  -11   10     -2.83      0.00
    1  -11   10      1.09      0.00
    2  -11   10     -0.17      0.00
    3  -11   10      0.19      0.00
    4  -11   10      0.40      0.00
    5  -11   10     -1.74      0.00
    6  -11   10     -0.01      0.00
    7  -11   10     -1.82      0.00
    8  -11   10      1.89      0.00
    9  -11   10      0.91      0.00
   10  -11   10     -0.37      0.00
   11  -11   10      0.19      0.00
   12  -11   10      0.42      0.00
   13  -11   10     -1.11      0.00
  -13  -10   10      0.28      0.00
  -12  -10   10     -1.05      0.00
  -11  -10   10      1.35      0.00
  -10  -10   10      0.95      0.00
   -9  -10   10     -1.11      0.00
   -8  -10   10     -3.33      0.00
   -7  -10   10      1.33      0.00
   -6  -10   10     -0.77      0.00
   -5  -10   10      2.26      0.00
   -4  -10   10      0.89      0.00
   -3  -10   10     -0.09      0.00
   -2  -10   10      0.38      0.00
   -1  -10   10     -0.74      0.00
    0  -10   10     -1.62      0.00
    1  -10   10     -0.39      0.00
    2  -10   10      0.98      0.00
    3  -10   10      3.03      0.00
    4  -10   10     -2.10      0.00
    5  -10   10     -2.48      0.00
    6  -10   10      0.02      0.00
    7  -10   10     -0.03      0.00
    8  -10   10      0.07      0.00
    9  -10   10      0.84      0.00
   10  -10   10     -2.88      0.00
   11  -10   10     -0.24      0.00
   12  -10   10     -0.90      0.00
   13  -10   10     -0.77      0.00
  -13   -9   10      0.46      0.00
  -12   -9   10      0.40      0.00
  -11   -9   10     -1.76      0.00
  -10   -9   10     -1.15      0.00
   -9   -9   10      2.04      0.00
   -8   -9   10      1.53      0.00
   -7   -9   10     -2.44      0.00
   -6   -9   10      0.29      0.00
   -5   -9   10      0.12      0.00
   -4   -9   10     -2.75      0.00
   -3   -9   10      2.53      0.00
   -2   -9   10     -1.16      0.00
   -1   -9   10     -3.97      0.00
    0   -9   10      3.84      0.00
    1   -9   10     -5.94      0.00
    2   -9   10      0.09      0.00
    3   -9   10      6.42      0.00
    4   -9   10     -1.81      0.00
    5   -9   10     -1.62      0.00
    6   -9   10      2.34      0.00
    7   -9   10     -2.32      0.00
    8   -9   10      1.51      0.00
    9   -9   10      0.40      0.00
   10   -9   10      1.25      0.00
   11   -9   10      0.57      0.00
   12   -9   10     -1.17      0.00
   13   -9   10     -1.37      0.00
  -14   -8   10     -1.22      0.00
  -13   -8   10     -0.03      0.00
  -12   -8   10      0.95      0.00
  -11   -8   10      1.09      0.00
  -10   -8   10     -0.55      0.00
   -9   -8   10      2.20      0.00
   -8   -8   10     -3.56      0.00
   -7   -8   10      1.78      0.00
   -6   -8   10      1.73      0.00
   -5   -8   10     -3.22      0.00
   -4   -8   10      2.06      0.00
   -3   -8   10      2.15      0.00
   -2   -8   10     -2.99      0.00
   -1   -8   10      6.02      0.00
    0   -8   10     -1.44      0.00
    1   -8   10      0.05      0.00
    2   -8   10      5.62      0.00
    3   -8   10     -1.18      0.00
    4   -8   10     -1.08      0.00
    5   -8   10     -2.12      0.00
    6   -8   10     -0.68      0.00
    7   -8   10      1.30      0.00
    8   -8   10      0.50      0.00
    9   -8   10     -2.29      0.00
   10   -8   10      0.10      0.00
   11   -8   10     -0.39      0.00
   12   -8   10      0.49      0.00
   13   -8   10     -0.26      0.00
  -14   -7   10      0.92      0.00
  -13   -7   10     -1.67      0.00
  -12   -7   10      0.25      0.00
  -11   -7   10     -0.94      0.00
  -10   -7   10      0.01      0.00
   -9   -7   10      2.27      0.00
   -8   -7   10     -1.38      0.00
   -7   -7   10      0.34      0.00
   -6   -7   10     -3.41      0.00
   -5   -7   10      0.45      0.00
   -4   -7   10      3.27      0.00
   -3   -7   10     -3.92      0.00
   -2   -7   10     -0.64      0.00
   -1   -7   10      3.90      0.00
    0   -7   10     -7.89      0.00
    1   -7   10      1.16      0.00
    2   -7   10      3.93      0.00
    3   -7   10      5.00      0.00
    4   -7   10     -0.60      0.00
    5   -7   10     -1.18      0.00
    6   -7   10     -1.81      0.00
    7   -7   10      0.44      0.00
    8   -7   10      2.45      0.00
    9   -7   10     -1.39      0.00
   10   -7   10      0.04      0.00
   11   -7   10      0.52      0.00
   12   -7   10     -2.26      0.00
   13   -7   10      1.11      0.00
  -14   -6   10      1.09      0.00
  -13   -6   10     -0.38      0.00
  -12   -6   10      1.50      0.00
  -11   -6   10      0.97      0.00
  -10   -6   10      0.67      0.00
   -9   -6   10     -1.75      0.00
   -8   -6   10      3.21      0.00
   -7   -6   10      1.50      0.00
   -6   -6   10     -3.89      0.00
   -5   -6   10     -0.57      0.00
   -4   -6   10     -0.34      0.00
   -3   -6   10     -0.17      0.00
   -2   -6   10      5.40      0.00
   -1   -6   10      3.87      0.00
    0   -6   10      0.76      0.00
    1   -6   10      0.57      0.00
    2   -6   10      3.54      0.00
    3   -6   10     -1.11      0.00
    4   -6   10      0.82      0.00
    5   -6   10      1.09      0.00
    6   -6   10     -0.95      0.00
    7   -6   10     -0.27      0.00
    8   -6   10     -0.38      0.00
    9   -6   10      1.25      0.00
   10   -6   10      0.17      0.00
   11   -6   10     -1.81      0.00
   12   -6   10      2.38      0.00
  -15   -5   10      0.77      0.00
  -14   -5   10      0.83      0.00
  -13   -5   10     -0.50      0.00
  -12   -5   10      0.60      0.00
  -11   -5   10     -1.19      0.00
  -10   -5   10      0.12      0.00
   -9   -5   10      1.62      0.00
   -8   -5   10      1.46      0.00
   -7   -5   10     -3.52      0.00
   -6   -5   10      2.41      0.00
   -5   -5   10      0.83      0.00
   -4   -5   10     -4.16      0.00
   -3   -5   10      0.96      0.00
   -2   -5   10     -2.26      0.00
   -1   -5   10      0.88      0.00
    0   -5   10     -0.18      0.00
    1   -5   10      3.53      0.00
    2   -5   10     -0.19      0.00
    3   -5   10      7.85      0.00
    4   -5   10      0.45      0.00
    5   -5   10     -2.64      0.00
    6   -5   10     -0.05      0.00
    7   -5   10     -0.79      0.00
    8   -5   10      0.67      0.00
    9   -5   10      0.80      0.00
   10   -5   10     -0.72      0.00
   11   -5   10     -1.63      0.00
   12   -5   10     -0.70      0.00
  -15   -4   10      2.54      0.00
  -14   -4   10      1.62      0.00
  -13   -4   10     -0.17      0.00
  -12   -4   10      2.05      0.00
  -11   -4   10      0.50      0.00
  -10   -4   10     -2.12      0.00
   -9   -4   10      2.93      0.00
   -8   -4   10      0.78      0.00
   -7   -4   10      0.79      0.00
   -6   -4   10     -1.33      0.00
   -5   -4   10     -7.15      0.00
   -4   -4   10      9.03      0.00
   -3   -4   10     -0.71      0.00
   -2   -4   10      1.63      0.00
   -1   -4   10      3.81      0.00
    0   -4   10      3.09      0.00
    1   -4   10     -0.99      0.00
    2   -4   10      2.39      0.00
    3   -4   10     -0.26      0.00
    4   -4   10      0.25      0.00
    5   -4   10      3.60      0.00
    6   -4   10     -0.01      0.00
    7   -4   10     -2.71      0.00
    8   -4   10      0.53      0.00
    9   -4   10      2.60      0.00
   10   -4   10     -0.75      0.00
   11   -4   10      0.37      0.00
   12   -4   10     -0.37      0.00
  -15   -3   10     -1.26      0.00
  -14   -3   10      1.39      0.00
  -13   -3   10      1.16      0.00
  -12   -3   10     -0.30      0.00
  -11   -3   10      1.65      0.00
  -10   -3   10     -0.73      0.00
   -9   -3   10     -2.13      0.00
   -8   -3   10      2.71      0.00
   -7   -3   10      0.99      0.00
   -6   -3   10      3.29      0.00
   -5   -3   10     -1.94      0.00
   -4   -3   10     -6.57      0.00
   -3   -3   10      0.54      0.00
   -2   -3   10      4.82      0.00
   -1   -3   10      0.57      0.00
    0   -3   10     -1.12      0.00
    1   -3   10      5.13      0.00
    2   -3   10      1.60      0.00
    3   -3   10      1.17      0.00
    4   -3   10      0.79      0.00
    5   -3   10      1.18      0.00
    6   -3   10     -2.82      0.00
    7   -3   10      0.71      0.00
    8   -3   10     -0.79      0.00
    9   -3   10     -2.44      0.00
   10   -3   10      4.10      0.00
   11   -3   10     -3.53      0.00
   12   -3   10      0.25      0.00
  -15   -2   10      1.30      0.00
  -14   -2   10      0.09      0.00
  -13   -2   10      1.94      0.00
  -12   -2   10     -0.23      0.00
  -11   -2   10      1.27      0.00
  -10   -2   10     -0.90      0.00
   -9   -2   10      0.85      0.00
   -8   -2   10     -0.71      0.00
   -7   -2   10      0.86      0.00
   -6   -2   10     -1.11      0.00
   -5   -2   10     -1.51      0.00
   -4   -2   10     -0.62      0.00
   -3   -2   10      2.94      0.00
   -2   -2   10     -2.45      0.00
   -1   -2   10      2.71      0.00
    0   -2   10      7.01      0.00
    1   -2   10     -2.49      0.00
    2   -2   10     -0.99      0.00
    3   -2   10      1.14      0.00
    4   -2   10      4.68      0.00
    5   -2   10     -2.91      0.00
    6   -2   10      1.26      0.00
    7   -2   10      2.33      0.00
    8   -2   10     -3.05      0.00
    9   -2   10      0.85      0.00
   10   -2   10      2.51      0.00
   11   -2   10      0.36      0.00
  -15   -1   10     -1.00      0.00
  -14   -1   10      2.13      0.00
  -13   -1   10      1.85      0.00
  -12   -1   10     -1.16      0.00
  -11   -1   10      0.01      0.00
  -10   -1   10      0.80      0.00
   -9   -1   10     -0.53      0.00
   -8   -1   10     -0.87      0.00
   -7   -1   10      3.06      0.00
   -6   -1   10      5.28      0.00
   -5   -1   10     -2.33      0.00
   -4   -1   10     -1.79      0.00
   -3   -1   10     -1.52      0.00
   -2   -1   10      3.45      0.00
   -1   -1   10      4.40      0.00
    0   -1   10     -1.55      0.00
    1   -1   10     -0.76      0.00
    2   -1   10      4.30      0.00
    3   -1   10     -0.76      0.00
    4   -1   10     -1.14      0.00
    5   -1   10      1.74      0.00
    6   -1   10     -0.80      0.00
    7   -1   10     -1.48      0.00
    8   -1   10     -1.71      0.00
    9   -1   10     -0.20      0.00
   10   -1   10     -0.66      0.00
   11   -1   10      0.06      0.00
  -15    0   10     -0.47      0.00
  -14    0   10      1.70      0.00
  -13    0   10      0.63      0.00
  -12    0   10      2.25      0.00
  -11    0   10     -0.07      0.00
  -10    0   10      0.04      0.00
   -9    0   10      1.15      0.00
   -8    0   10     -2.66      0.00
   -7    0   10     -2.76      0.00
   -6    0   10     -0.78      0.00
   -5    0   10      1.60      0.00
   -4    0   10     -2.79      0.00
   -3    0   10     -2.62      0.00
   -2    0   10     -2.45      0.00
   -1    0   10      5.82      0.00
    0    0   10      3.88      0.00
    1    0   10     -2.98      0.00
    2    0   10     -1.72      0.00
    3    0   10      1.23      0.00
    4    0   10      0.50      0.00
    5    0   10      1.07      0.00
    6    0   10      1.33      0.00
    7    0   10      0.00      0.00
    8    0   10      0.04      0.00
    9    0   10     -0.43      0.00
   10    0   10      0.92      0.00
  -15    1   10     -0.73      0.00
  -14    1   10     -0.72      0.00
  -13    1   10      1.56      0.00
  -12    1   10      0.75      0.00
  -11    1   10     -1.32      0.00
  -10    1   10      0.08      0.00
   -9    1   10      2.95      0.00
   -8    1   10      2.03      0.00
   -7    1   10      1.95      0.00
   -6    1   10      1.77      0.00
   -5    1   10      2.16      0.00
   -4    1   10     -1.71      0.00
   -3    1   10      1.29      0.00
   -2    1   10      1.08      0.00
   -1    1   10     -1.44      0.00
    0    1   10      0.90      0.00
    1    1   10      0.61      0.00
    2    1   10      1.06      0.00
    3    1   10     -1.55      0.00
    4    1   10      1.15      0.00
    5    1   10      1.23      0.00
    6    1   10      1.75      0.00
    7    1   10     -0.99      0.00
    8    1   10     -0.59      0.00
    9    1   10     -0.43      0.00
   10    1   10     -1.60      0.00
  -15    2   10     -0.37      0.00
  -14    2   10      0.08      0.00
  -13    2   10      1.51      0.00
  -12    2   10      1.08      0.00
  -11    2   10     -0.26      0.00
  -10    2   10      0.53      0.00
   -9    2   10     -2.71      0.00
   -8    2   10     -0.49      0.00
   -7    2   10     -2.50      0.00
   -6    2   10      0.31      0.00
   -5    2   10      1.31      0.00
   -4    2   10     -3.21      0.00
   -3    2   10     -1.71      0.00
   -2    2   10      0.60      0.00
   -1    2   10      1.29      0.00
    0    2   10     -0.81      0.00
    1    2   10     -0.34      0.00
    2    2   10     -2.72      0.00
    3    2   10      1.01      0.00
    4    2   10     -1.45      0.00
    5    2   10      1.84      0.00
    6    2   10      2.25      0.00
    7    2   10     -0.65      0.00
    8    2   10      1.39      0.00
    9    2   10      0.13      0.00
  -15    3   10      0.21      0.00
  -14    3   10      0.79      0.00
  -13    3   10     -1.42      0.00
  -12    3   10      0.67      0.00
  -11    3   10      0.72      0.00
  -10    3   10      1.25      0.00
   -9    3   10      1.31      0.00
   -8    3   10      2.06      0.00
   -7    3   10      0.26      0.00
   -6    3   10      0.26      0.00
   -5    3   10      1.66      0.00
   -4    3   10     -0.93      0.00
   -3    3   10      4.70      0.00
   -2    3   10     -1.85      0.00
   -1    3   10     -0.71      0.00
    0    3   10      1.72      0.00
    1    3   10     -2.55      0.00
    2    3   10      1.65      0.00
    3    3   10     -1.86      0.00
    4    3   10     -0.60      0.00
    5    3   10      3.23      0.00
    6    3   10      0.26      0.00
    7    3   10      0.45      0.00
    8    3   10      0.26      0.00
    9    3   10     -0.46      0.00
  -15    4   10     -0.74      0.00
  -14    4   10     -0.15      0.00
  -13    4   10      1.00      0.00
  -12    4   10     -1.04      0.00
  -11    4   10      0.71      0.00
  -10    4   10      0.66      0.00
   -9    4   10     -3.64      0.00
   -8    4   10     -0.53      0.00
   -7    4   10      1.21      0.00
   -6    4   10      3.98      0.00
   -5    4   10     -7.39      0.00
   -4    4   10      0.58      0.00
   -3    4   10      0.85      0.00
   -2    4   10     -3.11      0.00
   -1    4   10      0.73      0.00
    0    4   10      2.34      0.00
    1    4   10     -3.31      0.00
    2    4   10     -0.79      0.00
    3    4   10      2.16      0.00
    4    4   10     -2.43      0.00
    5    4   10     -1.31      0.00
    6    4   10      2.70      0.00
    7    4   10      0.32      0.00
    8    4   10      0.10      0.00
  -15    5   10      1.06      0.00
  -14    5   10      0.65      0.00
  -13    5   10     -0.47      0.00
  -12    5   10      0.18      0.00
  -11    5   10      0.45      0.00
  -10    5   10      0.98      0.00
   -9    5   10      0.69      0.00
   -8    5   10     -0.40      0.00
   -7    5   10     -2.05      0.00
   -6    5   10      2.41      0.00
   -5    5   10      0.85      0.00
   -4    5   10     -0.32      0.00
   -3    5   10      2.33      0.00
   -2    5   10     -1.96      0.00
   -1    5   10      0.51      0.00
    0    5   10     -0.28      0.00
    1    5   10     -2.25      0.00
    2    5   10      1.01      0.00
    3    5   10      0.14      0.00
    4    5   10      0.80      0.00
    5    5   10      1.20      0.00
    6    5   10     -0.06      0.00
    7    5   10     -0.79      0.00
  -14    6   10     -2.37      0.00
  -13    6   10      1.44      0.00
  -12    6   10     -0.11      0.00
  -11    6   10      1.29      0.00
  -10    6   10     -0.26      0.00
   -9    6   10     -2.34      0.00
   -8    6   10      0.96      0.00
   -7    6   10      0.50      0.00
   -6    6   10     -0.09      0.00
   -5    6   10     -1.00      0.00
   -4    6   10     -0.95      0.00
   -3    6   10     -0.50      0.00
   -2    6   10     -0.78      0.00
   -1    6   10      0.32      0.00
    0    6   10     -0.13      0.00
    1    6   10     -1.12      0.00
    2    6   10      1.26      0.00
    3    6   10     -0.34      0.00
    4    6   10     -1.73      0.00
    5    6   10     -1.21      0.00
    6    6   10     -0.33      0.00
  -14    7   10      0.36      0.00
  -13    7   10     -1.31      0.00
  -12    7   10     -0.63      0.00
  -11    7   10      2.68      0.00
  -10    7   10     -1.33      0.00
   -9    7   10     -1.94      0.00
   -8    7   10      0.82      0.00
   -7    7   10      0.06      0.00
   -6    7   10     -1.62      0.00
   -5    7   10      0.98      0.00
   -4    7   10      2.00      0.00
   -3    7   10     -2.10      0.00
   -2    7   10      0.71      0.00
   -1    7   10      0.36      0.00
    0    7   10     -3.65      0.00
    1    7   10     -1.92      0.00
    2    7   10      0.59      0.00
    3    7   10      0.02      0.00
    4    7   10      1.71      0.00
    5    7   10     -0.68      0.00
  -13    8   10     -1.38      0.00
  -12    8   10     -0.32      0.00
  -11    8   10      1.62      0.00
  -10    8   10      1.11      0.00
   -9    8   10     -2.03      0.00
   -8    8   10      0.52      0.00
   -7    8   10      0.09      0.00
   -6    8   10      0.85      0.00
   -5    8   10      0.10      0.00
   -4    8   10     -2.99      0.00
   -3    8   10      1.10      0.00
   -2    8   10      1.53      0.00
   -1    8   10      1.29      0.00
    0    8   10     -1.32      0.00
    1    8   10      0.90      0.00
    2    8   10      0.58      0.00
    3    8   10     -0.30      0.00
    4    8   10      0.02      0.00
  -12    9   10      0.73      0.00
  -11    9   10      1.61      0.00
  -10    9   10     -1.81      0.00
   -9    9   10     -0.66      0.00
   -8    9   10     -0.55      0.00
   -7    9   10     -1.19      0.00
   -6    9   10     -0.06      0.00
   -5    9   10      1.07      0.00
   -4    9   10     -1.38      0.00
   -3    9   10     -0.18      0.00
   -2    9   10      0.76      0.00
   -1    9   10     -2.36      0.00
    0    9   10     -0.79      0.00
    1    9   10     -0.69      0.00
    2    9   10     -2.18      0.00
    3    9   10      0.23      0.00
  -11   10   10     -0.18      0.00
  -10   10   10      1.69      0.00
   -9   10   10      0.06      0.00
   -8   10   10     -1.14      0.00
   -7   10   10      0.20      0.00
   -6   10   10      1.25      0.00
   -5   10   10     -1.86      0.00
   -4   10   10      0.10      0.00
   -3   10   10     -0.71      0.00
   -2   10   10      0.51      0.00
   -1   10   10      2.07      0.00
    0   10   10     -1.85      0.00
    1   10   10      1.73      0.00
  -10   11   10      1.61      0.00
   -9   11   10      0.92      0.00
   -8   11   10     -1.67      0.00
   -7   11   10      1.27      0.00
   -6   11   10     -0.18      0.00
   -5   11   10     -0.19      0.00
   -4   11   10      0.17      0.00
   -3   11   10      0.38      0.00
   -2   11   10      0.78      0.00
   -1   11   10     -1.85      0.00
    1  -21   11      1.95      0.00
    2  -21   11     -0.51      0.00
    3  -21   11      0.01      0.00
    4  -21   11      0.47      0.00
    5  -21   11      0.90      0.00
   -2  -20   11      1.04      0.00
   -1  -20   11      1.14      0.00
    0  -20   11      0.78      0.00
    1  -20   11      0.56      0.00
    2  -20   11      0.31      0.00
    3  -20   11      0.13      0.00
    4  -20   11     -0.87      0.00
    5  -20   11     -0.22      0.00
    6  -20   11      0.56      0.00
    7  -20   11      0.43      0.00
   -4  -19   11      0.65      0.00
   -3  -19   11      0.08      0.00
   -2  -19   11     -0.75      0.00
   -1  -19   11      0.04      0.00
    0  -19   11      1.12      0.00
    1  -19   11      0.60      0.00
    2  -19   11      0.01      0.00
    3  -19   11     -1.89      0.00
    4  -19   11     -0.66      0.00
    5  -19   11      1.60      0.00
    6  -19   11     -0.07      0.00
    7  -19   11      0.24      0.00
    8  -19   11     -0.98      0.00
    9  -19   11     -0.05      0.00
   -6  -18   11     -2.00      0.00
   -5  -18   11     -0.48      0.00
   -4  -18   11      0.72      0.00
   -3  -18   11     -0.62      0.00
   -2  -18   11      1.51      0.00
   -1  -18   11      0.27      0.00
    0  -18   11      2.43      0.00
    1  -18   11      0.88      0.00
    2  -18   11      0.25      0.00
    3  -18   11      0.04      0.00
    4  -18   11     -1.16      0.00
    5  -18   11     -0.90      0.00
    6  -18   11      0.14      0.00
    7  -18   11     -0.97      0.00
    8  -18   11      3.00      0.00
    9  -18   11      0.76      0.00
   10  -18   11      0.12      0.00
   -7  -17   11     -2.60      0.00
   -6  -17   11     -0.10      0.00
   -5  -17   11      0.50      0.00
   -4  -17   11     -0.31      0.00
   -3  -17   11      1.05      0.00
   -2  -17   11     -0.53      0.00
   -1  -17   11     -0.65      0.00
    0  -17   11      1.69      0.00
    1  -17   11     -0.40      0.00
    2  -17   11      0.34      0.00
    3  -17   11      1.38      0.00
    4  -17   11     -1.42      0.00
    5  -17   11      0.26      0.00
    6  -17   11     -1.82      0.00
    7  -17   11     -0.25      0.00
    8  -17   11     -0.53      0.00
    9  -17   11      0.49      0.00
   10  -17   11     -1.67      0.00
   -8  -16   11     -0.30      0.00
   -7  -16   11      0.12      0.00
   -6  -16   11     -0.84      0.00
   -5  -16   11     -1.88      0.00
   -4  -16   11     -0.18      0.00
   -3  -16   11     -0.80      0.00
   -2  -16   11      0.14      0.00
   -1  -16   11      1.57      0.00
    0  -16   11      1.47      0.00
    1  -16   11      1.02      0.00
    2  -16   11      1.04      0.00
    3  -16   11     -0.01      0.00
    4  -16   11     -1.20      0.00
    5  -16   11      2.67      0.00
    6  -16   11      1.09      0.00
    7  -16   11     -2.51      0.00
    8  -16   11      0.84      0.00
    9  -16   11      1.22      0.00
   10  -16   11     -0.76      0.00
   11  -16   11      0.69      0.00
   -9  -15   11      2.19      0.00
   -8  -15   11      0.16      0.00
   -7  -15   11     -3.39      0.00
   -6  -15   11      2.69      0.00
   -5  -15   11     -0.54      0.00
   -4  -15   11     -0.88      0.00
   -3  -15   11      0.64      0.00
   -2  -15   11      0.16      0.00
   -1  -15   11     -0.29      0.00
    0  -15   11      1.05      0.00
    1  -15   11     -0.69      0.00
    2  -15   11      0.85      0.00
    3  -15   11      0.96      0.00
    4  -15   11     -0.04      0.00
    5  -15   11      0.34      0.00
    6  -15   11      0.06      0.00
    7  -15   11     -1.02      0.00
    8  -15   11     -0.79      0.00
    9  -15   11      2.03      0.00
   10  -15   11     -1.74      0.00
   11  -15   11     -0.54      0.00
  -10  -14   11     -1.38      0.00
   -9  -14   11      1.27      0.00
   -8  -14   11      0.89      0.00
   -7  -14   11      0.19      0.00
   -6  -14   11     -1.12      0.00
   -5  -14   11      0.54      0.00
   -4  -14   11     -1.66      0.00
   -3  -14   11      0.06      0.00
   -2  -14   11     -0.64      0.00
   -1  -14   11      1.29      0.00
    0  -14   11      0.13      0.00
    1  -14   11      2.47      0.00
    2  -14   11      0.06      0.00
    3  -14   11     -0.51      0.00
    4  -14   11      0.47      0.00
    5  -14   11      2.66      0.00
    6  -14   11     -0.18      0.00
    7  -14   11     -1.36      0.00
    8  -14   11      0.09      0.00
    9  -14   11      1.57      0.00
   10  -14   11     -0.99      0.00
   11  -14   11      1.04      0.00
   12  -14   11     -2.49      0.00
  -11  -13   11      0.42      0.00
  -10  -13   11      1.54      0.00
   -9  -13   11     -0.34      0.00
   -8  -13   11      0.66      0.00
   -7  -13   11     -0.75      0.00
   -6  -13   11      1.04      0.00
   -5  -13   11     -0.60      0.00
   -4  -13   11      0.90      0.00
   -3  -13   11     -1.35      0.00
   -2  -13   11      1.23      0.00
   -1  -13   11      0.21      0.00
    0  -13   11     -0.04      0.00
    1  -13   11      0.37      0.00
    2  -13   11      0.06      0.00
    3  -13   11     -0.99      0.00
    4  -13   11     -0.31      0.00
    5  -13   11      2.95      0.00
    6  -13   11      0.84      0.00
    7  -13   11     -0.67      0.00
    8  -13   11     -0.37      0.00
    9  -13   11     -0.66      0.00
   10  -13   11      0.27      0.00
   11  -13   11      0.56      0.00
   12  -13   11     -0.67      0.00
  -11  -12   11     -1.09      0.00
  -10  -12   11      0.97      0.00
   -9  -12   11     -0.01      0.00
   -8  -12   11      2.48      0.00
   -7  -12   11     -0.29      0.00
   -6  -12   11      0.87      0.00
   -5  -12   11      0.46      0.00
   -4  -12   11     -1.11      0.00
   -3  -12   11     -0.15      0.00
   -2  -12   11      0.90      0.00
   -1  -12   11     -0.45      0.00
    0  -12   11     -0.85      0.00
    1  -12   11      0.49      0.00
    2  -12   11      0.01      0.00
    3  -12   11     -0.91      0.00
    4  -12   11      0.27      0.00
    5  -12   11      1.15      0.00
    6  -12   11     -0.62      0.00
    7  -12   11      0.27      0.00
    8  -12   11     -0.79      0.00
    9  -12   11      1.57      0.00
   10  -12   11      0.20      0.00
   11  -12   11      1.36      0.00
   12  -12   11     -1.34      0.00
  -12  -11   11     -0.51      0.00
  -11  -11   11      2.35      0.00
  -10  -11   11     -1.85      0.00
   -9  -11   11     -0.38      0.00
   -8  -11   11     -0.58      0.00
   -7  -11   11     -1.66      0.00
   -6  -11   11      0.86      0.00
   -5  -11   11      1.39      0.00
   -4  -11   11      0.44      0.00
   -3  -11   11     -3.34      0.00
   -2  -11   11      4.31      0.00
   -1  -11   11     -1.32      0.00
    0  -11   11      3.11      0.00
    1  -11   11     -1.63      0.00
    2  -11   11     -1.19      0.00
    3  -11   11     -0.03      0.00
    4  -11   11     -1.67      0.00
    5  -11   11      1.77      0.00
    6  -11   11      0.66      0.00
    7  -11   11      0.08      0.00
    8  -11   11     -1.05      0.00
    9  -11   11     -0.80      0.00
   10  -11   11     -1.13      0.00
   11  -11   11      0.78      0.00
   12  -11   11      0.72      0.00
  -13  -10   11      2.34      0.00
  -12  -10   11     -3.31      0.00
  -11  -10   11     -0.78      0.00
  -10  -10   11      0.49      0.00
   -9  -10   11      0.22      0.00
   -8  -10   11      3.29      0.00
   -7  -10   11     -4.42      0.00
   -6  -10   11      3.41      0.00
   -5  -10   11      0.41      0.00
   -4  -10   11     -1.89      0.00
   -3  -10   11      2.10      0.00
   -2  -10   11     -4.79      0.00
   -1  -10   11      2.52      0.00
    0  -10   11     -2.79      0.00
    1  -10   11     -4.03      0.00
    2  -10   11      2.61      0.00
    3  -10   11     -3.42      0.00
    4  -10   11      1.52      0.00
    5  -10   11      2.04      0.00
    6  -10   11      0.09      0.00
    7  -10   11     -0.94      0.00
    8  -10   11     -0.12      0.00
    9  -10   11      1.12      0.00
   10  -10   11      1.43      0.00
   11  -10   11      0.48      0.00
   12  -10   11     -0.36      0.00
  -13   -9   11     -0.11      0.00
  -12   -9   11      1.42      0.00
  -11   -9   11      0.42      0.00
  -10   -9   11     -1.91      0.00
   -9   -9   11      0.98      0.00
   -8   -9   11     -2.51      0.00
   -7   -9   11      2.85      0.00
   -6   -9   11      0.06      0.00
   -5   -9   11     -1.76      0.00
   -4   -9   11      2.87      0.00
   -3   -9   11     -2.59      0.00
   -2   -9   11      0.89      0.00
   -1   -9   11      3.13      0.00
    0   -9   11      0.49      0.00
    1   -9   11     -1.10      0.00
    2   -9   11     -0.07      0.00
    3   -9   11     -5.42      0.00
    4   -9   11      0.21      0.00
    5   -9   11      1.22      0.00
    6   -9   11     -1.93      0.00
    7   -9   11      2.15      0.00
    8   -9   11     -0.80      0.00
    9   -9   11     -0.90      0.00
   10   -9   11     -2.89      0.00
   11   -9   11      2.09      0.00
   12   -9   11      1.61      0.00
  -14   -8   11      0.13      0.00
  -13   -8   11     -0.28      0.00
  -12   -8   11     -1.20      0.00
  -11   -8   11     -0.36      0.00
  -10   -8   11      0.14      0.00
   -9   -8   11     -2.27      0.00
   -8   -8   11     -0.76      0.00
   -7   -8   11      0.44      0.00
   -6   -8   11      1.23      0.00
   -5   -8   11      2.02      0.00
   -4   -8   11      3.07      0.00
   -3   -8   11     -4.53      0.00
   -2   -8   11     -1.49      0.00
   -1   -8   11     -2.58      0.00
    0   -8   11     -4.47      0.00
    1   -8   11      0.27      0.00
    2   -8   11     -1.11      0.00
    3   -8   11     -1.27      0.00
    4   -8   11      2.71      0.00
    5   -8   11     -1.41      0.00
    6   -8   11     -0.19      0.00
    7   -8   11      0.52      0.00
    8   -8   11     -0.10      0.00
    9   -8   11      0.00      0.00
   10   -8   11      0.09      0.00
   11   -8   11      0.54      0.00
   12   -8   11      1.14      0.00
  -14   -7   11     -1.82      0.00
  -13   -7   11      1.09      0.00
  -12   -7   11      0.53      0.00
  -11   -7   11      0.78      0.00
  -10   -7   11     -1.08      0.00
   -9   -7   11      0.41      0.00
   -8   -7   11      1.39      0.00
   -7   -7   11     -3.17      0.00
   -6   -7   11     -0.17      0.00
   -5   -7   11      2.34      0.00
   -4   -7   11     -1.45      0.00
   -3   -7   11      0.95      0.00
   -2   -7   11      2.05      0.00
   -1   -7   11      1.08      0.00
    0   -7   11     -2.07      0.00
    1   -7   11      2.98      0.00
    2   -7   11     -8.49      0.00
    3   -7   11     -4.51      0.00
    4   -7   11      5.61      0.00
    5   -7   11     -3.02      0.00
    6   -7   11      1.78      0.00
    7   -7   11     -0.46      0.00
    8   -7   11     -0.87      0.00
    9   -7   11      1.37      0.00
   10   -7   11     -1.82      0.00
   11   -7   11     -0.53      0.00
   12   -7   11      0.71      0.00
  -14   -6   11      0.36      0.00
  -13   -6   11     -0.41      0.00
  -12   -6   11     -1.76      0.00
  -11   -6   11     -1.26      0.00
  -10   -6   11      0.14      0.00
   -9   -6   11     -1.02      0.00
   -8   -6   11     -0.77      0.00
   -7   -6   11     -0.41      0.00
   -6   -6   11      2.48      0.00
   -5   -6   11      1.44      0.00
   -4   -6   11      0.15      0.00
   -3   -6   11      1.65      0.00
   -2   -6   11     -8.87      0.00
   -1   -6   11     -3.56      0.00
    0   -6   11      4.54      0.00
    1   -6   11     -4.78      0.00
    2   -6   11     -0.63      0.00
    3   -6   11      1.83      0.00
    4   -6   11     -3.59      0.00
    5   -6   11     -0.87      0.00
    6   -6   11      2.89      0.00
    7   -6   11     -2.95      0.00
    8   -6   11      1.22      0.00
    9   -6   11     -0.38      0.00
   10   -6   11      0.93      0.00
   11   -6   11     -0.63      0.00
   12   -6   11      0.15      0.00
  -15   -5   11     -2.52      0.00
  -14   -5   11      1.34      0.00
  -13   -5   11     -1.48      0.00
  -12   -5   11     -0.09      0.00
  -11   -5   11      0.30      0.00
  -10   -5   11      0.97      0.00
   -9   -5   11     -0.21      0.00
   -8   -5   11     -1.52      0.00
   -7   -5   11     -1.96      0.00
   -6   -5   11     -2.04      0.00
   -5   -5   11      0.00      0.00
   -4   -5   11      6.83      0.00
   -3   -5   11     -1.53      0.00
   -2   -5   11     -0.75      0.00
   -1   -5   11     -0.90      0.00
    0   -5   11     -0.61      0.00
    1   -5   11     -1.85      0.00
    2   -5   11     -2.40      0.00
    3   -5   11     -2.04      0.00
    4   -5   11     -3.57      0.00
    5   -5   11      5.65      0.00
    6   -5   11     -1.67      0.00
    7   -5   11     -1.38      0.00
    8   -5   11      1.89      0.00
    9   -5   11     -1.12      0.00
   10   -5   11      0.80      0.00
   11   -5   11     -1.79      0.00
   12   -5   11      0.48      0.00
  -15   -4   11     -0.14      0.00
  -14   -4   11     -1.24      0.00
  -13   -4   11      0.68      0.00
  -12   -4   11     -1.80      0.00
  -11   -4   11      0.33      0.00
  -10   -4   11      0.02      0.00
   -9   -4   11     -1.67      0.00
   -8   -4   11      1.36      0.00
   -7   -4   11     -0.60      0.00
   -6   -4   11      3.27      0.00
   -5   -4   11     -4.44      0.00
   -4   -4   11     -1.38      0.00
   -3   -4   11      6.79      0.00
   -2   -4   11     -4.06      0.00
   -1   -4   11     -6.47      0.00
    0   -4   11     -1.75      0.00
    1   -4   11      6.65      0.00
    2   -4   11     -2.81      0.00
    3   -4   11     -4.43      0.00
    4   -4   11      1.36      0.00
    5   -4   11     -0.50      0.00
    6   -4   11     -0.80      0.00
    7   -4   11      1.47      0.00
    8   -4   11     -2.17      0.00
    9   -4   11     -0.55      0.00
   10   -4   11      1.36      0.00
   11   -4   11     -0.97      0.00
  -15   -3   11      0.33      0.00
  -14   -3   11     -2.14      0.00
  -13   -3   11      0.01      0.00
  -12   -3   11     -1.19      0.00
  -11   -3   11     -0.74      0.00
  -10   -3   11      3.57      0.00
   -9   -3   11     -1.42      0.00
   -8   -3   11     -2.79      0.00
   -7   -3   11     -2.10      0.00
   -6   -3   11      0.47      0.00
   -5   -3   11     -0.22      0.00
   -4   -3   11      1.25      0.00
   -3   -3   11     -2.17      0.00
   -2   -3   11      3.49      0.00
   -1   -3   11     -4.74      0.00
    0   -3   11     -2.23      0.00
    1   -3   11     -0.84      0.00
    2   -3   11      5.64      0.00
    3   -3   11     -5.12      0.00
    4   -3   11      0.16      0.00
    5   -3   11      1.20      0.00
    6   -3   11     -1.12      0.00
    7   -3   11      1.96      0.00
    8   -3   11      0.81      0.00
    9   -3   11      1.13      0.00
   10   -3   11     -0.48      0.00
   11   -3   11     -2.30      0.00
  -15   -2   11      0.33      0.00
  -14   -2   11      0.71      0.00
  -13   -2   11     -1.33      0.00
  -12   -2   11     -2.38      0.00
  -11   -2   11      0.24      0.00
  -10   -2   11      1.76      0.00
   -9   -2   11     -0.42      0.00
   -8   -2   11     -0.94      0.00
   -7   -2   11      2.21      0.00
   -6   -2   11     -0.16      0.00
   -5   -2   11      0.09      0.00
   -4   -2   11     -0.79      0.00
   -3   -2   11      3.26      0.00
   -2   -2   11      1.69      0.00
   -1   -2   11     -6.69      0.00
    0   -2   11      0.09      0.00
    1   -2   11      0.97      0.00
    2   -2   11      1.02      0.00
    3   -2   11      1.39      0.00
    4   -2   11     -4.45      0.00
    5   -2   11      1.24      0.00
    6   -2   11      2.20      0.00
    7   -2   11     -4.08      0.00
    8   -2   11      0.63      0.00
    9   -2   11      0.25      0.00
   10   -2   11     -1.08      0.00
   11   -2   11     -0.80      0.00
  -15   -1   11      0.32      0.00
  -14   -1   11     -1.16      0.00
  -13   -1   11     -0.59      0.00
  -12   -1   11     -0.73      0.00
  -11   -1   11      0.59      0.00
  -10   -1   11     -0.51      0.00
   -9   -1   11      0.78      0.00
   -8   -1   11     -3.14      0.00
   -7   -1   11     -2.74      0.00
   -6   -1   11      1.52      0.00
   -5   -1   11     -2.97      0.00
   -4   -1   11      1.20      0.00
   -3   -1   11     -2.02      0.00
   -2   -1   11     -0.06      0.00
   -1   -1   11     -0.31      0.00
    0   -1   11     -2.08      0.00
    1   -1   11     -0.23      0.00
    2   -1   11      4.05      0.00
    3   -1   11     -0.93      0.00
    4   -1   11     -1.80      0.00
    5   -1   11     -1.49      0.00
    6   -1   11      0.45      0.00
    7   -1   11      1.15      0.00
    8   -1   11      1.11      0.00
    9   -1   11      0.58      0.00
   10   -1   11     -1.41      0.00
  -15    0   11      0.14      0.00
  -14    0   11     -0.41      0.00
  -13    0   11     -0.37      0.00
  -12    0   11     -1.83      0.00
  -11    0   11     -0.12      0.00
  -10    0   11      0.15      0.00
   -9    0   11      1.11      0.00
   -8    0   11      2.70      0.00
   -7    0   11     -1.05      0.00
   -6    0   11     -1.03      0.00
   -5    0   11      0.98      0.00
   -4    0   11      2.96      0.00
   -3    0   11      0.17      0.00
   -2    0   11      0.26      0.00
   -1    0   11     -2.51      0.00
    0    0   11      1.27      0.00
    1    0   11      0.16      0.00
    2    0   11      1.06      0.00
    3    0   11      3.69      0.00
    4    0   11     -2.33      0.00
    5    0   11     -0.85      0.00
    6    0   11      0.34      0.00
    7    0   11     -0.83      0.00
    8    0   11      0.46      0.00
    9    0   11      0.54      0.00
   10    0   11     -1.80      0.00
  -15    1   11      1.43      0.00
  -14    1   11      1.07      0.00
  -13    1   11     -2.15      0.00
  -12    1   11      1.15      0.00
  -11    1   11     -0.42      0.00
  -10    1   11     -2.33      0.00
   -9    1   11     -1.31      0.00
   -8    1   11     -0.21      0.00
   -7    1   11      0.42      0.00
   -6    1   11     -4.31      0.00
   -5    1   11      0.42      0.00
   -4    1   11      0.16      0.00
   -3    1   11     -1.53      0.00
   -2    1   11     -1.49      0.00
   -1    1   11      1.99      0.00
    0    1   11     -1.56      0.00
    1    1   11     -0.35      0.00
    2    1   11      4.16      0.00
    3    1   11     -0.57      0.00
    4    1   11     -3.10      0.00
    5    1   11     -0.29      0.00
    6    1   11     -1.48      0.00
    7    1   11     -0.81      0.00
    8    1   11      0.56      0.00
    9    1   11     -0.68      0.00
  -15    2   11      0.64      0.00
  -14    2   11      0.98      0.00
  -13    2   11      0.44      0.00
  -12    2   11     -0.54      0.00
  -11    2   11     -0.60      0.00
  -10    2   11      2.96      0.00
   -9    2   11     -0.06      0.00
   -8    2   11     -0.58      0.00
   -7    2   11      1.25      0.00
   -6    2   11     -1.15      0.00
   -5    2   11      0.05      0.00
   -4    2   11      2.35      0.00
   -3    2   11      0.02      0.00
   -2    2   11      1.16      0.00
   -1    2   11     -3.12      0.00
    0    2   11      3.57      0.00
    1    2   11     -0.55      0.00
    2    2   11     -0.21      0.00
    3    2   11      2.90      0.00
    4    2   11     -0.17      0.00
    5    2   11      0.07      0.00
    6    2   11     -1.31      0.00
    7    2   11      0.00      0.00
    8    2   11     -0.68      0.00
  -15    3   11     -0.12      0.00
  -14    3   11     -1.45      0.00
  -13    3   11      0.45      0.00
  -12    3   11      1.68      0.00
  -11    3   11     -1.91      0.00
  -10    3   11     -0.49      0.00
   -9    3   11     -0.46      0.00
   -8    3   11      1.44      0.00
   -7    3   11     -0.21      0.00
   -6    3   11      0.35      0.00
   -5    3   11     -1.89      0.00
   -4    3   11     -1.54      0.00
   -3    3   11      0.15      0.00
   -2    3   11     -0.49      0.00
   -1    3   11      1.14      0.00
    0    3   11     -2.52      0.00
    1    3   11      3.87      0.00
    2    3   11     -0.64      0.00
    3    3   11      0.46      0.00
    4    3   11     -0.96      0.00
    5    3   11     -0.42      0.00
    6    3   11     -0.29      0.00
    7    3   11     -0.14      0.00
    8    3   11     -1.76      0.00
  -15    4   11      2.58      0.00
  -14    4   11     -0.53      0.00
  -13    4   11      0.32      0.00
  -12    4   11     -0.57      0.00
  -11    4   11     -0.31      0.00
  -10    4   11      1.54      0.00
   -9    4   11      1.02      0.00
   -8    4   11     -1.84      0.00
   -7    4   11     -2.49      0.00
   -6    4   11      1.09      0.00
   -5    4   11      3.90      0.00
   -4    4   11     -1.94      0.00
   -3    4   11      0.83      0.00
   -2    4   11      1.55      0.00
   -1    4   11     -1.25      0.00
    0    4   11      0.80      0.00
    1    4   11     -0.21      0.00
    2    4   11     -0.72      0.00
    3    4   11      0.40      0.00
    4    4   11      3.13      0.00
    5    4   11      1.75      0.00
    6    4   11     -0.51      0.00
    7    4   11     -0.50      0.00
  -14    5   11      0.55      0.00
  -13    5   11      0.68      0.00
  -12    5   11     -0.46      0.00
  -11    5   11      0.52      0.00
  -10    5   11      1.25      0.00
   -9    5   11     -0.96      0.00
   -8    5   11      3.88      0.00
   -7    5   11      0.74      0.00
   -6    5   11     -2.52      0.00
   -5    5   11     -0.47      0.00
   -4    5   11      0.26      0.00
   -3    5   11     -0.44      0.00
   -2    5   11      0.77      0.00
   -1    5   11     -0.76      0.00
    0    5   11      1.37      0.00
    1    5   11      2.51      0.00
    2    5   11     -2.75      0.00
    3    5   11     -1.39      0.00
    4    5   11     -2.01      0.00
    5    5   11      2.14      0.00
    6    5   11     -0.57      0.00
  -14    6   11     -0.38      0.00
  -13    6   11     -0.19      0.00
  -12    6   11      0.49      0.00
  -11    6   11     -1.60      0.00
  -10    6   11     -1.18      0.00
   -9    6   11     -0.11      0.00
   -8    6   11      0.07      0.00
   -7    6   11      1.22      0.00
   -6    6   11     -1.04      0.00
   -5    6   11      0.07      0.00
   -4    6   11      0.92      0.00
   -3    6   11      1.21      0.00
   -2    6   11     -0.10      0.00
   -1    6   11     -1.60      0.00
    0    6   11      0.70      0.00
    1    6   11      1.74      0.00
    2    6   11     -2.93      0.00
    3    6   11     -0.41      0.00
    4    6   11      2.27      0.00
    5    6   11      1.47      0.00
  -13    7   11      1.42      0.00
  -12    7   11      1.14      0.00
  -11    7   11      0.04      0.00
  -10    7   11      2.20      0.00
   -9    7   11     -1.83      0.00
   -8    7   11      2.38      0.00
   -7    7   11      0.82      0.00
   -6    7   11     -0.31      0.00
   -5    7   11     -1.62      0.00
   -4    7   11      0.23      0.00
   -3    7   11      1.55      0.00
   -2    7   11     -0.70      0.00
   -1    7   11     -1.45      0.00
    0    7   11      4.25      0.00
    1    7   11      3.25      0.00
    2    7   11     -2.33      0.00
    3    7   11     -2.02      0.00
    4    7   11      1.05      0.00
  -12    8   11      1.63      0.00
  -11    8   11     -1.04      0.00
  -10    8   11     -0.92      0.00
   -9    8   11     -1.09      0.00
   -8    8   11      1.39      0.00
   -7    8   11      0.60      0.00
   -6    8   11     -0.88      0.00
   -5    8   11     -0.68      0.00
   -4    8   11      0.91      0.00
   -3    8   11      1.15      0.00
   -2    8   11     -1.41      0.00
   -1    8   11     -2.92      0.00
    0    8   11      1.96      0.00
    1    8   11     -0.28      0.00
    2    8   11     -0.75      0.00
    3    8   11     -1.14      0.00
  -11    9   11      0.73      0.00
  -10    9   11     -0.64      0.00
   -9    9   11      1.58      0.00
   -8    9   11     -0.23      0.00
   -7    9   11      0.91      0.00
   -6    9   11      0.50      0.00
   -5    9   11     -0.76      0.00
   -4    9   11      0.31      0.00
   -3    9   11      1.03      0.00
   -2    9   11     -1.97      0.00
   -1    9   11      0.82      0.00
    0    9   11      1.74      0.00
    1    9   11     -0.72      0.00
  -10   10   11      2.44      0.00
   -9   10   11     -1.68      0.00
   -8   10   11      1.24      0.00
   -7   10   11     -1.83      0.00
   -6   10   11      2.31      0.00
   -5   10   11      0.64      0.00
   -4   10   11     -1.83      0.00
   -3   10   11      1.65      0.00
   -2   10   11     -0.54      0.00
   -1   10   11     -1.07      0.00
   -6   11   11     -0.81      0.00
   -5   11   11      2.24      0.00
    1  -21   12      0.83      0.00
    2  -21   12      1.50      0.00
    3  -21   12      0.00      0.00
    4  -21   12      0.09      0.00
   -2  -20   12      0.69      0.00
   -1  -20   12     -1.16      0.00
    0  -20   12      0.31      0.00
    1  -20   12     -0.91      0.00
    2  -20   12     -1.52      0.00
    3  -20   12      1.49      0.00
    4  -20   12      2.31      0.00
    5  -20   12     -1.28      0.00
    6  -20   12     -0.04      0.00
    7  -20   12     -0.59      0.00
   -4  -19   12      1.18      0.00
   -3  -19   12     -0.40      0.00
   -2  -19   12     -0.46      0.00
   -1  -19   12      0.05      0.00
    0  -19   12     -0.50      0.00
    1  -19   12      1.55      0.00
    2  -19   12     -0.38      0.00
    3  -19   12      1.49      0.00
    4  -19   12      1.31      0.00
    5  -19   12      0.03      0.00
    6  -19   12     -0.81      0.00
    7  -19   12     -0.73      0.00
    8  -19   12      2.54      0.00
   -6  -18   12      0.31      0.00
   -5  -18   12      0.42      0.00
   -4  -18   12      0.13      0.00
   -3  -18   12      0.79      0.00
   -2  -18   12      0.22      0.00
   -1  -18   12     -1.34      0.00
    0  -18   12     -0.79      0.00
    1  -18   12     -1.54      0.00
    2  -18   12     -0.13      0.00
    3  -18   12      1.04      0.00
    4  -18   12      0.27      0.00
    5  -18   12      0.62      0.00
    6  -18   12     -0.13      0.00
    7  -18   12      0.39      0.00
    8  -18   12      1.36      0.00
    9  -18   12     -3.16      0.00
   -7  -17   12     -0.22      0.00
   -6  -17   12      0.75      0.00
   -5  -17   12      0.55      0.00
   -4  -17   12     -0.69      0.00
   -3  -17   12     -1.15      0.00
   -2  -17   12      1.20      0.00
   -1  -17   12      0.38      0.00
    0  -17   12     -0.23      0.00
    1  -17   12     -0.23      0.00
    2  -17   12      0.54      0.00
    3  -17   12      0.61      0.00
    4  -17   12     -1.10      0.00
    5  -17   12      1.24      0.00
    6  -17   12      0.83      0.00
    7  -17   12     -1.55      0.00
    8  -17   12      1.86      0.00
    9  -17   12      1.00      0.00
   10  -17   12     -0.60      0.00
   -8  -16   12     -0.10      0.00
   -7  -16   12      0.77      0.00
   -6  -16   12      0.04      0.00
   -5  -16   12     -0.52      0.00
   -4  -16   12      0.97      0.00
   -3  -16   12      1.53      0.00
   -2  -16   12     -0.29      0.00
   -1  -16   12      0.17      0.00
    0  -16   12     -3.28      0.00
    1  -16   12      0.00      0.00
    2  -16   12      0.22      0.00
    3  -16   12      0.85      0.00
    4  -16   12     -1.11      0.00
    5  -16   12     -1.37      0.00
    6  -16   12      1.52      0.00
    7  -16   12     -0.02      0.00
    8  -16   12     -0.39      0.00
    9  -16   12      1.13      0.00
   10  -16   12      2.39      0.00
   -9  -15   12     -0.63      0.00
   -8  -15   12     -0.61      0.00
   -7  -15   12     -0.12      0.00
   -6  -15   12      0.78      0.00
   -5  -15   12      1.26      0.00
   -4  -15   12     -1.45      0.00
   -3  -15   12     -0.51      0.00
   -2  -15   12      0.98      0.00
   -1  -15   12      1.35      0.00
    0  -15   12     -0.72      0.00
    1  -15   12     -0.22      0.00
    2  -15   12      0.19      0.00
    3  -15   12      1.31      0.00
    4  -15   12     -0.83      0.00
    5  -15   12     -0.90      0.00
    6  -15   12      0.54      0.00
    7  -15   12     -1.25      0.00
    8  -15   12      1.75      0.00
    9  -15   12     -1.76      0.00
   10  -15   12      1.21      0.00
   11  -15   12      0.15      0.00
  -10  -14   12      1.08      0.00
   -9  -14   12     -2.23      0.00
   -8  -14   12     -0.23      0.00
   -7  -14   12     -0.50      0.00
   -6  -14   12     -1.02      0.00
   -5  -14   12     -1.94      0.00
   -4  -14   12      1.76      0.00
   -3  -14   12      0.46      0.00
   -2  -14   12      0.02      0.00
   -1  -14   12      0.73      0.00
    0  -14   12     -1.07      0.00
    1  -14   12      0.85      0.00
    2  -14   12      0.35      0.00
    3  -14   12     -0.30      0.00
    4  -14   12      0.43      0.00
    5  -14   12      0.30      0.00
    6  -14   12     -0.77      0.00
    7  -14   12      0.88      0.00
    8  -14   12     -0.63      0.00
    9  -14   12      0.62      0.00
   10  -14   12      0.63      0.00
   11  -14   12     -0.13      0.00
  -11  -13   12     -0.28      0.00
  -10  -13   12      1.28      0.00
   -9  -13   12      0.26      0.00
   -8  -13   12      0.57      0.00
   -7  -13   12      0.54      0.00
   -6  -13   12     -0.45      0.00
   -5  -13   12      0.43      0.00
   -4  -13   12     -1.43      0.00
   -3  -13   12      0.76      0.00
   -2  -13   12      0.10      0.00
   -1  -13   12      0.24      0.00
    0  -13   12     -0.60      0.00
    1  -13   12      0.95      0.00
    2  -13   12      0.50      0.00
    3  -13   12      0.81      0.00
    4  -13   12      0.58      0.00
    5  -13   12     -1.39      0.00
    6  -13   12     -1.15      0.00
    7  -13   12      1.22      0.00
    8  -13   12      0.44      0.00
    9  -13   12     -0.59      0.00
   10  -13   12      2.11      0.00
   11  -13   12     -2.76      0.00
  -11  -12   12      1.47      0.00
  -10  -12   12     -1.17      0.00
   -9  -12   12     -1.63      0.00
   -8  -12   12      0.76      0.00
   -7  -12   12     -1.36      0.00
   -6  -12   12     -0.20      0.00
   -5  -12   12     -0.96      0.00
   -4  -12   12     -0.08      0.00
   -3  -12   12     -1.50      0.00
   -2  -12   12      1.66      0.00
   -1  -12   12      2.38      0.00
    0  -12   12      0.88      0.00
    1  -12   12      0.84      0.00
    2  -12   12      1.30      0.00
    3  -12   12      1.52      0.00
    4  -12   12      0.01      0.00
    5  -12   12     -0.84      0.00
    6  -12   12      0.29      0.00
    7  -12   12     -0.22      0.00
    8  -12   12      0.68      0.00
    9  -12   12     -0.57      0.00
   10  -12   12     -0.72      0.00
   11  -12   12      0.86      0.00
   12  -12   12      1.10      0.00
  -12  -11   12      1.19      0.00
  -11  -11   12     -1.96      0.00
  -10  -11   12      2.36      0.00
   -9  -11   12      0.97      0.00
   -8  -11   12     -0.03      0.00
   -7  -11   12     -0.98      0.00
   -6  -11   12      1.92      0.00
   -5  -11   12     -1.23      0.00
   -4  -11   12     -1.58      0.00
   -3  -11   12      3.21      0.00
   -2  -11   12     -4.99      0.00
   -1  -11   12      1.26      0.00
    0  -11   12      0.66      0.00
    1  -11   12     -1.80      0.00
    2  -11   12      3.12      0.00
    3  -11   12      2.25      0.00
    4  -11   12      0.24      0.00
    5  -11   12     -0.02      0.00
    6  -11   12      0.16      0.00
    7  -11   12      0.31      0.00
    8  -11   12     -1.63      0.00
    9  -11   12      4.44      0.00
   10  -11   12     -1.08      0.00
   11  -11   12      0.87      0.00
   12  -11   12     -0.43      0.00
  -13  -10   12     -1.69      0.00
  -12  -10   12      3.20      0.00
  -11  -10   12     -0.49      0.00
  -10  -10   12      0.52      0.00
   -9  -10   12      1.67      0.00
   -8  -10   12     -0.49      0.00
   -7  -10   12     -1.19      0.00
   -6  -10   12      1.32      0.00
   -5  -10   12     -4.39      0.00
   -4  -10   12      2.03      0.00
   -3  -10   12     -0.01      0.00
   -2  -10   12      1.94      0.00
   -1  -10   12      1.92      0.00
    0  -10   12      3.20      0.00
    1  -10   12     -0.35      0.00
    2  -10   12      0.93      0.00
    3  -10   12      2.06      0.00
    4  -10   12     -0.93      0.00
    5  -10   12     -2.29      0.00
    6  -10   12      1.55      0.00
    7  -10   12      1.55      0.00
    8  -10   12     -0.23      0.00
    9  -10   12     -3.44      0.00
   10  -10   12      0.31      0.00
   11  -10   12      2.17      0.00
   12  -10   12     -0.15      0.00
  -13   -9   12     -0.43      0.00
  -12   -9   12      0.81      0.00
  -11   -9   12     -0.68      0.00
  -10   -9   12     -0.25      0.00
   -9   -9   12     -0.64      0.00
   -8   -9   12      1.12      0.00
   -7   -9   12      1.39      0.00
   -6   -9   12     -2.10      0.00
   -5   -9   12      0.60      0.00
   -4   -9   12      0.89      0.00
   -3   -9   12     -2.11      0.00
   -2   -9   12     -0.88      0.00
   -1   -9   12      0.45      0.00
    0   -9   12     -2.61      0.00
    1   -9   12      3.37      0.00
    2   -9   12      2.44      0.00
    3   -9   12      1.77      0.00
    4   -9   12      2.16      0.00
    5   -9   12     -2.31      0.00
    6   -9   12      1.15      0.00
    7   -9   12     -0.45      0.00
    8   -9   12      0.08      0.00
    9   -9   12      2.18      0.00
   10   -9   12     -0.30      0.00
   11   -9   12      0.57      0.00
   12   -9   12     -0.24      0.00
  -13   -8   12      1.10      0.00
  -12   -8   12      0.40      0.00
  -11   -8   12     -0.05      0.00
  -10   -8   12      1.41      0.00
   -9   -8   12      1.46      0.00
   -8   -8   12      0.77      0.00
   -7   -8   12     -1.65      0.00
   -6   -8   12     -1.04      0.00
   -5   -8   12     -1.59      0.00
   -4   -8   12     -2.65      0.00
   -3   -8   12      3.45      0.00
   -2   -8   12      3.86      0.00
   -1   -8   12      0.83      0.00
    0   -8   12      3.33      0.00
    1   -8   12     -2.24      0.00
    2   -8   12     -0.26      0.00
    3   -8   12      4.37      0.00
    4   -8   12     -1.76      0.00
    5   -8   12      0.75      0.00
    6   -8   12      1.47      0.00
    7   -8   12     -0.80      0.00
    8   -8   12     -0.90      0.00
    9   -8   12      0.34      0.00
   10   -8   12      0.45      0.00
   11   -8   12     -0.36      0.00
   12   -8   12     -2.01      0.00
  -14   -7   12      0.43      0.00
  -13   -7   12      1.04      0.00
  -12   -7   12     -2.22      0.00
  -11   -7   12     -0.03      0.00
  -10   -7   12      0.91      0.00
   -9   -7   12     -2.27      0.00
   -8   -7   12      2.43      0.00
   -7   -7   12      2.13      0.00
   -6   -7   12      0.20      0.00
   -5   -7   12     -1.28      0.00
   -4   -7   12     -1.13      0.00
   -3   -7   12      1.66      0.00
   -2   -7   12     -5.58      0.00
   -1   -7   12      1.80      0.00
    0   -7   12      4.31      0.00
    1   -7   12     -2.71      0.00
    2   -7   12      2.97      0.00
    3   -7   12      2.63      0.00
    4   -7   12     -1.71      0.00
    5   -7   12      2.02      0.00
    6   -7   12      0.01      0.00
    7   -7   12     -0.88      0.00
    8   -7   12      0.19      0.00
    9   -7   12      1.41      0.00
   10   -7   12      0.12      0.00
   11   -7   12      0.25      0.00
  -14   -6   12     -0.24      0.00
  -13   -6   12      1.31      0.00
  -12   -6   12      0.87      0.00
  -11   -6   12     -0.36      0.00
  -10   -6   12      1.08      0.00
   -9   -6   12     -0.80      0.00
   -8   -6   12      1.35      0.00
   -7   -6   12     -0.85      0.00
   -6   -6   12      0.28      0.00
   -5   -6   12     -0.14      0.00
   -4   -6   12     -3.64      0.00
   -3   -6   12      2.69      0.00
   -2   -6   12      5.43      0.00
   -1   -6   12     -0.44      0.00
    0   -6   12     -1.83      0.00
    1   -6   12      3.48      0.00
    2   -6   12     -2.14      0.00
    3   -6   12      0.39      0.00
    4   -6   12      2.35      0.00
    5   -6   12      1.09      0.00
    6   -6   12     -0.30      0.00
    7   -6   12      0.70      0.00
    8   -6   12     -0.62      0.00
    9   -6   12     -0.15      0.00
   10   -6   12      0.30      0.00
   11   -6   12     -0.54      0.00
  -14   -5   12     -0.40      0.00
  -13   -5   12      0.36      0.00
  -12   -5   12      0.79      0.00
  -11   -5   12     -0.48      0.00
  -10   -5   12     -1.27      0.00
   -9   -5   12      0.00      0.00
   -8   -5   12      2.55      0.00
   -7   -5   12      2.76      0.00
   -6   -5   12      0.13      0.00
   -5   -5   12     -1.80      0.00
   -4   -5   12      1.12      0.00
   -3   -5   12     -1.70      0.00
   -2   -5   12      0.15      0.00
   -1   -5   12      1.56      0.00
    0   -5   12      3.89      0.00
    1   -5   12     -3.12      0.00
    2   -5   12     -0.25      0.00
    3   -5   12     -1.50      0.00
    4   -5   12      2.23      0.00
    5   -5   12     -0.37      0.00
    6   -5   12      0.71      0.00
    7   -5   12      0.21      0.00
    8   -5   12     -1.28      0.00
    9   -5   12      1.23      0.00
   10   -5   12      1.23      0.00
   11   -5   12      1.53      0.00
  -15   -4   12     -1.56      0.00
  -14   -4   12      2.28      0.00
  -13   -4   12     -0.50      0.00
  -12   -4   12     -0.12      0.00
  -11   -4   12     -0.14      0.00
  -10   -4   12      1.16      0.00
   -9   -4   12     -2.35      0.00
   -8   -4   12      0.26      0.00
   -7   -4   12      0.68      0.00
   -6   -4   12      1.97      0.00
   -5   -4   12      0.13      0.00
   -4   -4   12     -4.06      0.00
   -3   -4   12      1.88      0.00
   -2   -4   12     -0.59      0.00
   -1   -4   12      3.39      0.00
    0   -4   12     -0.56      0.00
    1   -4   12      0.16      0.00
    2   -4   12     -1.87      0.00
    3   -4   12      4.46      0.00
    4   -4   12     -3.48      0.00
    5   -4   12      0.75      0.00
    6   -4   12      1.52      0.00
    7   -4   12      0.26      0.00
    8   -4   12     -0.16      0.00
    9   -4   12      1.16      0.00
   10   -4   12     -0.91      0.00
   11   -4   12     -0.51      0.00
  -15   -3   12      0.77      0.00
  -14   -3   12     -0.36      0.00
  -13   -3   12      1.13      0.00
  -12   -3   12      1.15      0.00
  -11   -3   12     -1.18      0.00
  -10   -3   12     -0.01      0.00
   -9   -3   12      0.74      0.00
   -8   -3   12     -0.01      0.00
   -7   -3   12      1.75      0.00
   -6   -3   12      2.24      0.00
   -5   -3   12      0.94      0.00
   -4   -3   12      0.16      0.00
   -3   -3   12      0.03      0.00
   -2   -3   12     -0.43      0.00
   -1   -3   12      4.81      0.00
    0   -3   12      1.34      0.00
    1   -3   12     -7.73      0.00
    2   -3   12      0.36      0.00
    3   -3   12      1.29      0.00
    4   -3   12     -0.66      0.00
    5   -3   12      0.48      0.00
    6   -3   12      1.42      0.00
    7   -3   12     -2.30      0.00
    8   -3   12     -0.68      0.00
    9   -3   12      1.74      0.00
   10   -3   12     -1.18      0.00
  -15   -2   12     -0.94      0.00
  -14   -2   12     -0.05      0.00
  -13   -2   12      1.35      0.00
  -12   -2   12      0.22      0.00
  -11   -2   12     -0.45      0.00
  -10   -2   12      0.17      0.00
   -9   -2   12     -0.82      0.00
   -8   -2   12     -0.13      0.00
   -7   -2   12     -1.49      0.00
   -6   -2   12      2.00      0.00
   -5   -2   12     -0.22      0.00
   -4   -2   12     -0.02      0.00
   -3   -2   12     -4.14      0.00
   -2   -2   12      1.97      0.00
   -1   -2   12      2.18      0.00
    0   -2   12     -0.61      0.00
    1   -2   12      1.08      0.00
    2   -2   12     -4.47      0.00
    3   -2   12     -0.38      0.00
    4   -2   12      1.59      0.00
    5   -2   12     -0.65      0.00
    6   -2   12     -0.90      0.00
    7   -2   12      1.77      0.00
    8   -2   12      0.06      0.00
    9   -2   12     -0.56      0.00
   10   -2   12      0.24      0.00
  -15   -1   12     -1.16      0.00
  -14   -1   12     -0.19      0.00
  -13   -1   12      1.67      0.00
  -12   -1   12      0.84      0.00
  -11   -1   12     -0.55      0.00
  -10   -1   12     -0.63      0.00
   -9   -1   12      1.68      0.00
   -8   -1   12      1.66      0.00
   -7   -1   12     -0.76      0.00
   -6   -1   12      0.03      0.00
   -5   -1   12      5.19      0.00
   -4   -1   12     -0.28      0.00
   -3   -1   12     -1.75      0.00
   -2   -1   12      1.77      0.00
   -1   -1   12      2.58      0.00
    0   -1   12     -0.55      0.00
    1   -1   12     -3.47      0.00
    2   -1   12     -1.38      0.00
    3   -1   12      1.76      0.00
    4   -1   12      0.94      0.00
    5   -1   12      0.32      0.00
    6   -1   12      1.31      0.00
    7   -1   12     -0.06      0.00
    8   -1   12      0.01      0.00
    9   -1   12      0.43      0.00
  -15    0   12     -1.06      0.00
  -14    0   12     -0.77      0.00
  -13    0   12     -0.50      0.00
  -12    0   12      1.01      0.00
  -11    0   12     -0.25      0.00
  -10    0   12     -0.62      0.00
   -9    0   12     -1.47      0.00
   -8    0   12     -0.69      0.00
   -7    0   12      1.50      0.00
   -6    0   12     -1.49      0.00
   -5    0   12      1.02      0.00
   -4    0   12     -0.58      0.00
   -3    0   12     -0.36      0.00
   -2    0   12      1.70      0.00
   -1    0   12     -2.55      0.00
    0    0   12      1.16      0.00
    1    0   12      1.33      0.00
    2    0   12     -4.16      0.00
    3    0   12     -1.99      0.00
    4    0   12      1.99      0.00
    5    0   12      0.04      0.00
    6    0   12     -1.36      0.00
    7    0   12      0.57      0.00
    8    0   12     -2.11      0.00
    9    0   12      0.06      0.00
  -15    1   12     -0.82      0.00
  -14    1   12     -1.82      0.00
  -13    1   12      1.68      0.00
  -12    1   12      0.71      0.00
  -11    1   12     -1.67      0.00
  -10    1   12      1.88      0.00
   -9    1   12      0.76      0.00
   -8    1   12     -1.92      0.00
   -7    1   12     -0.97      0.00
   -6    1   12      3.30      0.00
   -5    1   12     -0.31      0.00
   -4    1   12     -0.57      0.00
   -3    1   12      2.53      0.00
   -2    1   12      0.70      0.00
   -1    1   12     -0.87      0.00
    0    1   12      0.55      0.00
    1    1   12     -0.95      0.00
    2    1   12     -4.19      0.00
    3    1   12      2.63      0.00
    4    1   12      0.93      0.00
    5    1   12     -1.09      0.00
    6    1   12      1.46      0.00
    7    1   12      2.14      0.00
    8    1   12      0.08      0.00
  -15    2   12     -0.65      0.00
  -14    2   12     -2.21      0.00
  -13    2   12     -1.24      0.00
  -12    2   12      2.63      0.00
  -11    2   12     -2.15      0.00
  -10    2   12     -2.05      0.00
   -9    2   12      2.67      0.00
   -8    2   12      0.91      0.00
   -7    2   12     -0.65      0.00
   -6    2   12     -0.69      0.00
   -5    2   12      0.88      0.00
   -4    2   12     -1.89      0.00
   -3    2   12      1.45      0.00
   -2    2   12     -0.53      0.00
   -1    2   12     -0.90      0.00
    0    2   12      2.02      0.00
    1    2   12      0.04      0.00
    2    2   12     -1.13      0.00
    3    2   12     -1.52      0.00
    4    2   12     -0.51      0.00
    5    2   12      0.21      0.00
    6    2   12     -0.47      0.00
    7    2   12     -1.76      0.00
  -14    3   12      1.14      0.00
  -13    3   12     -0.23      0.00
  -12    3   12     -2.74      0.00
  -11    3   12      0.78      0.00
  -10    3   12     -0.42      0.00
   -9    3   12     -2.13      0.00
   -8    3   12     -2.10      0.00
   -7    3   12      0.01      0.00
   -6    3   12      0.54      0.00
   -5    3   12      0.62      0.00
   -4    3   12      0.54      0.00
   -3    3   12     -2.33      0.00
   -2    3   12      3.07      0.00
   -1    3   12      0.05      0.00
    0    3   12     -0.15      0.00
    1    3   12     -0.26      0.00
    2    3   12     -0.31      0.00
    3    3   12      2.45      0.00
    4    3   12     -1.83      0.00
    5    3   12      0.66      0.00
    6    3   12      0.81      0.00
    7    3   12     -0.59      0.00
  -14    4   12     -0.37      0.00
  -13    4   12      0.64      0.00
  -12    4   12      2.01      0.00
  -11    4   12     -1.03      0.00
  -10    4   12      0.73      0.00
   -9    4   12      1.36      0.00
   -8    4   12      1.32      0.00
   -7    4   12     -0.09      0.00
   -6    4   12     -1.36      0.00
   -5    4   12      1.29      0.00
   -4    4   12     -0.67      0.00
   -3    4   12     -1.39      0.00
   -2    4   12     -1.40      0.00
   -1    4   12      1.24      0.00
    0    4   12      0.02      0.00
    1    4   12      0.37      0.00
    2    4   12     -0.12      0.00
    3    4   12      0.40      0.00
    4    4   12     -2.34      0.00
    5    4   12     -0.40      0.00
    6    4   12     -2.15      0.00
  -14    5   12     -2.03      0.00
  -13    5   12     -1.45      0.00
  -12    5   12      0.27      0.00
  -11    5   12     -2.57      0.00
  -10    5   12     -0.95      0.00
   -9    5   12     -0.68      0.00
   -8    5   12     -1.32      0.00
   -7    5   12      1.56      0.00
   -6    5   12     -0.82      0.00
   -5    5   12      0.70      0.00
   -4    5   12      0.67      0.00
   -3    5   12     -0.87      0.00
   -2    5   12      1.36      0.00
   -1    5   12     -0.72      0.00
    0    5   12     -0.96      0.00
    1    5   12      0.43      0.00
    2    5   12      1.83      0.00
    3    5   12      1.04      0.00
    4    5   12      1.35      0.00
    5    5   12     -0.39      0.00
  -13    6   12     -0.54      0.00
  -12    6   12      1.47      0.00
  -11    6   12      0.41      0.00
  -10    6   12      0.99      0.00
   -9    6   12     -0.58      0.00
   -8    6   12     -1.44      0.00
   -7    6   12      0.45      0.00
   -6    6   12      1.65      0.00
   -5    6   12     -0.35      0.00
   -4    6   12     -0.88      0.00
   -3    6   12     -0.56      0.00
   -2    6   12      0.66      0.00
   -1    6   12      0.99      0.00
    0    6   12     -0.62      0.00
    1    6   12      0.52      0.00
    2    6   12      1.44      0.00
    3    6   12      0.81      0.00
    4    6   12     -0.97      0.00
  -12    7   12     -0.57      0.00
  -11    7   12     -1.02      0.00
  -10    7   12     -0.60      0.00
   -9    7   12     -0.05      0.00
   -8    7   12     -0.38      0.00
   -7    7   12     -1.17      0.00
   -6    7   12      1.25      0.00
   -5    7   12     -0.94      0.00
   -4    7   12      0.57      0.00
   -3    7   12      0.89      0.00
   -2    7   12     -1.18      0.00
   -1    7   12      0.04      0.00
    0    7   12      0.17      0.00
    1    7   12     -2.29      0.00
    2    7   12      1.49      0.00
  -11    8   12     -1.74      0.00
  -10    8   12      2.16      0.00
   -9    8   12      0.88      0.00
   -8    8   12     -1.90      0.00
   -7    8   12     -0.55      0.00
   -6    8   12      2.36      0.00
   -5    8   12      0.40      0.00
   -4    8   12      0.38      0.00
   -3    8   12     -1.97      0.00
   -2    8   12      1.34      0.00
   -1    8   12      0.08      0.00
    0    8   12     -1.00      0.00
    1    8   12      0.54      0.00
  -10    9   12      1.92      0.00
   -9    9   12     -2.06      0.00
   -8    9   12     -0.21      0.00
   -7    9   12     -1.09      0.00
   -6    9   12     -0.42      0.00
   -5    9   12     -0.06      0.00
   -4    9   12      1.32      0.00
   -3    9   12     -1.41      0.00
   -2    9   12      3.12      0.00
   -1    9   12     -0.05      0.00
   -6   10   12     -1.27      0.00
   -5   10   12      2.29      0.00
    1  -21   13     -0.33      0.00
    2  -21   13     -1.69      0.00
    3  -21   13     -1.36      0.00
   -2  -20   13     -0.69      0.00
   -1  -20   13      0.47      0.00
    0  -20   13      0.06      0.00
    1  -20   13      3.32      0.00
    2  -20   13     -1.69      0.00
    3  -20   13     -2.73      0.00
    4  -20   13      0.60      0.00
    5  -20   13     -0.78      0.00
    6  -20   13     -1.68      0.00
   -4  -19   13      0.43      0.00
   -3  -19   13      0.39      0.00
   -2  -19   13      0.68      0.00
   -1  -19   13     -2.47      0.00
    0  -19   13      0.54      0.00
    1  -19   13     -0.81      0.00
    2  -19   13      0.46      0.00
    3  -19   13     -0.21      0.00
    4  -19   13     -1.03      0.00
    5  -19   13     -1.30      0.00
    6  -19   13      2.35      0.00
    7  -19   13     -1.89      0.00
    8  -19   13     -0.26      0.00
   -6  -18   13     -0.39      0.00
   -5  -18   13     -0.67      0.00
   -4  -18   13     -0.04      0.00
   -3  -18   13      0.13      0.00
   -2  -18   13     -0.97      0.00
   -1  -18   13      2.05      0.00
    0  -18   13      0.02      0.00
    1  -18   13      0.16      0.00
    2  -18   13     -0.13      0.00
    3  -18   13     -0.33      0.00
    4  -18   13      0.89      0.00
    5  -18   13     -1.54      0.00
    6  -18   13      0.70      0.00
    7  -18   13     -2.30      0.00
    8  -18   13     -2.69      0.00
    9  -18   13      3.92      0.00
   -7  -17   13      0.47      0.00
   -6  -17   13     -1.87      0.00
   -5  -17   13      2.04      0.00
   -4  -17   13     -1.15      0.00
   -3  -17   13      0.17      0.00
   -2  -17   13      0.08      0.00
   -1  -17   13     -0.53      0.00
    0  -17   13     -0.98      0.00
    1  -17   13      0.01      0.00
    2  -17   13     -0.33      0.00
    3  -17   13     -1.40      0.00
    4  -17   13      0.72      0.00
    5  -17   13     -0.08      0.00
    6  -17   13      1.32      0.00
    7  -17   13     -0.56      0.00
    8  -17   13     -0.71      0.00
    9  -17   13     -1.18      0.00
   -8  -16   13      0.69      0.00
   -7  -16   13     -0.32      0.00
   -6  -16   13      1.62      0.00
   -5  -16   13      0.17      0.00
   -4  -16   13     -1.24      0.00
   -3  -16   13     -0.09      0.00
   -2  -16   13     -0.43      0.00
   -1  -16   13      0.16      0.00
    0  -16   13      0.46      0.00
    1  -16   13     -1.11      0.00
    2  -16   13      0.47      0.00
    3  -16   13     -0.11      0.00
    4  -16   13     -0.11      0.00
    5  -16   13      0.61      0.00
    6  -16   13     -0.37      0.00
    7  -16   13     -0.24      0.00
    8  -16   13     -0.49      0.00
    9  -16   13     -0.73      0.00
   10  -16   13     -0.86      0.00
   -9  -15   13      0.74      0.00
   -8  -15   13     -0.39      0.00
   -7  -15   13     -0.05      0.00
   -6  -15   13     -1.28      0.00
   -5  -15   13      0.61      0.00
   -4  -15   13      0.00      0.00
   -3  -15   13      0.79      0.00
   -2  -15   13     -1.53      0.00
   -1  -15   13     -0.61      0.00
    0  -15   13      0.36      0.00
    1  -15   13      0.03      0.00
    2  -15   13     -2.78      0.00
    3  -15   13     -1.62      0.00
    4  -15   13      0.61      0.00
    5  -15   13      1.98      0.00
    6  -15   13     -1.54      0.00
    7  -15   13      0.03      0.00
    8  -15   13      0.44      0.00
    9  -15   13     -1.03      0.00
   10  -15   13      2.74      0.00
  -10  -14   13      1.01      0.00
   -9  -14   13      0.94      0.00
   -8  -14   13     -0.89      0.00
   -7  -14   13      1.52      0.00
   -6  -14   13      2.13      0.00
   -5  -14   13     -0.23      0.00
   -4  -14   13      1.01      0.00
   -3  -14   13     -1.66      0.00
   -2  -14   13      0.01      0.00
   -1  -14   13     -1.56      0.00
    0  -14   13      0.11      0.00
    1  -14   13     -2.12      0.00
    2  -14   13     -0.98      0.00
    3  -14   13      0.24      0.00
    4  -14   13     -2.14      0.00
    5  -14   13      0.61      0.00
    6  -14   13      1.27      0.00
    7  -14   13     -0.88      0.00
    8  -14   13      0.17      0.00
    9  -14   13     -2.10      0.00
   10  -14   13      0.65      0.00
   11  -14   13     -0.37      0.00
  -11  -13   13     -1.97      0.00
  -10  -13   13     -0.39      0.00
   -9  -13   13     -0.60      0.00
   -8  -13   13     -0.48      0.00
   -7  -13   13     -0.08      0.00
   -6  -13   13     -0.85      0.00
   -5  -13   13      1.66      0.00
   -4  -13   13     -0.18      0.00
   -3  -13   13      1.12      0.00
   -2  -13   13     -2.05      0.00
   -1  -13   13      0.35      0.00
    0  -13   13      1.93      0.00
    1  -13   13     -3.65      0.00
    2  -13   13     -1.45      0.00
    3  -13   13      0.40      0.00
    4  -13   13     -1.62      0.00
    5  -13   13     -0.04      0.00
    6  -13   13     -0.63      0.00
    7  -13   13      0.37      0.00
    8  -13   13     -0.25      0.00
    9  -13   13      0.42      0.00
   10  -13   13     -1.12      0.00
   11  -13   13      0.07      0.00
  -11  -12   13     -1.68      0.00
  -10  -12   13      0.05      0.00
   -9  -12   13      2.45      0.00
   -8  -12   13     -3.77      0.00
   -7  -12   13      1.24      0.00
   -6  -12   13      1.44      0.00
   -5  -12   13     -0.05      0.00
   -4  -12   13      1.11      0.00
   -3  -12   13      0.39      0.00
   -2  -12   13     -3.54      0.00
   -1  -12   13      0.02      0.00
    0  -12   13      0.58      0.00
    1  -12   13     -4.18      0.00
    2  -12   13     -0.67      0.00
    3  -12   13     -0.34      0.00
    4  -12   13     -1.06      0.00
    5  -12   13     -0.15      0.00
    6  -12   13      0.28      0.00
    7  -12   13      0.36      0.00
    8  -12   13     -0.06      0.00
    9  -12   13     -1.09      0.00
   10  -12   13      0.74      0.00
   11  -12   13      0.64      0.00
  -12  -11   13     -1.64      0.00
  -11  -11   13      0.69      0.00
  -10  -11   13      0.44      0.00
   -9  -11   13     -1.52      0.00
   -8  -11   13      1.37      0.00
   -7  -11   13      0.57      0.00
   -6  -11   13     -1.13      0.00
   -5  -11   13     -0.70      0.00
   -4  -11   13      3.13      0.00
   -3  -11   13      0.15      0.00
   -2  -11   13     -3.14      0.00
   -1  -11   13      4.12      0.00
    0  -11   13     -2.01      0.00
    1  -11   13     -0.88      0.00
    2  -11   13     -1.47      0.00
    3  -11   13     -1.98      0.00
    4  -11   13      0.34      0.00
    5  -11   13     -1.69      0.00
    6  -11   13     -1.61      0.00
    7  -11   13      1.86      0.00
    8  -11   13      0.44      0.00
    9  -11   13     -3.19      0.00
   10  -11   13      1.01      0.00
   11  -11   13     -1.99      0.00
  -12  -10   13      2.79      0.00
  -11  -10   13     -3.40      0.00
  -10  -10   13     -0.09      0.00
   -9  -10   13     -1.52      0.00
   -8  -10   13     -0.35      0.00
   -7  -10   13      2.84      0.00
   -6  -10   13     -3.61      0.00
   -5  -10   13      4.81      0.00
   -4  -10   13      0.30      0.00
   -3  -10   13     -3.58      0.00
   -2  -10   13      0.14      0.00
   -1  -10   13     -3.28      0.00
    0  -10   13      1.65      0.00
    1  -10   13     -1.75      0.00
    2  -10   13     -1.50      0.00
    3  -10   13     -0.19      0.00
    4  -10   13     -0.20      0.00
    5  -10   13     -0.37      0.00
    6  -10   13     -2.18      0.00
    7  -10   13      1.06      0.00
    8  -10   13     -0.05      0.00
    9  -10   13      0.73      0.00
   10  -10   13     -0.28      0.00
   11  -10   13     -0.64      0.00
  -13   -9   13      0.20      0.00
  -12   -9   13     -0.56      0.00
  -11   -9   13      0.02      0.00
  -10   -9   13      3.05      0.00
   -9   -9   13     -0.51      0.00
   -8   -9   13     -1.72      0.00
   -7   -9   13     -1.34      0.00
   -6   -9   13      1.71      0.00
   -5   -9   13     -1.35      0.00
   -4   -9   13      0.28      0.00
   -3   -9   13      3.76      0.00
   -2   -9   13     -1.24      0.00
   -1   -9   13     -1.51      0.00
    0   -9   13      2.32      0.00
    1   -9   13     -1.34      0.00
    2   -9   13     -2.49      0.00
    3   -9   13      0.31      0.00
    4   -9   13     -0.64      0.00
    5   -9   13     -0.23      0.00
    6   -9   13     -0.70      0.00
    7   -9   13     -0.57      0.00
    8   -9   13      0.30      0.00
    9   -9   13     -0.39      0.00
   10   -9   13      1.48      0.00
   11   -9   13     -3.34      0.00
  -13   -8   13      0.65      0.00
  -12   -8   13     -0.87      0.00
  -11   -8   13     -1.04      0.00
  -10   -8   13      0.55      0.00
   -9   -8   13     -0.92      0.00
   -8   -8   13      1.13      0.00
   -7   -8   13     -0.24      0.00
   -6   -8   13     -0.95      0.00
   -5   -8   13      3.41      0.00
   -4   -8   13     -1.11      0.00
   -3   -8   13     -1.89      0.00
   -2   -8   13     -2.39      0.00
   -1   -8   13     -0.14      0.00
    0   -8   13     -1.03      0.00
    1   -8   13      1.71      0.00
    2   -8   13     -1.73      0.00
    3   -8   13     -2.24      0.00
    4   -8   13      1.12      0.00
    5   -8   13     -1.74      0.00
    6   -8   13     -1.02      0.00
    7   -8   13     -0.25      0.00
    8   -8   13      1.14      0.00
    9   -8   13     -0.23      0.00
   10   -8   13     -0.84      0.00
   11   -8   13      1.30      0.00
  -14   -7   13      0.96      0.00
  -13   -7   13     -0.82      0.00
  -12   -7   13      0.95      0.00
  -11   -7   13     -0.76      0.00
  -10   -7   13      1.69      0.00
   -9   -7   13     -0.60      0.00
   -8   -7   13     -1.16      0.00
   -7   -7   13     -0.95      0.00
   -6   -7   13     -2.37      0.00
   -5   -7   13      1.69      0.00
   -4   -7   13      0.50      0.00
   -3   -7   13      1.56      0.00
   -2   -7   13     -0.81      0.00
   -1   -7   13     -3.11      0.00
    0   -7   13      0.96      0.00
    1   -7   13      2.32      0.00
    2   -7   13      2.00      0.00
    3   -7   13     -3.17      0.00
    4   -7   13     -0.23      0.00
    5   -7   13      0.50      0.00
    6   -7   13     -0.79      0.00
    7   -7   13     -1.59      0.00
    8   -7   13      0.07      0.00
    9   -7   13     -0.10      0.00
   10   -7   13      1.08      0.00
   11   -7   13     -2.18      0.00
  -14   -6   13      1.43      0.00
  -13   -6   13     -0.06      0.00
  -12   -6   13      0.00      0.00
  -11   -6   13     -1.39      0.00
  -10   -6   13      1.01      0.00
   -9   -6   13      0.53      0.00
   -8   -6   13     -0.18      0.00
   -7   -6   13     -0.03      0.00
   -6   -6   13     -1.42      0.00
   -5   -6   13     -0.26      0.00
   -4   -6   13      1.91      0.00
   -3   -6   13     -0.29      0.00
   -2   -6   13      0.45      0.00
   -1   -6   13     -2.92      0.00
    0   -6   13     -1.40      0.00
    1   -6   13      2.68      0.00
    2   -6   13     -1.29      0.00
    3   -6   13      0.75      0.00
    4   -6   13     -2.62      0.00
    5   -6   13     -0.11      0.00
    6   -6   13     -0.02      0.00
    7   -6   13     -0.21      0.00
    8   -6   13     -1.08      0.00
    9   -6   13      0.64      0.00
   10   -6   13      0.95      0.00
  -14   -5   13     -0.16      0.00
  -13   -5   13     -1.36      0.00
  -12   -5   13     -0.43      0.00
  -11   -5   13      1.44      0.00
  -10   -5   13      0.32      0.00
   -9   -5   13     -0.39      0.00
   -8   -5   13     -2.28      0.00
   -7   -5   13     -1.52      0.00
   -6   -5   13      2.11      0.00
   -5   -5   13     -3.43      0.00
   -4   -5   13     -2.26      0.00
   -3   -5   13      2.45      0.00
   -2   -5   13     -2.29      0.00
   -1   -5   13     -0.79      0.00
    0   -5   13     -0.75      0.00
    1   -5   13      4.68      0.00
    2   -5   13      3.39      0.00
    3   -5   13      0.90      0.00
    4   -5   13     -2.25      0.00
    5   -5   13     -1.77      0.00
    6   -5   13      1.52      0.00
    7   -5   13     -1.77      0.00
    8   -5   13      0.02      0.00
    9   -5   13      0.70      0.00
   10   -5   13     -2.38      0.00
  -14   -4   13      0.63      0.00
  -13   -4   13      0.45      0.00
  -12   -4   13     -0.47      0.00
  -11   -4   13     -0.63      0.00
  -10   -4   13      1.90      0.00
   -9   -4   13      1.10      0.00
   -8   -4   13     -1.24      0.00
   -7   -4   13     -1.05      0.00
   -6   -4   13      1.01      0.00
   -5   -4   13      0.45      0.00
   -4   -4   13     -0.60      0.00
   -3   -4   13     -0.12      0.00
   -2   -4   13      3.58      0.00
   -1   -4   13     -3.82      0.00
    0   -4   13     -3.87      0.00
    1   -4   13      4.13      0.00
    2   -4   13      2.10      0.00
    3   -4   13     -0.48      0.00
    4   -4   13      0.64      0.00
    5   -4   13     -0.34      0.00
    6   -4   13     -0.64      0.00
    7   -4   13     -1.00      0.00
    8   -4   13     -0.61      0.00
    9   -4   13     -0.57      0.00
   10   -4   13      2.06      0.00
  -14   -3   13      0.59      0.00
  -13   -3   13     -2.27      0.00
  -12   -3   13     -0.48      0.00
  -11   -3   13      0.64      0.00
  -10   -3   13      0.27      0.00
   -9   -3   13     -0.09      0.00
   -8   -3   13     -0.71      0.00
   -7   -3   13     -0.60      0.00
   -6   -3   13     -3.28      0.00
   -5   -3   13      2.01      0.00
   -4   -3   13     -2.90      0.00
   -3   -3   13     -0.68      0.00
   -2   -3   13     -1.75      0.00
   -1   -3   13     -0.26      0.00
    0   -3   13      1.46      0.00
    1   -3   13      2.70      0.00
    2   -3   13     -0.97      0.00
    3   -3   13      4.60      0.00
    4   -3   13     -3.20      0.00
    5   -3   13     -1.28      0.00
    6   -3   13      1.14      0.00
    7   -3   13      1.50      0.00
    8   -3   13     -1.70      0.00
    9   -3   13     -2.37      0.00
  -14   -2   13      2.35      0.00
  -13   -2   13      0.18      0.00
  -12   -2   13     -1.36      0.00
  -11   -2   13      0.38      0.00
  -10   -2   13      0.59      0.00
   -9   -2   13      2.25      0.00
   -8   -2   13     -0.98      0.00
   -7   -2   13     -0.16      0.00
   -6   -2   13      0.02      0.00
   -5   -2   13     -0.79      0.00
   -4   -2   13      2.43      0.00
   -3   -2   13     -1.36      0.00
   -2   -2   13     -0.48      0.00
   -1   -2   13     -0.37      0.00
    0   -2   13     -1.95      0.00
    1   -2   13      2.90      0.00
    2   -2   13      3.53      0.00
    3   -2   13      0.99      0.00
    4   -2   13     -0.23      0.00
    5   -2   13     -1.13      0.00
    6   -2   13      0.88      0.00
    7   -2   13      2.27      0.00
    8   -2   13     -2.11      0.00
    9   -2   13      0.63      0.00
  -14   -1   13      1.50      0.00
  -13   -1   13     -2.69      0.00
  -12   -1   13      0.86      0.00
  -11   -1   13     -0.77      0.00
  -10   -1   13     -0.63      0.00
   -9   -1   13      2.24      0.00
   -8   -1   13     -0.13      0.00
   -7   -1   13     -0.83      0.00
   -6   -1   13     -1.46      0.00
   -5   -1   13     -1.67      0.00
   -4   -1   13      0.08      0.00
   -3   -1   13      2.06      0.00
   -2   -1   13     -3.46      0.00
   -1   -1   13      0.27      0.00
    0   -1   13      0.46      0.00
    1   -1   13      0.93      0.00
    2   -1   13      1.00      0.00
    3   -1   13      0.65      0.00
    4   -1   13     -0.52      0.00
    5   -1   13     -1.24      0.00
    6   -1   13      0.85      0.00
    7   -1   13     -1.86      0.00
    8   -1   13     -0.96      0.00
  -14    0   13      1.63      0.00
  -13    0   13      0.52      0.00
  -12    0   13      1.79      0.00
  -11    0   13     -1.81      0.00
  -10    0   13     -0.13      0.00
   -9    0   13      1.75      0.00
   -8    0   13      0.89      0.00
   -7    0   13     -0.80      0.00
   -6    0   13     -0.60      0.00
   -5    0   13     -0.39      0.00
   -4    0   13     -0.29      0.00
   -3    0   13      1.98      0.00
   -2    0   13     -2.98      0.00
   -1    0   13      1.75      0.00
    0    0   13     -1.61      0.00
    1    0   13      0.52      0.00
    2    0   13      2.83      0.00
    3    0   13     -0.85      0.00
    4    0   13     -0.06      0.00
    5    0   13     -0.45      0.00
    6    0   13      3.72      0.00
    7    0   13      1.56      0.00
    8    0   13     -0.75      0.00
  -14    1   13      0.73      0.00
  -13    1   13      0.12      0.00
  -12    1   13      0.65      0.00
  -11    1   13      0.80      0.00
  -10    1   13     -0.24      0.00
   -9    1   13      2.22      0.00
   -8    1   13      1.80      0.00
   -7    1   13      0.82      0.00
   -6    1   13     -1.74      0.00
   -5    1   13      0.33      0.00
   -4    1   13      0.47      0.00
   -3    1   13     -2.71      0.00
   -2    1   13      1.82      0.00
   -1    1   13     -1.54      0.00
    0    1   13     -1.18      0.00
    1    1   13      1.67      0.00
    2    1   13      2.08      0.00
    3    1   13     -0.01      0.00
    4    1   13     -1.74      0.00
    5    1   13      0.20      0.00
    6    1   13      1.48      0.00
    7    1   13     -4.11      0.00
  -14    2   13      1.20      0.00
  -13    2   13     -0.08      0.00
  -12    2   13     -1.41      0.00
  -11    2   13      0.28      0.00
  -10    2   13     -0.19      0.00
   -9    2   13     -1.80      0.00
   -8    2   13     -0.29      0.00
   -7    2   13      0.74      0.00
   -6    2   13     -0.95      0.00
   -5    2   13      0.35      0.00
   -4    2   13      0.89      0.00
   -3    2   13     -0.89      0.00
   -2    2   13      1.83      0.00
   -1    2   13      1.39      0.00
    0    2   13     -5.15      0.00
    1    2   13      2.19      0.00
    2    2   13     -0.39      0.00
    3    2   13      0.00      0.00
    4    2   13      1.44      0.00
    5    2   13      0.99      0.00
    6    2   13      2.58      0.00
  -14    3   13      0.46      0.00
  -13    3   13      0.20      0.00
  -12    3   13      2.13      0.00
  -11    3   13      0.95      0.00
  -10    3   13      1.11      0.00
   -9    3   13      2.18      0.00
   -8    3   13      0.06      0.00
   -7    3   13      0.36      0.00
   -6    3   13     -0.48      0.00
   -5    3   13     -0.43      0.00
   -4    3   13      0.74      0.00
   -3    3   13     -0.26      0.00
   -2    3   13     -1.23      0.00
   -1    3   13     -1.81      0.00
    0    3   13      0.99      0.00
    1    3   13     -2.11      0.00
    2    3   13      0.84      0.00
    3    3   13     -2.42      0.00
    4    3   13     -0.36      0.00
    5    3   13      0.95      0.00
  -13    4   13     -1.42      0.00
  -12    4   13     -0.62      0.00
  -11    4   13     -0.55      0.00
  -10    4   13     -1.04      0.00
   -9    4   13     -0.25      0.00
   -8    4   13      0.93      0.00
   -7    4   13      2.44      0.00
   -6    4   13     -1.66      0.00
   -5    4   13     -2.51      0.00
   -4    4   13      1.49      0.00
   -3    4   13      1.92      0.00
   -2    4   13      1.90      0.00
   -1    4   13     -3.45      0.00
    0    4   13     -0.68      0.00
    1    4   13      2.06      0.00
    2    4   13     -1.96      0.00
    3    4   13     -2.07      0.00
    4    4   13      0.98      0.00
    5    4   13      3.51      0.00
  -13    5   13      1.80      0.00
  -12    5   13      0.78      0.00
  -11    5   13      1.14      0.00
  -10    5   13     -0.38      0.00
   -9    5   13     -0.48      0.00
   -8    5   13     -1.83      0.00
   -7    5   13      1.10      0.00
   -6    5   13      1.33      0.00
   -5    5   13     -2.11      0.00
   -4    5   13     -0.72      0.00
   -3    5   13      2.58      0.00
   -2    5   13     -0.64      0.00
   -1    5   13     -2.54      0.00
    0    5   13      2.68      0.00
    1    5   13      0.61      0.00
    2    5   13     -1.89      0.00
    3    5   13     -2.31      0.00
  -12    6   13     -0.15      0.00
  -11    6   13      1.85      0.00
  -10    6   13     -1.63      0.00
   -9    6   13     -0.07      0.00
   -8    6   13      2.56      0.00
   -7    6   13      0.19      0.00
   -6    6   13     -3.08      0.00
   -5    6   13     -1.39      0.00
   -4    6   13      2.28      0.00
   -3    6   13     -0.67      0.00
   -2    6   13     -0.74      0.00
   -1    6   13     -0.42      0.00
    0    6   13     -1.01      0.00
    1    6   13      0.78      0.00
    2    6   13     -1.10      0.00
  -11    7   13      0.29      0.00
  -10    7   13      1.53      0.00
   -9    7   13      0.59      0.00
   -8    7   13     -2.34      0.00
   -7    7   13      3.29      0.00
   -6    7   13     -0.52      0.00
   -5    7   13      0.93      0.00
   -4    7   13     -0.92      0.00
   -3    7   13     -1.96      0.00
   -2    7   13      1.56      0.00
   -1    7   13     -0.53      0.00
    0    7   13     -1.00      0.00
    1    7   13      1.50      0.00
   -9    8   13      0.61      0.00
   -8    8   13      0.31      0.00
   -7    8   13     -1.07      0.00
   -6    8   13     -2.01      0.00
   -5    8   13      0.39      0.00
   -4    8   13      1.09      0.00
   -3    8   13     -0.78      0.00
   -2    8   13      0.91      0.00
   -1    8   13      0.40      0.00
   -2  -20   14     -0.39      0.00
   -1  -20   14      0.42      0.00
    0  -20   14     -0.57      0.00
    1  -20   14     -1.37      0.00
    2  -20   14      0.76      0.00
    3  -20   14      2.34      0.00
    4  -20   14     -0.85      0.00
    5  -20   14      1.06      0.00
   -4  -19   14     -1.75      0.00
   -3  -19   14      0.62      0.00
   -2  -19   14      0.34      0.00
   -1  -19   14      1.82      0.00
    0  -19   14     -0.48      0.00
    1  -19   14     -0.97      0.00
    2  -19   14      2.62      0.00
    3  -19   14     -2.21      0.00
    4  -19   14      1.10      0.00
    5  -19   14     -0.52      0.00
    6  -19   14      0.05      0.00
    7  -19   14      0.74      0.00
   -6  -18   14      0.04      0.00
   -5  -18   14      1.47      0.00
   -4  -18   14     -1.14      0.00
   -3  -18   14     -1.17      0.00
   -2  -18   14      2.04      0.00
   -1  -18   14     -0.29      0.00
    0  -18   14     -1.19      0.00
    1  -18   14     -0.08      0.00
    2  -18   14      1.60      0.00
    3  -18   14     -0.63      0.00
    4  -18   14     -0.31      0.00
    5  -18   14     -0.31      0.00
    6  -18   14     -0.25      0.00
    7  -18   14      1.48      0.00
    8  -18   14      0.62      0.00
   -7  -17   14     -0.02      0.00
   -6  -17   14      1.22      0.00
   -5  -17   14     -0.50      0.00
   -4  -17   14      0.24      0.00
   -3  -17   14      0.92      0.00
   -2  -17   14     -1.78      0.00
   -1  -17   14      2.85      0.00
    0  -17   14     -0.20      0.00
    1  -17   14      0.71      0.00
    2  -17   14      1.46      0.00
    3  -17   14      1.43      0.00
    4  -17   14     -0.10      0.00
    5  -17   14     -0.43      0.00
    6  -17   14      1.30      0.00
    7  -17   14     -1.82      0.00
    8  -17   14     -0.44      0.00
    9  -17   14      0.94      0.00
   -8  -16   14     -3.29      0.00
   -7  -16   14     -0.81      0.00
   -6  -16   14      1.09      0.00
   -5  -16   14     -0.60      0.00
   -4  -16   14      0.02      0.00
   -3  -16   14      1.35      0.00
   -2  -16   14     -0.21      0.00
   -1  -16   14      0.92      0.00
    0  -16   14      0.56      0.00
    1  -16   14      1.45      0.00
    2  -16   14     -1.04      0.00
    3  -16   14      0.03      0.00
    4  -16   14      0.44      0.00
    5  -16   14     -0.27      0.00
    6  -16   14     -0.06      0.00
    7  -16   14      0.48      0.00
    8  -16   14      0.64      0.00
    9  -16   14     -0.17      0.00
   -9  -15   14      1.36      0.00
   -8  -15   14      0.80      0.00
   -7  -15   14     -0.20      0.00
   -6  -15   14     -1.11      0.00
   -5  -15   14     -0.15      0.00
   -4  -15   14      1.60      0.00
   -3  -15   14     -0.92      0.00
   -2  -15   14      0.65      0.00
   -1  -15   14      0.96      0.00
    0  -15   14      0.79      0.00
    1  -15   14      1.70      0.00
    2  -15   14      1.43      0.00
    3  -15   14      1.60      0.00
    4  -15   14      0.35      0.00
    5  -15   14     -0.46      0.00
    6  -15   14      0.52      0.00
    7  -15   14      0.40      0.00
    8  -15   14     -2.73      0.00
    9  -15   14      3.26      0.00
   10  -15   14     -3.26      0.00
  -10  -14   14     -1.34      0.00
   -9  -14   14      1.69      0.00
   -8  -14   14     -1.15      0.00
   -7  -14   14      0.05      0.00
   -6  -14   14     -0.36      0.00
   -5  -14   14     -0.34      0.00
   -4  -14   14     -1.83      0.00
   -3  -14   14      1.94      0.00
   -2  -14   14      0.08      0.00
   -1  -14   14      0.55      0.00
    0  -14   14      2.11      0.00
    1  -14   14      0.59      0.00
    2  -14   14      1.00      0.00
    3  -14   14      1.90      0.00
    4  -14   14      0.32      0.00
    5  -14   14     -0.16      0.00
    6  -14   14     -1.30      0.00
    7  -14   14      1.49      0.00
    8  -14   14      1.74      0.00
    9  -14   14     -0.99      0.00
   10  -14   14     -0.97      0.00
  -10  -13   14     -1.32      0.00
   -9  -13   14      1.77      0.00
   -8  -13   14     -1.36      0.00
   -7  -13   14     -0.03      0.00
   -6  -13   14      0.88      0.00
   -5  -13   14     -1.16      0.00
   -4  -13   14      0.31      0.00
   -3  -13   14     -0.24      0.00
   -2  -13   14     -0.04      0.00
   -1  -13   14      0.80      0.00
    0  -13   14      0.68      0.00
    1  -13   14      1.17      0.00
    2  -13   14      1.18      0.00
    3  -13   14      0.14      0.00
    4  -13   14      1.88      0.00
    5  -13   14      1.04      0.00
    6  -13   14     -0.64      0.00
    7  -13   14     -0.82      0.00
    8  -13   14      0.67      0.00
    9  -13   14      0.04      0.00
   10  -13   14      1.51      0.00
  -11  -12   14      1.49      0.00
  -10  -12   14     -0.31      0.00
   -9  -12   14      0.71      0.00
   -8  -12   14      1.17      0.00
   -7  -12   14      0.04      0.00
   -6  -12   14     -1.43      0.00
   -5  -12   14      0.25      0.00
   -4  -12   14      0.16      0.00
   -3  -12   14      0.90      0.00
   -2  -12   14     -0.62      0.00
   -1  -12   14      0.93      0.00
    0  -12   14      0.76      0.00
    1  -12   14      1.15      0.00
    2  -12   14      1.36      0.00
    3  -12   14      1.03      0.00
    4  -12   14      0.58      0.00
    5  -12   14      1.81      0.00
    6  -12   14     -1.17      0.00
    7  -12   14      1.00      0.00
    8  -12   14     -0.60      0.00
    9  -12   14     -0.75      0.00
   10  -12   14     -0.02      0.00
  -12  -11   14      2.11      0.00
  -11  -11   14     -1.76      0.00
  -10  -11   14     -1.93      0.00
   -9  -11   14      2.43      0.00
   -8  -11   14     -1.67      0.00
   -7  -11   14     -0.35      0.00
   -6  -11   14      1.45      0.00
   -5  -11   14      0.42      0.00
   -4  -11   14     -2.43      0.00
   -3  -11   14      0.01      0.00
   -2  -11   14      3.38      0.00
   -1  -11   14     -4.89      0.00
    0  -11   14      1.98      0.00
    1  -11   14      0.80      0.00
    2  -11   14     -0.27      0.00
    3  -11   14     -0.02      0.00
    4  -11   14      0.73      0.00
    5  -11   14      0.85      0.00
    6  -11   14      0.89      0.00
    7  -11   14      0.45      0.00
    8  -11   14     -1.39      0.00
    9  -11   14      0.09      0.00
   10  -11   14      2.03      0.00
  -12  -10   14     -1.49      0.00
  -11  -10   14      1.41      0.00
  -10  -10   14      0.12      0.00
   -9  -10   14      0.60      0.00
   -8  -10   14     -0.95      0.00
   -7  -10   14      1.31      0.00
   -6  -10   14     -0.58      0.00
   -5  -10   14     -1.42      0.00
   -4  -10   14      0.80      0.00
   -3  -10   14      2.68      0.00
   -2  -10   14      0.70      0.00
   -1  -10   14      0.74      0.00
    0  -10   14     -0.90      0.00
    1  -10   14      1.60      0.00
    2  -10   14      0.25      0.00
    3  -10   14      0.61      0.00
    4  -10   14      2.37      0.00
    5  -10   14      0.71      0.00
    6  -10   14      0.63      0.00
    7  -10   14     -1.26      0.00
    8  -10   14      1.48      0.00
    9  -10   14      0.31      0.00
   10  -10   14     -1.10      0.00
  -13   -9   14     -0.24      0.00
  -12   -9   14      0.52      0.00
  -11   -9   14     -0.17      0.00
  -10   -9   14     -1.56      0.00
   -9   -9   14     -0.01      0.00
   -8   -9   14      0.79      0.00
   -7   -9   14      1.61      0.00
   -6   -9   14      0.23      0.00
   -5   -9   14      0.71      0.00
   -4   -9   14     -1.94      0.00
   -3   -9   14     -1.08      0.00
   -2   -9   14      3.00      0.00
   -1   -9   14     -2.40      0.00
    0   -9   14     -0.17      0.00
    1   -9   14     -0.29      0.00
    2   -9   14     -0.50      0.00
    3   -9   14     -2.60      0.00
    4   -9   14      1.84      0.00
    5   -9   14      1.63      0.00
    6   -9   14      0.82      0.00
    7   -9   14      0.31      0.00
    8   -9   14     -2.22      0.00
    9   -9   14      1.29      0.00
   10   -9   14      0.04      0.00
  -13   -8   14      0.45      0.00
  -12   -8   14      0.92      0.00
  -11   -8   14      0.08      0.00
  -10   -8   14     -0.47      0.00
   -9   -8   14     -1.05      0.00
   -8   -8   14      0.37      0.00
   -7   -8   14      1.11      0.00
   -6   -8   14      0.09      0.00
   -5   -8   14     -1.23      0.00
   -4   -8   14      0.70      0.00
   -3   -8   14      1.88      0.00
   -2   -8   14      0.04      0.00
   -1   -8   14     -0.05      0.00
    0   -8   14      1.10      0.00
    1   -8   14      0.54      0.00
    2   -8   14     -0.77      0.00
    3   -8   14      0.11      0.00
    4   -8   14      2.07      0.00
    5   -8   14      0.63      0.00
    6   -8   14      0.25      0.00
    7   -8   14      0.10      0.00
    8   -8   14      0.10      0.00
    9   -8   14      0.44      0.00
   10   -8   14     -1.18      0.00
  -13   -7   14     -0.45      0.00
  -12   -7   14      0.47      0.00
  -11   -7   14     -0.63      0.00
  -10   -7   14     -0.05      0.00
   -9   -7   14      0.93      0.00
   -8   -7   14     -1.07      0.00
   -7   -7   14      1.47      0.00
   -6   -7   14      2.83      0.00
   -5   -7   14     -0.41      0.00
   -4   -7   14     -0.94      0.00
   -3   -7   14      1.46      0.00
   -2   -7   14      2.92      0.00
   -1   -7   14     -2.50      0.00
    0   -7   14      0.43      0.00
    1   -7   14     -2.91      0.00
    2   -7   14     -4.76      0.00
    3   -7   14      1.32      0.00
    4   -7   14      1.75      0.00
    5   -7   14     -1.07      0.00
    6   -7   14      3.97      0.00
    7   -7   14     -1.41      0.00
    8   -7   14      0.07      0.00
    9   -7   14      0.54      0.00
   10   -7   14      1.54      0.00
  -14   -6   14     -1.43      0.00
  -13   -6   14     -0.89      0.00
  -12   -6   14      1.37      0.00
  -11   -6   14      2.03      0.00
  -10   -6   14     -2.57      0.00
   -9   -6   14     -0.25      0.00
   -8   -6   14     -0.44      0.00
   -7   -6   14      0.94      0.00
   -6   -6   14      1.30      0.00
   -5   -6   14     -1.00      0.00
   -4   -6   14      0.71      0.00
   -3   -6   14     -2.48      0.00
   -2   -6   14     -1.24      0.00
   -1   -6   14      4.95      0.00
    0   -6   14      1.34      0.00
    1   -6   14     -4.38      0.00
    2   -6   14      1.59      0.00
    3   -6   14     -1.11      0.00
    4   -6   14      0.45      0.00
    5   -6   14      0.38      0.00
    6   -6   14      0.22      0.00
    7   -6   14      0.23      0.00
    8   -6   14      2.04      0.00
    9   -6   14     -2.28      0.00
   10   -6   14     -0.50      0.00
  -14   -5   14      1.49      0.00
  -13   -5   14      0.05      0.00
  -12   -5   14     -1.24      0.00
  -11   -5   14     -0.28      0.00
  -10   -5   14      2.77      0.00
   -9   -5   14     -1.10      0.00
   -8   -5   14     -0.43      0.00
   -7   -5   14      1.14      0.00
   -6   -5   14      0.37      0.00
   -5   -5   14      2.12      0.00
   -4   -5   14      0.27      0.00
   -3   -5   14      2.91      0.00
   -2   -5   14     -0.04      0.00
   -1   -5   14     -1.73      0.00
    0   -5   14     -0.83      0.00
    1   -5   14     -1.84      0.00
    2   -5   14     -5.99      0.00
    3   -5   14      2.81      0.00
    4   -5   14      0.74      0.00
    5   -5   14     -0.02      0.00
    6   -5   14     -0.36      0.00
    7   -5   14      0.38      0.00
    8   -5   14      0.60      0.00
    9   -5   14     -0.58      0.00
  -14   -4   14     -3.23      0.00
  -13   -4   14      3.20      0.00
  -12   -4   14     -0.84      0.00
  -11   -4   14     -1.00      0.00
  -10   -4   14     -0.56      0.00
   -9   -4   14      0.86      0.00
   -8   -4   14     -1.13      0.00
   -7   -4   14     -0.51      0.00
   -6   -4   14      0.46      0.00
   -5   -4   14      1.80      0.00
   -4   -4   14     -0.38      0.00
   -3   -4   14     -2.53      0.00
   -2   -4   14      1.72      0.00
   -1   -4   14      2.81      0.00
    0   -4   14      1.01      0.00
    1   -4   14     -7.13      0.00
    2   -4   14     -0.66      0.00
    3   -4   14     -1.84      0.00
    4   -4   14      1.99      0.00
    5   -4   14     -1.15      0.00
    6   -4   14      0.47      0.00
    7   -4   14      2.36      0.00
    8   -4   14      0.54      0.00
    9   -4   14     -1.34      0.00
  -14   -3   14      0.72      0.00
  -13   -3   14      1.71      0.00
  -12   -3   14     -1.56      0.00
  -11   -3   14      0.66      0.00
  -10   -3   14     -0.13      0.00
   -9   -3   14     -0.04      0.00
   -8   -3   14     -0.10      0.00
   -7   -3   14      0.12      0.00
   -6   -3   14     -0.53      0.00
   -5   -3   14      1.74      0.00
   -4   -3   14      1.41      0.00
   -3   -3   14     -1.14      0.00
   -2   -3   14      1.77      0.00
   -1   -3   14      0.33      0.00
    0   -3   14     -0.34      0.00
    1   -3   14      0.14      0.00
    2   -3   14     -2.66      0.00
    3   -3   14     -1.61      0.00
    4   -3   14      1.90      0.00
    5   -3   14     -0.58      0.00
    6   -3   14     -1.31      0.00
    7   -3   14     -1.20      0.00
    8   -3   14      3.20      0.00
  -14   -2   14     -0.16      0.00
  -13   -2   14     -1.79      0.00
  -12   -2   14      1.64      0.00
  -11   -2   14     -0.39      0.00
  -10   -2   14     -2.73      0.00
   -9   -2   14      0.83      0.00
   -8   -2   14      0.63      0.00
   -7   -2   14     -1.05      0.00
   -6   -2   14     -0.58      0.00
   -5   -2   14      1.77      0.00
   -4   -2   14     -2.36      0.00
   -3   -2   14      3.36      0.00
   -2   -2   14     -0.50      0.00
   -1   -2   14     -0.77      0.00
    0   -2   14      0.53      0.00
    1   -2   14     -2.97      0.00
    2   -2   14     -1.07      0.00
    3   -2   14     -1.30      0.00
    4   -2   14      0.16      0.00
    5   -2   14     -0.05      0.00
    6   -2   14     -1.09      0.00
    7   -2   14     -1.13      0.00
    8   -2   14      1.18      0.00
  -14   -1   14     -2.58      0.00
  -13   -1   14      2.34      0.00
  -12   -1   14      0.37      0.00
  -11   -1   14     -0.02      0.00
  -10   -1   14     -2.26      0.00
   -9   -1   14     -2.18      0.00
   -8   -1   14      1.31      0.00
   -7   -1   14     -0.45      0.00
   -6   -1   14     -0.98      0.00
   -5   -1   14      2.08      0.00
   -4   -1   14     -0.15      0.00
   -3   -1   14     -0.78      0.00
   -2   -1   14      1.12      0.00
   -1   -1   14      0.65      0.00
    0   -1   14      0.69      0.00
    1   -1   14      0.07      0.00
    2   -1   14     -3.27      0.00
    3   -1   14     -0.29      0.00
    4   -1   14      1.84      0.00
    5   -1   14     -0.78      0.00
    6   -1   14     -1.18      0.00
    7   -1   14      1.51      0.00
  -14    0   14     -1.62      0.00
  -13    0   14     -0.98      0.00
  -12    0   14      0.00      0.00
  -11    0   14      1.57      0.00
  -10    0   14      0.15      0.00
   -9    0   14     -0.90      0.00
   -8    0   14      0.22      0.00
   -7    0   14      0.15      0.00
   -6    0   14      1.13      0.00
   -5    0   14     -2.14      0.00
   -4    0   14      0.82      0.00
   -3    0   14     -0.46      0.00
   -2    0   14      0.47      0.00
   -1    0   14      0.72      0.00
    0    0   14     -0.40      0.00
    1    0   14      0.71      0.00
    2    0   14      0.03      0.00
    3    0   14     -0.48      0.00
    4    0   14     -0.76      0.00
    5    0   14     -0.61      0.00
    6    0   14     -1.47      0.00
    7    0   14     -2.92      0.00
  -14    1   14     -0.05      0.00
  -13    1   14     -1.52      0.00
  -12    1   14      0.19      0.00
  -11    1   14     -1.19      0.00
  -10    1   14     -3.00      0.00
   -9    1   14     -0.49      0.00
   -8    1   14     -0.76      0.00
   -7    1   14      0.34      0.00
   -6    1   14     -0.65      0.00
   -5    1   14      0.75      0.00
   -4    1   14     -0.02      0.00
   -3    1   14      0.42      0.00
   -2    1   14     -0.75      0.00
   -1    1   14      3.48      0.00
    0    1   14      0.64      0.00
    1    1   14     -1.57      0.00
    2    1   14     -1.09      0.00
    3    1   14      0.20      0.00
    4    1   14      2.75      0.00
    5    1   14     -0.06      0.00
    6    1   14     -1.63      0.00
  -13    2   14      0.48      0.00
  -12    2   14      0.73      0.00
  -11    2   14      1.89      0.00
  -10    2   14     -0.13      0.00
   -9    2   14     -1.17      0.00
   -8    2   14     -0.89      0.00
   -7    2   14      0.61      0.00
   -6    2   14      2.09      0.00
   -5    2   14     -2.35      0.00
   -4    2   14      0.85      0.00
   -3    2   14     -1.68      0.00
   -2    2   14     -0.45      0.00
   -1    2   14      1.12      0.00
    0    2   14      0.70      0.00
    1    2   14      1.41      0.00
    2    2   14      1.37      0.00
    3    2   14     -2.30      0.00
    4    2   14     -1.68      0.00
    5    2   14      0.25      0.00
  -13    3   14     -0.02      0.00
  -12    3   14      0.48      0.00
  -11    3   14     -1.85      0.00
  -10    3   14     -0.04      0.00
   -9    3   14      0.21      0.00
   -8    3   14      1.38      0.00
   -7    3   14     -0.44      0.00
   -6    3   14      1.01      0.00
   -5    3   14      0.04      0.00
   -4    3   14     -1.70      0.00
   -3    3   14      0.48      0.00
   -2    3   14      0.99      0.00
   -1    3   14      0.03      0.00
    0    3   14      0.67      0.00
    1    3   14      0.91      0.00
    2    3   14     -0.42      0.00
    3    3   14      1.53      0.00
    4    3   14      2.14      0.00
  -12    4   14     -0.47      0.00
  -11    4   14      3.09      0.00
  -10    4   14     -2.86      0.00
   -9    4   14     -2.94      0.00
   -8    4   14     -0.33      0.00
   -7    4   14     -0.74      0.00
   -6    4   14      1.91      0.00
   -5    4   14      1.50      0.00
   -4    4   14     -0.65      0.00
   -3    4   14     -0.14      0.00
   -2    4   14      0.20      0.00
   -1    4   14      1.45      0.00
    0    4   14      1.59      0.00
    1    4   14      0.12      0.00
    2    4   14      1.22      0.00
    3    4   14     -0.18      0.00
  -12    5   14     -1.62      0.00
  -11    5   14      3.09      0.00
  -10    5   14     -1.04      0.00
   -9    5   14      1.22      0.00
   -8    5   14      0.16      0.00
   -7    5   14     -0.53      0.00
   -6    5   14     -1.12      0.00
   -5    5   14      0.90      0.00
   -4    5   14      0.13      0.00
   -3    5   14     -2.55      0.00
   -2    5   14     -0.33      0.00
   -1    5   14      2.04      0.00
    0    5   14     -2.40      0.00
    1    5   14     -0.93      0.00
    2    5   14      2.08      0.00
  -11    6   14      0.26      0.00
  -10    6   14     -0.63      0.00
   -9    6   14      1.77      0.00
   -8    6   14     -2.64      0.00
   -7    6   14      0.13      0.00
   -6    6   14      3.17      0.00
   -5    6   14      1.12      0.00
   -4    6   14     -2.64      0.00
   -3    6   14      2.84      0.00
   -2    6   14     -1.65      0.00
   -1    6   14      0.24      0.00
    0    6   14      1.86      0.00
   -9    7   14      1.25      0.00
   -8    7   14     -0.66      0.00
   -7    7   14     -2.75      0.00
   -6    7   14      0.06      0.00
   -5    7   14      1.08      0.00
   -4    7   14      0.89      0.00
   -3    7   14      0.58      0.00
   -2    7   14     -0.07      0.00
   -1  -20   15     -1.49      0.00
    0  -20   15      0.96      0.00
    1  -20   15     -1.29      0.00
    2  -20   15      0.79      0.00
    3  -20   15     -0.35      0.00
    4  -20   15      0.41      0.00
   -4  -19   15     -0.38      0.00
   -3  -19   15     -0.52      0.00
   -2  -19   15     -0.50      0.00
   -1  -19   15      0.26      0.00
    0  -19   15     -0.80      0.00
    1  -19   15     -0.96      0.00
    2  -19   15     -1.37      0.00
    3  -19   15      1.25      0.00
    4  -19   15     -1.16      0.00
    5  -19   15      0.66      0.00
    6  -19   15      0.99      0.00
   -5  -18   15     -0.36      0.00
   -4  -18   15     -1.25      0.00
   -3  -18   15      1.73      0.00
   -2  -18   15     -1.31      0.00
   -1  -18   15     -1.20      0.00
    0  -18   15      1.33      0.00
    1  -18   15     -0.90      0.00
    2  -18   15      0.09      0.00
    3  -18   15      0.19      0.00
    4  -18   15     -1.21      0.00
    5  -18   15      1.68      0.00
    6  -18   15      2.02      0.00
    7  -18   15     -2.57      0.00
   -7  -17   15     -1.04      0.00
   -6  -17   15      1.02      0.00
   -5  -17   15     -1.10      0.00
   -4  -17   15     -0.15      0.00
   -3  -17   15      0.06      0.00
   -2  -17   15     -0.28      0.00
   -1  -17   15     -1.30      0.00
    0  -17   15     -0.85      0.00
    1  -17   15     -0.70      0.00
    2  -17   15     -2.77      0.00
    3  -17   15     -0.57      0.00
    4  -17   15      0.19      0.00
    5  -17   15     -0.10      0.00
    6  -17   15     -0.53      0.00
    7  -17   15      1.33      0.00
    8  -17   15      0.52      0.00
   -8  -16   15      1.95      0.00
   -7  -16   15     -0.54      0.00
   -6  -16   15     -0.19      0.00
   -5  -16   15      0.80      0.00
   -4  -16   15     -1.14      0.00
   -3  -16   15     -0.25      0.00
   -2  -16   15     -0.02      0.00
   -1  -16   15     -1.19      0.00
    0  -16   15      0.24      0.00
    1  -16   15     -0.11      0.00
    2  -16   15     -1.73      0.00
    3  -16   15     -0.41      0.00
    4  -16   15     -0.07      0.00
    5  -16   15      0.52      0.00
    6  -16   15     -0.52      0.00
    7  -16   15     -1.18      0.00
    8  -16   15      0.47      0.00
   -9  -15   15     -2.20      0.00
   -8  -15   15      0.69      0.00
   -7  -15   15      0.69      0.00
   -6  -15   15      1.00      0.00
   -5  -15   15     -1.70      0.00
   -4  -15   15      0.07      0.00
   -3  -15   15      1.04      0.00
   -2  -15   15     -1.47      0.00
   -1  -15   15     -1.73      0.00
    0  -15   15      0.47      0.00
    1  -15   15     -0.78      0.00
    2  -15   15     -0.56      0.00
    3  -15   15     -1.51      0.00
    4  -15   15     -0.47      0.00
    5  -15   15      0.75      0.00
    6  -15   15     -1.05      0.00
    7  -15   15      2.07      0.00
    8  -15   15      0.28      0.00
    9  -15   15     -2.41      0.00
   -9  -14   15     -1.41      0.00
   -8  -14   15      0.74      0.00
   -7  -14   15     -0.62      0.00
   -6  -14   15      0.21      0.00
   -5  -14   15      0.02      0.00
   -4  -14   15      0.25      0.00
   -3  -14   15      0.39      0.00
   -2  -14   15     -1.38      0.00
   -1  -14   15      0.39      0.00
    0  -14   15     -0.48      0.00
    1  -14   15     -0.77      0.00
    2  -14   15     -2.03      0.00
    3  -14   15     -1.14      0.00
    4  -14   15      0.59      0.00
    5  -14   15     -1.35      0.00
    6  -14   15     -0.40      0.00
    7  -14   15      0.96      0.00
    8  -14   15     -1.12      0.00
    9  -14   15      1.66      0.00
  -10  -13   15     -0.34      0.00
   -9  -13   15      0.76      0.00
   -8  -13   15      0.79      0.00
   -7  -13   15     -0.87      0.00
   -6  -13   15      0.25      0.00
   -5  -13   15     -0.62      0.00
   -4  -13   15      1.25      0.00
   -3  -13   15     -0.70      0.00
   -2  -13   15      0.28      0.00
   -1  -13   15      0.01      0.00
    0  -13   15     -0.72      0.00
    1  -13   15      2.34      0.00
    2  -13   15     -0.99      0.00
    3  -13   15      0.08      0.00
    4  -13   15     -0.89      0.00
    5  -13   15     -1.06      0.00
    6  -13   15      0.69      0.00
    7  -13   15      0.76      0.00
    8  -13   15     -1.18      0.00
    9  -13   15     -0.97      0.00
  -11  -12   15     -0.30      0.00
  -10  -12   15     -1.37      0.00
   -9  -12   15      0.01      0.00
   -8  -12   15      0.23      0.00
   -7  -12   15     -0.03      0.00
   -6  -12   15      0.36      0.00
   -5  -12   15     -2.10      0.00
   -4  -12   15      0.17      0.00
   -3  -12   15     -0.41      0.00
   -2  -12   15     -0.18      0.00
   -1  -12   15     -1.13      0.00
    0  -12   15     -0.59      0.00
    1  -12   15      1.53      0.00
    2  -12   15     -2.76      0.00
    3  -12   15     -0.05      0.00
    4  -12   15     -0.75      0.00
    5  -12   15     -1.83      0.00
    6  -12   15     -0.03      0.00
    7  -12   15     -0.29      0.00
    8  -12   15      1.71      0.00
    9  -12   15      0.84      0.00
  -11  -11   15      0.28      0.00
  -10  -11   15      1.93      0.00
   -9  -11   15     -1.20      0.00
   -8  -11   15     -0.72      0.00
   -7  -11   15      0.16      0.00
   -6  -11   15     -1.63      0.00
   -5  -11   15      0.35      0.00
   -4  -11   15      1.27      0.00
   -3  -11   15     -0.61      0.00
   -2  -11   15      2.28      0.00
   -1  -11   15     -0.31      0.00
    0  -11   15     -0.31      0.00
    1  -11   15      2.71      0.00
    2  -11   15      1.35      0.00
    3  -11   15      0.27      0.00
    4  -11   15     -0.94      0.00
    5  -11   15      0.89      0.00
    6  -11   15     -1.28      0.00
    7  -11   15     -0.77      0.00
    8  -11   15      0.19      0.00
    9  -11   15     -0.08      0.00
  -12  -10   15     -0.47      0.00
  -11  -10   15      0.08      0.00
  -10  -10   15      0.13      0.00
   -9  -10   15      0.54      0.00
   -8  -10   15     -0.33      0.00
   -7  -10   15      0.12      0.00
   -6  -10   15      0.83      0.00
   -5  -10   15     -2.99      0.00
   -4  -10   15     -0.71      0.00
   -3  -10   15     -1.61      0.00
   -2  -10   15      0.62      0.00
   -1  -10   15     -0.61      0.00
    0  -10   15     -0.95      0.00
    1  -10   15      2.14      0.00
    2  -10   15     -0.58      0.00
    3  -10   15     -2.53      0.00
    4  -10   15     -0.31      0.00
    5  -10   15      1.30      0.00
    6  -10   15     -1.55      0.00
    7  -10   15     -0.04      0.00
    8  -10   15      0.37      0.00
    9  -10   15      0.53      0.00
  -12   -9   15     -2.37      0.00
  -11   -9   15      1.29      0.00
  -10   -9   15     -1.47      0.00
   -9   -9   15      1.94      0.00
   -8   -9   15      0.14      0.00
   -7   -9   15     -3.10      0.00
   -6   -9   15     -0.64      0.00
   -5   -9   15      0.96      0.00
   -4   -9   15     -0.22      0.00
   -3   -9   15     -1.06      0.00
   -2   -9   15     -0.37      0.00
   -1   -9   15      1.21      0.00
    0   -9   15     -0.43      0.00
    1   -9   15      3.46      0.00
    2   -9   15      2.80      0.00
    3   -9   15     -0.22      0.00
    4   -9   15     -1.89      0.00
    5   -9   15     -0.31      0.00
    6   -9   15      0.40      0.00
    7   -9   15     -1.15      0.00
    8   -9   15     -0.65      0.00
    9   -9   15     -0.35      0.00
  -13   -8   15     -1.00      0.00
  -12   -8   15     -1.77      0.00
  -11   -8   15      0.31      0.00
  -10   -8   15      1.24      0.00
   -9   -8   15     -0.50      0.00
   -8   -8   15     -1.31      0.00
   -7   -8   15      1.37      0.00
   -6   -8   15     -0.53      0.00
   -5   -8   15     -1.06      0.00
   -4   -8   15      0.63      0.00
   -3   -8   15      0.41      0.00
   -2   -8   15     -1.48      0.00
   -1   -8   15     -0.11      0.00
    0   -8   15      0.36      0.00
    1   -8   15     -1.12      0.00
    2   -8   15      3.90      0.00
    3   -8   15     -1.86      0.00
    4   -8   15     -1.60      0.00
    5   -8   15      2.18      0.00
    6   -8   15     -0.19      0.00
    7   -8   15     -0.59      0.00
    8   -8   15     -0.20      0.00
    9   -8   15      0.42      0.00
  -13   -7   15      0.15      0.00
  -12   -7   15     -0.10      0.00
  -11   -7   15     -0.13      0.00
  -10   -7   15     -1.76      0.00
   -9   -7   15      1.51      0.00
   -8   -7   15      1.15      0.00
   -7   -7   15     -1.26      0.00
   -6   -7   15     -1.60      0.00
   -5   -7   15     -0.40      0.00
   -4   -7   15     -0.96      0.00
   -3   -7   15     -2.28      0.00
   -2   -7   15      2.29      0.00
   -1   -7   15      0.23      0.00
    0   -7   15      0.05      0.00
    1   -7   15      3.16      0.00
    2   -7   15      4.19      0.00
    3   -7   15     -0.26      0.00
    4   -7   15     -3.22      0.00
    5   -7   15      1.09      0.00
    6   -7   15     -1.23      0.00
    7   -7   15      1.33      0.00
    8   -7   15     -1.53      0.00
    9   -7   15     -0.47      0.00
  -13   -6   15     -0.35      0.00
  -12   -6   15     -1.33      0.00
  -11   -6   15      0.12      0.00
  -10   -6   15      1.67      0.00
   -9   -6   15     -0.81      0.00
   -8   -6   15     -0.28      0.00
   -7   -6   15     -1.08      0.00
   -6   -6   15      1.44      0.00
   -5   -6   15     -0.49      0.00
   -4   -6   15     -1.20      0.00
   -3   -6   15      0.84      0.00
   -2   -6   15      0.21      0.00
   -1   -6   15     -1.73      0.00
    0   -6   15     -0.26      0.00
    1   -6   15      3.72      0.00
    2   -6   15      2.26      0.00
    3   -6   15     -1.49      0.00
    4   -6   15      2.80      0.00
    5   -6   15     -2.89      0.00
    6   -6   15      0.68      0.00
    7   -6   15     -0.73      0.00
    8   -6   15     -1.07      0.00
    9   -6   15      0.37      0.00
  -13   -5   15      3.63      0.00
  -12   -5   15     -2.78      0.00
  -11   -5   15     -2.16      0.00
  -10   -5   15      1.17      0.00
   -9   -5   15      1.41      0.00
   -8   -5   15      0.75      0.00
   -7   -5   15     -1.43      0.00
   -6   -5   15     -0.20      0.00
   -5   -5   15      2.18      0.00
   -4   -5   15     -2.05      0.00
   -3   -5   15     -2.92      0.00
   -2   -5   15      1.98      0.00
   -1   -5   15      0.35      0.00
    0   -5   15      0.23      0.00
    1   -5   15      0.08      0.00
    2   -5   15      4.20      0.00
    3   -5   15     -1.08      0.00
    4   -5   15     -0.03      0.00
    5   -5   15      1.69      0.00
    6   -5   15      1.87      0.00
    7   -5   15     -0.42      0.00
    8   -5   15     -1.15      0.00
  -13   -4   15     -0.33      0.00
  -12   -4   15     -0.58      0.00
  -11   -4   15      1.66      0.00
  -10   -4   15     -1.01      0.00
   -9   -4   15     -0.37      0.00
   -8   -4   15      2.98      0.00
   -7   -4   15     -1.23      0.00
   -6   -4   15     -2.18      0.00
   -5   -4   15      1.16      0.00
   -4   -4   15     -0.85      0.00
   -3   -4   15      0.69      0.00
   -2   -4   15     -0.79      0.00
   -1   -4   15      0.56      0.00
    0   -4   15      1.42      0.00
    1   -4   15      2.42      0.00
    2   -4   15      3.36      0.00
    3   -4   15      0.23      0.00
    4   -4   15     -1.71      0.00
    5   -4   15      0.12      0.00
    6   -4   15      0.09      0.00
    7   -4   15     -0.10      0.00
    8   -4   15     -0.92      0.00
  -13   -3   15      0.55      0.00
  -12   -3   15     -0.91      0.00
  -11   -3   15      0.99      0.00
  -10   -3   15     -1.80      0.00
   -9   -3   15      2.06      0.00
   -8   -3   15      1.81      0.00
   -7   -3   15     -1.16      0.00
   -6   -3   15      0.27      0.00
   -5   -3   15     -1.92      0.00
   -4   -3   15      1.74      0.00
   -3   -3   15      0.12      0.00
   -2   -3   15     -2.02      0.00
   -1   -3   15     -1.52      0.00
    0   -3   15      0.11      0.00
    1   -3   15      0.27      0.00
    2   -3   15      1.89      0.00
    3   -3   15      0.25      0.00
    4   -3   15      1.38      0.00
    5   -3   15     -0.12      0.00
    6   -3   15      2.63      0.00
    7   -3   15     -0.42      0.00
  -13   -2   15      2.96      0.00
  -12   -2   15     -0.50      0.00
  -11   -2   15     -0.58      0.00
  -10   -2   15     -0.19      0.00
   -9   -2   15      0.13      0.00
   -8   -2   15      2.74      0.00
   -7   -2   15     -0.86      0.00
   -6   -2   15     -0.68      0.00
   -5   -2   15     -0.66      0.00
   -4   -2   15      0.16      0.00
   -3   -2   15     -0.13      0.00
   -2   -2   15      0.11      0.00
   -1   -2   15      2.29      0.00
    0   -2   15     -1.00      0.00
    1   -2   15      0.04      0.00
    2   -2   15      0.53      0.00
    3   -2   15      0.24      0.00
    4   -2   15      0.82      0.00
    5   -2   15     -0.05      0.00
    6   -2   15      1.45      0.00
    7   -2   15      0.15      0.00
  -13   -1   15      0.04      0.00
  -12   -1   15      0.28      0.00
  -11   -1   15      2.87      0.00
  -10   -1   15     -1.52      0.00
   -9   -1   15      0.89      0.00
   -8   -1   15      1.36      0.00
   -7   -1   15      1.50      0.00
   -6   -1   15     -0.74      0.00
   -5   -1   15     -1.83      0.00
   -4   -1   15      0.24      0.00
   -3   -1   15      0.72      0.00
   -2   -1   15     -1.86      0.00
   -1   -1   15     -0.28      0.00
    0   -1   15     -0.39      0.00
    1   -1   15      0.95      0.00
    2   -1   15      0.98      0.00
    3   -1   15     -0.43      0.00
    4   -1   15     -1.71      0.00
    5   -1   15      2.51      0.00
    6   -1   15      0.35      0.00
  -13    0   15      0.14      0.00
  -12    0   15     -0.36      0.00
  -11    0   15     -1.38      0.00
  -10    0   15      1.25      0.00
   -9    0   15     -0.35      0.00
   -8    0   15     -0.74      0.00
   -7    0   15      1.21      0.00
   -6    0   15     -0.03      0.00
   -5    0   15     -0.35      0.00
   -4    0   15     -0.03      0.00
   -3    0   15      0.00      0.00
   -2    0   15      1.25      0.00
   -1    0   15     -0.84      0.00
    0    0   15     -0.91      0.00
    1    0   15     -1.39      0.00
    2    0   15      0.35      0.00
    3    0   15      1.66      0.00
    4    0   15     -0.90      0.00
    5    0   15      0.81      0.00
  -13    1   15     -0.60      0.00
  -12    1   15      1.11      0.00
  -11    1   15      0.94      0.00
  -10    1   15      1.77      0.00
   -9    1   15     -2.09      0.00
   -8    1   15      0.28      0.00
   -7    1   15      0.04      0.00
   -6    1   15      0.84      0.00
   -5    1   15     -0.97      0.00
   -4    1   15      0.02      0.00
   -3    1   15      0.86      0.00
   -2    1   15     -1.08      0.00
   -1    1   15     -1.31      0.00
    0    1   15     -0.83      0.00
    1    1   15      1.83      0.00
    2    1   15     -2.18      0.00
    3    1   15     -0.68      0.00
    4    1   15     -0.95      0.00
    5    1   15      1.74      0.00
  -12    2   15     -0.35      0.00
  -11    2   15     -0.62      0.00
  -10    2   15      2.03      0.00
   -9    2   15      0.91      0.00
   -8    2   15      1.83      0.00
   -7    2   15     -0.86      0.00
   -6    2   15      0.15      0.00
   -5    2   15     -1.45      0.00
   -4    2   15     -0.69      0.00
   -3    2   15      1.34      0.00
   -2    2   15     -0.80      0.00
   -1    2   15     -1.40      0.00
    0    2   15      0.25      0.00
    1    2   15     -1.06      0.00
    2    2   15      0.57      0.00
    3    2   15     -0.82      0.00
    4    2   15      0.58      0.00
  -12    3   15     -2.57      0.00
  -11    3   15      1.56      0.00
  -10    3   15     -0.06      0.00
   -9    3   15     -3.78      0.00
   -8    3   15      1.69      0.00
   -7    3   15     -0.17      0.00
   -6    3   15     -0.14      0.00
   -5    3   15     -0.07      0.00
   -4    3   15      2.58      0.00
   -3    3   15      0.81      0.00
   -2    3   15     -0.28      0.00
   -1    3   15     -0.01      0.00
    0    3   15     -0.67      0.00
    1    3   15      1.32      0.00
    2    3   15     -0.78      0.00
    3    3   15     -1.28      0.00
  -11    4   15      0.45      0.00
  -10    4   15      1.48      0.00
   -9    4   15      1.51      0.00
   -8    4   15      0.18      0.00
   -7    4   15      0.11      0.00
   -6    4   15     -0.62      0.00
   -5    4   15     -1.87      0.00
   -4    4   15     -0.02      0.00
   -3    4   15     -0.75      0.00
   -2    4   15     -0.90      0.00
   -1    4   15     -1.00      0.00
    0    4   15     -1.01      0.00
    1    4   15      0.25      0.00
  -10    5   15     -1.85      0.00
   -9    5   15      2.45      0.00
   -8    5   15      0.90      0.00
   -7    5   15     -0.40      0.00
   -6    5   15      0.33      0.00
   -5    5   15      0.45      0.00
   -4    5   15     -0.54      0.00
   -3    5   15      2.04      0.00
   -2    5   15      0.30      0.00
   -1    5   15      0.06      0.00
    0    5   15     -0.29      0.00
   -8    6   15     -0.54      0.00
   -7    6   15     -0.35      0.00
   -6    6   15     -0.53      0.00
   -5    6   15      1.49      0.00
   -4    6   15     -0.55      0.00
   -3    6   15     -0.50      0.00
    0  -20   16      1.01      0.00
    1  -20   16      0.42      0.00
    2  -20   16      0.55      0.00
   -3  -19   16      0.48      0.00
   -2  -19   16      1.03      0.00
   -1  -19   16     -0.94      0.00
    0  -19   16      0.76      0.00
    1  -19   16      0.68      0.00
    2  -19   16      1.50      0.00
    3  -19   16      0.40      0.00
    4  -19   16      0.32      0.00
    5  -19   16     -0.44      0.00
   -5  -18   16      0.97      0.00
   -4  -18   16      0.31      0.00
   -3  -18   16     -0.79      0.00
   -2  -18   16      0.02      0.00
   -1  -18   16      1.60      0.00
    0  -18   16      0.04      0.00
    1  -18   16     -0.50      0.00
    2  -18   16     -0.32      0.00
    3  -18   16      0.69      0.00
    4  -18   16      1.41      0.00
    5  -18   16      0.08      0.00
    6  -18   16     -2.02      0.00
   -6  -17   16     -1.65      0.00
   -5  -17   16      0.89      0.00
   -4  -17   16      0.78      0.00
   -3  -17   16      0.84      0.00
   -2  -17   16     -0.05      0.00
   -1  -17   16     -1.04      0.00
    0  -17   16      1.39      0.00
    1  -17   16      1.22      0.00
    2  -17   16      0.42      0.00
    3  -17   16     -1.40      0.00
    4  -17   16      0.79      0.00
    5  -17   16      0.29      0.00
    6  -17   16     -1.45      0.00
    7  -17   16      1.68      0.00
   -7  -16   16     -0.30      0.00
   -6  -16   16     -0.78      0.00
   -5  -16   16      0.19      0.00
   -4  -16   16     -0.58      0.00
   -3  -16   16      1.66      0.00
   -2  -16   16     -0.05      0.00
   -1  -16   16     -0.91      0.00
    0  -16   16      0.61      0.00
    1  -16   16     -0.61      0.00
    2  -16   16      2.65      0.00
    3  -16   16     -0.02      0.00
    4  -16   16      1.78      0.00
    5  -16   16     -1.79      0.00
    6  -16   16     -0.90      0.00
    7  -16   16      2.96      0.00
    8  -16   16     -1.12      0.00
   -8  -15   16      0.49      0.00
   -7  -15   16     -0.74      0.00
   -6  -15   16      0.11      0.00
   -5  -15   16      1.06      0.00
   -4  -15   16     -0.80      0.00
   -3  -15   16     -0.51      0.00
   -2  -15   16      0.08      0.00
   -1  -15   16      0.50      0.00
    0  -15   16     -0.39      0.00
    1  -15   16     -1.69      0.00
    2  -15   16     -0.74      0.00
    3  -15   16      0.91      0.00
    4  -15   16      0.58      0.00
    5  -15   16     -0.17      0.00
    6  -15   16     -0.06      0.00
    7  -15   16     -0.94      0.00
    8  -15   16      1.49      0.00
   -9  -14   16      0.46      0.00
   -8  -14   16      0.66      0.00
   -7  -14   16     -1.44      0.00
   -6  -14   16      1.58      0.00
   -5  -14   16      0.66      0.00
   -4  -14   16     -0.12      0.00
   -3  -14   16      0.36      0.00
   -2  -14   16      0.58      0.00
   -1  -14   16     -0.35      0.00
    0  -14   16     -1.54      0.00
    1  -14   16      1.19      0.00
    2  -14   16      1.81      0.00
    3  -14   16     -0.70      0.00
    4  -14   16      1.02      0.00
    5  -14   16      0.15      0.00
    6  -14   16      0.92      0.00
    7  -14   16     -2.47      0.00
    8  -14   16      0.52      0.00
  -10  -13   16     -0.12      0.00
   -9  -13   16     -0.20      0.00
   -8  -13   16      0.52      0.00
   -7  -13   16      0.60      0.00
   -6  -13   16     -0.40      0.00
   -5  -13   16      0.37      0.00
   -4  -13   16     -0.58      0.00
   -3  -13   16     -0.39      0.00
   -2  -13   16     -1.50      0.00
   -1  -13   16      0.70      0.00
    0  -13   16     -3.07      0.00
    1  -13   16     -2.66      0.00
    2  -13   16      0.72      0.00
    3  -13   16     -0.51      0.00
    4  -13   16     -1.17      0.00
    5  -13   16      1.42      0.00
    6  -13   16      0.40      0.00
    7  -13   16      0.68      0.00
    8  -13   16      0.17      0.00
  -10  -12   16      1.76      0.00
   -9  -12   16     -1.07      0.00
   -8  -12   16     -1.04      0.00
   -7  -12   16      0.38      0.00
   -6  -12   16      2.35      0.00
   -5  -12   16      1.28      0.00
   -4  -12   16     -0.40      0.00
   -3  -12   16      1.41      0.00
   -2  -12   16      1.83      0.00
   -1  -12   16     -0.72      0.00
    0  -12   16     -2.63      0.00
    1  -12   16      0.69      0.00
    2  -12   16      1.61      0.00
    3  -12   16     -1.48      0.00
    4  -12   16      0.31      0.00
    5  -12   16      1.80      0.00
    6  -12   16     -0.55      0.00
    7  -12   16     -0.92      0.00
    8  -12   16     -1.10      0.00
    9  -12   16      0.57      0.00
  -11  -11   16      0.50      0.00
  -10  -11   16     -1.65      0.00
   -9  -11   16      0.96      0.00
   -8  -11   16      1.58      0.00
   -7  -11   16      0.15      0.00
   -6  -11   16      0.84      0.00
   -5  -11   16     -0.57      0.00
   -4  -11   16      0.11      0.00
   -3  -11   16     -0.53      0.00
   -2  -11   16     -1.01      0.00
   -1  -11   16      1.70      0.00
    0  -11   16     -4.33      0.00
    1  -11   16     -1.38      0.00
    2  -11   16     -0.73      0.00
    3  -11   16     -0.81      0.00
    4  -11   16     -0.43      0.00
    5  -11   16      0.87      0.00
    6  -11   16     -0.25      0.00
    7  -11   16      0.98      0.00
    8  -11   16      1.93      0.00
    9  -11   16     -1.18      0.00
  -11  -10   16      0.81      0.00
  -10  -10   16      0.13      0.00
   -9  -10   16     -0.46      0.00
   -8  -10   16      0.09      0.00
   -7  -10   16     -2.30      0.00
   -6  -10   16      3.15      0.00
   -5  -10   16      1.49      0.00
   -4  -10   16     -0.36      0.00
   -3  -10   16      1.52      0.00
   -2  -10   16     -0.89      0.00
   -1  -10   16     -0.66      0.00
    0  -10   16      0.21      0.00
    1  -10   16     -2.21      0.00
    2  -10   16     -0.70      0.00
    3  -10   16      0.30      0.00
    4  -10   16     -0.86      0.00
    5  -10   16      0.23      0.00
    6  -10   16     -0.04      0.00
    7  -10   16     -1.09      0.00
    8  -10   16     -1.28      0.00
  -12   -9   16      0.19      0.00
  -11   -9   16      1.35      0.00
  -10   -9   16     -0.30      0.00
   -9   -9   16     -2.09      0.00
   -8   -9   16     -0.03      0.00
   -7   -9   16      2.49      0.00
   -6   -9   16      0.38      0.00
   -5   -9   16     -1.87      0.00
   -4   -9   16      2.60      0.00
   -3   -9   16      0.96      0.00
   -2   -9   16     -0.65      0.00
   -1   -9   16      0.42      0.00
    0   -9   16     -1.91      0.00
    1   -9   16     -1.83      0.00
    2   -9   16     -1.92      0.00
    3   -9   16      1.75      0.00
    4   -9   16      0.05      0.00
    5   -9   16     -0.07      0.00
    6   -9   16     -1.71      0.00
    7   -9   16      2.73      0.00
    8   -9   16      0.97      0.00
  -12   -8   16      1.45      0.00
  -11   -8   16      0.19      0.00
  -10   -8   16      0.28      0.00
   -9   -8   16      2.91      0.00
   -8   -8   16     -2.18      0.00
   -7   -8   16     -1.40      0.00
   -6   -8   16      0.93      0.00
   -5   -8   16      2.27      0.00
   -4   -8   16     -1.76      0.00
   -3   -8   16     -0.77      0.00
   -2   -8   16      2.85      0.00
   -1   -8   16     -2.16      0.00
    0   -8   16     -0.35      0.00
    1   -8   16     -0.66      0.00
    2   -8   16     -4.18      0.00
    3   -8   16      0.03      0.00
    4   -8   16      3.23      0.00
    5   -8   16     -3.65      0.00
    6   -8   16      0.21      0.00
    7   -8   16      1.16      0.00
    8   -8   16     -0.59      0.00
  -12   -7   16      0.51      0.00
  -11   -7   16     -0.58      0.00
  -10   -7   16      1.16      0.00
   -9   -7   16     -1.42      0.00
   -8   -7   16     -1.15      0.00
   -7   -7   16      0.23      0.00
   -6   -7   16     -0.56      0.00
   -5   -7   16     -0.13      0.00
   -4   -7   16      2.65      0.00
   -3   -7   16     -0.43      0.00
   -2   -7   16     -2.08      0.00
   -1   -7   16      1.16      0.00
    0   -7   16     -0.91      0.00
    1   -7   16     -1.48      0.00
    2   -7   16     -1.53      0.00
    3   -7   16      0.88      0.00
    4   -7   16      0.06      0.00
    5   -7   16     -2.52      0.00
    6   -7   16     -0.96      0.00
    7   -7   16      2.57      0.00
    8   -7   16     -1.17      0.00
  -13   -6   16      1.76      0.00
  -12   -6   16     -1.25      0.00
  -11   -6   16     -2.13      0.00
  -10   -6   16      4.08      0.00
   -9   -6   16     -0.89      0.00
   -8   -6   16     -0.10      0.00
   -7   -6   16     -0.23      0.00
   -6   -6   16      0.02      0.00
   -5   -6   16      1.54      0.00
   -4   -6   16     -0.78      0.00
   -3   -6   16      0.12      0.00
   -2   -6   16      0.78      0.00
   -1   -6   16     -0.94      0.00
    0   -6   16     -1.76      0.00
    1   -6   16     -3.64      0.00
    2   -6   16     -2.37      0.00
    3   -6   16      2.89      0.00
    4   -6   16     -0.17      0.00
    5   -6   16      0.23      0.00
    6   -6   16     -0.41      0.00
    7   -6   16      1.18      0.00
    8   -6   16      0.23      0.00
  -13   -5   16      1.46      0.00
  -12   -5   16      0.52      0.00
  -11   -5   16     -0.04      0.00
  -10   -5   16     -1.01      0.00
   -9   -5   16      0.68      0.00
   -8   -5   16     -0.27      0.00
   -7   -5   16     -1.80      0.00
   -6   -5   16      0.19      0.00
   -5   -5   16     -0.30      0.00
   -4   -5   16      1.67      0.00
   -3   -5   16     -0.05      0.00
   -2   -5   16      0.52      0.00
   -1   -5   16      0.89      0.00
    0   -5   16      1.53      0.00
    1   -5   16     -2.29      0.00
    2   -5   16     -0.84      0.00
    3   -5   16     -1.48      0.00
    4   -5   16     -0.65      0.00
    5   -5   16     -2.92      0.00
    6   -5   16     -1.58      0.00
    7   -5   16      2.89      0.00
  -13   -4   16     -1.15      0.00
  -12   -4   16      1.05      0.00
  -11   -4   16     -1.45      0.00
  -10   -4   16      0.45      0.00
   -9   -4   16     -1.87      0.00
   -8   -4   16      1.34      0.00
   -7   -4   16      0.75      0.00
   -6   -4   16     -1.50      0.00
   -5   -4   16      0.47      0.00
   -4   -4   16      1.63      0.00
   -3   -4   16     -1.83      0.00
   -2   -4   16     -0.67      0.00
   -1   -4   16     -0.63      0.00
    0   -4   16     -1.26      0.00
    1   -4   16      0.27      0.00
    2   -4   16     -1.26      0.00
    3   -4   16     -0.37      0.00
    4   -4   16      1.66      0.00
    5   -4   16     -0.14      0.00
    6   -4   16     -2.28      0.00
    7   -4   16     -0.50      0.00
  -13   -3   16     -0.64      0.00
  -12   -3   16      0.95      0.00
  -11   -3   16      0.06      0.00
  -10   -3   16     -0.31      0.00
   -9   -3   16     -0.64      0.00
   -8   -3   16     -0.82      0.00
   -7   -3   16     -0.15      0.00
   -6   -3   16      1.56      0.00
   -5   -3   16      0.50      0.00
   -4   -3   16     -1.35      0.00
   -3   -3   16      1.23      0.00
   -2   -3   16      0.09      0.00
   -1   -3   16      2.25      0.00
    0   -3   16     -0.23      0.00
    1   -3   16     -0.07      0.00
    2   -3   16     -0.60      0.00
    3   -3   16     -1.30      0.00
    4   -3   16     -1.30      0.00
    5   -3   16      0.41      0.00
    6   -3   16     -1.31      0.00
  -13   -2   16     -1.07      0.00
  -12   -2   16      0.86      0.00
  -11   -2   16      0.32      0.00
  -10   -2   16      0.27      0.00
   -9   -2   16     -1.56      0.00
   -8   -2   16     -0.39      0.00
   -7   -2   16      1.72      0.00
   -6   -2   16     -0.46      0.00
   -5   -2   16      0.97      0.00
   -4   -2   16      0.03      0.00
   -3   -2   16     -1.20      0.00
   -2   -2   16     -0.23      0.00
   -1   -2   16     -0.54      0.00
    0   -2   16     -0.17      0.00
    1   -2   16      2.41      0.00
    2   -2   16      0.52      0.00
    3   -2   16     -0.82      0.00
    4   -2   16      1.07      0.00
    5   -2   16     -1.50      0.00
    6   -2   16     -1.23      0.00
  -13   -1   16     -3.36      0.00
  -12   -1   16      0.55      0.00
  -11   -1   16     -1.35      0.00
  -10   -1   16      1.93      0.00
   -9   -1   16      0.25      0.00
   -8   -1   16     -2.97      0.00
   -7   -1   16      0.05      0.00
   -6   -1   16      2.89      0.00
   -5   -1   16     -0.94      0.00
   -4   -1   16     -0.70      0.00
   -3   -1   16      1.04      0.00
   -2   -1   16     -0.34      0.00
   -1   -1   16      1.17      0.00
    0   -1   16      0.43      0.00
    1   -1   16     -0.53      0.00
    2   -1   16      0.66      0.00
    3   -1   16     -0.12      0.00
    4   -1   16     -0.82      0.00
    5   -1   16      0.55      0.00
  -12    0   16      1.58      0.00
  -11    0   16     -0.95      0.00
  -10    0   16     -0.82      0.00
   -9    0   16      0.32      0.00
   -8    0   16     -0.26      0.00
   -7    0   16     -0.82      0.00
   -6    0   16      0.84      0.00
   -5    0   16      4.09      0.00
   -4    0   16     -2.92      0.00
   -3    0   16     -0.01      0.00
   -2    0   16     -1.33      0.00
   -1    0   16      0.76      0.00
    0    0   16      0.10      0.00
    1    0   16      2.08      0.00
    2    0   16     -0.57      0.00
    3    0   16     -0.45      0.00
    4    0   16      0.50      0.00
  -12    1   16     -0.43      0.00
  -11    1   16     -1.23      0.00
  -10    1   16      1.85      0.00
   -9    1   16     -0.29      0.00
   -8    1   16      1.27      0.00
   -7    1   16     -1.61      0.00
   -6    1   16      0.56      0.00
   -5    1   16     -0.07      0.00
   -4    1   16     -0.48      0.00
   -3    1   16     -0.50      0.00
   -2    1   16      0.43      0.00
   -1    1   16      0.53      0.00
    0    1   16     -0.97      0.00
    1    1   16      1.16      0.00
    2    1   16      1.81      0.00
    3    1   16     -1.78      0.00
  -11    2   16     -1.11      0.00
  -10    2   16     -0.02      0.00
   -9    2   16     -3.02      0.00
   -8    2   16      0.64      0.00
   -7    2   16     -1.19      0.00
   -6    2   16      0.75      0.00
   -5    2   16      3.31      0.00
   -4    2   16     -0.34      0.00
   -3    2   16     -0.19      0.00
   -2    2   16      0.90      0.00
   -1    2   16      0.00      0.00
    0    2   16     -0.50      0.00
    1    2   16      0.05      0.00
    2    2   16      0.74      0.00
  -10    3   16     -1.53      0.00
   -9    3   16      0.71      0.00
   -8    3   16     -0.20      0.00
   -7    3   16     -1.69      0.00
   -6    3   16      1.16      0.00
   -5    3   16     -1.10      0.00
   -4    3   16     -0.99      0.00
   -3    3   16     -1.57      0.00
   -2    3   16      0.53      0.00
   -1    3   16     -0.13      0.00
    0    3   16     -0.83      0.00
    1    3   16      0.41      0.00
   -9    4   16      0.80      0.00
   -8    4   16     -0.16      0.00
   -7    4   16     -2.46      0.00
   -6    4   16      1.40      0.00
   -5    4   16      1.14      0.00
   -4    4   16     -0.96      0.00
   -3    4   16      0.84      0.00
   -2    4   16      1.04      0.00
   -1    4   16     -0.97      0.00
   -7    5   16     -0.97      0.00
   -6    5   16      1.98      0.00
   -5    5   16      0.09      0.00
   -4    5   16      0.09      0.00
   -2  -19   17      0.98      0.00
   -1  -19   17      0.32      0.00
    0  -19   17     -0.03      0.00
    1  -19   17     -0.62      0.00
    2  -19   17      0.18      0.00
    3  -19   17     -1.19      0.00
   -4  -18   17      0.32      0.00
   -3  -18   17     -0.25      0.00
   -2  -18   17      0.74      0.00
   -1  -18   17     -0.67      0.00
    0  -18   17      0.96      0.00
    1  -18   17      0.71      0.00
    2  -18   17     -2.15      0.00
    3  -18   17     -0.48      0.00
    4  -18   17      0.07      0.00
    5  -18   17     -0.14      0.00
   -6  -17   17      0.08      0.00
   -5  -17   17     -0.57      0.00
   -4  -17   17     -0.60      0.00
   -3  -17   17      0.02      0.00
   -2  -17   17      0.66      0.00
   -1  -17   17     -0.09      0.00
    0  -17   17      1.27      0.00
    1  -17   17      1.74      0.00
    2  -17   17      0.20      0.00
    3  -17   17     -0.56      0.00
    4  -17   17     -0.52      0.00
    5  -17   17      0.89      0.00
    6  -17   17      0.05      0.00
   -7  -16   17      0.85      0.00
   -6  -16   17     -1.17      0.00
   -5  -16   17      1.12      0.00
   -4  -16   17     -0.78      0.00
   -3  -16   17     -1.58      0.00
   -2  -16   17      0.78      0.00
   -1  -16   17      1.98      0.00
    0  -16   17     -1.00      0.00
    1  -16   17      0.47      0.00
    2  -16   17      0.23      0.00
    3  -16   17     -1.06      0.00
    4  -16   17     -1.18      0.00
    5  -16   17      2.12      0.00
    6  -16   17     -0.56      0.00
   -8  -15   17     -0.84      0.00
   -7  -15   17      0.86      0.00
   -6  -15   17     -1.00      0.00
   -5  -15   17      0.47      0.00
   -4  -15   17      0.17      0.00
   -3  -15   17      0.60      0.00
   -2  -15   17      0.21      0.00
   -1  -15   17      1.55      0.00
    0  -15   17      0.69      0.00
    1  -15   17      2.35      0.00
    2  -15   17      2.12      0.00
    3  -15   17     -0.92      0.00
    4  -15   17     -0.89      0.00
    5  -15   17     -0.61      0.00
    6  -15   17      0.68      0.00
    7  -15   17     -0.46      0.00
   -9  -14   17      1.32      0.00
   -8  -14   17     -1.32      0.00
   -7  -14   17      0.48      0.00
   -6  -14   17     -1.16      0.00
   -5  -14   17     -0.10      0.00
   -4  -14   17     -1.49      0.00
   -3  -14   17      0.11      0.00
   -2  -14   17     -0.81      0.00
   -1  -14   17      1.85      0.00
    0  -14   17      0.15      0.00
    1  -14   17     -0.10      0.00
    2  -14   17      1.17      0.00
    3  -14   17     -0.20      0.00
    4  -14   17     -1.32      0.00
    5  -14   17      0.86      0.00
    6  -14   17     -0.21      0.00
    7  -14   17      0.39      0.00
   -9  -13   17     -0.41      0.00
   -8  -13   17     -0.22      0.00
   -7  -13   17     -0.63      0.00
   -6  -13   17     -0.20      0.00
   -5  -13   17      0.88      0.00
   -4  -13   17     -2.26      0.00
   -3  -13   17      2.87      0.00
   -2  -13   17      1.34      0.00
   -1  -13   17      0.37      0.00
    0  -13   17      1.48      0.00
    1  -13   17      1.94      0.00
    2  -13   17      2.45      0.00
    3  -13   17     -0.70      0.00
    4  -13   17      0.48      0.00
    5  -13   17      0.58      0.00
    6  -13   17     -1.25      0.00
    7  -13   17     -2.04      0.00
  -10  -12   17      0.19      0.00
   -9  -12   17      1.00      0.00
   -8  -12   17      0.76      0.00
   -7  -12   17     -2.09      0.00
   -6  -12   17     -0.75      0.00
   -5  -12   17      0.74      0.00
   -4  -12   17     -3.03      0.00
   -3  -12   17      0.64      0.00
   -2  -12   17     -0.50      0.00
   -1  -12   17      1.55      0.00
    0  -12   17      2.23      0.00
    1  -12   17      0.33      0.00
    2  -12   17      1.07      0.00
    3  -12   17     -0.45      0.00
    4  -12   17      0.16      0.00
    5  -12   17      1.03      0.00
    6  -12   17      1.07      0.00
    7  -12   17     -0.37      0.00
    8  -12   17     -0.03      0.00
  -10  -11   17      1.98      0.00
   -9  -11   17     -1.94      0.00
   -8  -11   17     -0.03      0.00
   -7  -11   17      0.49      0.00
   -6  -11   17      0.63      0.00
   -5  -11   17     -2.24      0.00
   -4  -11   17     -1.19      0.00
   -3  -11   17      0.92      0.00
   -2  -11   17     -1.04      0.00
   -1  -11   17      1.25      0.00
    0  -11   17      1.56      0.00
    1  -11   17      0.13      0.00
    2  -11   17      0.20      0.00
    3  -11   17      1.20      0.00
    4  -11   17     -1.31      0.00
    5  -11   17      1.10      0.00
    6  -11   17      0.91      0.00
    7  -11   17     -2.18      0.00
    8  -11   17      0.76      0.00
  -11  -10   17     -0.08      0.00
  -10  -10   17     -2.24      0.00
   -9  -10   17      1.45      0.00
   -8  -10   17      0.20      0.00
   -7  -10   17      0.28      0.00
   -6  -10   17     -0.18      0.00
   -5  -10   17     -0.54      0.00
   -4  -10   17      1.15      0.00
   -3  -10   17     -2.00      0.00
   -2  -10   17      0.30      0.00
   -1  -10   17      1.30      0.00
    0  -10   17      0.94      0.00
    1  -10   17      5.00      0.00
    2  -10   17      0.62      0.00
    3  -10   17     -0.40      0.00
    4  -10   17      0.23      0.00
    5  -10   17     -0.32      0.00
    6  -10   17      1.55      0.00
    7  -10   17      0.75      0.00
  -11   -9   17     -1.18      0.00
  -10   -9   17      3.27      0.00
   -9   -9   17     -0.86      0.00
   -8   -9   17      0.67      0.00
   -7   -9   17      0.71      0.00
   -6   -9   17     -0.56      0.00
   -5   -9   17      0.00      0.00
   -4   -9   17     -1.15      0.00
   -3   -9   17     -0.26      0.00
   -2   -9   17      0.95      0.00
   -1   -9   17     -1.56      0.00
    0   -9   17      0.62      0.00
    1   -9   17     -0.95      0.00
    2   -9   17      0.37      0.00
    3   -9   17      0.43      0.00
    4   -9   17      1.06      0.00
    5   -9   17      0.33      0.00
    6   -9   17      0.48      0.00
    7   -9   17      0.30      0.00
  -12   -8   17      0.56      0.00
  -11   -8   17     -3.23      0.00
  -10   -8   17     -1.37      0.00
   -9   -8   17      0.80      0.00
   -8   -8   17      0.18      0.00
   -7   -8   17      1.34      0.00
   -6   -8   17     -0.48      0.00
   -5   -8   17     -1.30      0.00
   -4   -8   17      1.46      0.00
   -3   -8   17     -1.28      0.00
   -2   -8   17      0.14      0.00
   -1   -8   17      1.49      0.00
    0   -8   17      2.67      0.00
    1   -8   17      0.89      0.00
    2   -8   17      1.23      0.00
    3   -8   17      1.43      0.00
    4   -8   17     -3.94      0.00
    5   -8   17      1.08      0.00
    6   -8   17      1.17      0.00
    7   -8   17     -0.77      0.00
  -12   -7   17      0.06      0.00
  -11   -7   17     -0.13      0.00
  -10   -7   17      0.87      0.00
   -9   -7   17     -0.30      0.00
   -8   -7   17      1.06      0.00
   -7   -7   17     -0.04      0.00
   -6   -7   17      1.73      0.00
   -5   -7   17     -0.99      0.00
   -4   -7   17     -0.82      0.00
   -3   -7   17     -0.33      0.00
   -2   -7   17     -0.26      0.00
   -1   -7   17      0.07      0.00
    0   -7   17     -0.29      0.00
    1   -7   17     -0.01      0.00
    2   -7   17     -1.39      0.00
    3   -7   17      2.35      0.00
    4   -7   17      3.02      0.00
    5   -7   17      0.82      0.00
    6   -7   17     -0.47      0.00
    7   -7   17     -1.15      0.00
  -12   -6   17      0.46      0.00
  -11   -6   17      0.02      0.00
  -10   -6   17     -2.25      0.00
   -9   -6   17      0.96      0.00
   -8   -6   17      0.81      0.00
   -7   -6   17      1.19      0.00
   -6   -6   17     -2.33      0.00
   -5   -6   17      1.22      0.00
   -4   -6   17      0.49      0.00
   -3   -6   17      0.21      0.00
   -2   -6   17     -0.45      0.00
   -1   -6   17      2.10      0.00
    0   -6   17      2.46      0.00
    1   -6   17     -1.35      0.00
    2   -6   17      1.86      0.00
    3   -6   17     -2.37      0.00
    4   -6   17     -2.98      0.00
    5   -6   17      3.96      0.00
    6   -6   17     -0.10      0.00
  -12   -5   17      1.39      0.00
  -11   -5   17      0.19      0.00
  -10   -5   17     -1.72      0.00
   -9   -5   17     -1.19      0.00
   -8   -5   17      2.24      0.00
   -7   -5   17      0.39      0.00
   -6   -5   17     -2.45      0.00
   -5   -5   17     -0.61      0.00
   -4   -5   17      1.26      0.00
   -3   -5   17     -0.94      0.00
   -2   -5   17     -2.26      0.00
   -1   -5   17     -0.41      0.00
    0   -5   17     -0.26      0.00
    1   -5   17      1.73      0.00
    2   -5   17     -0.30      0.00
    3   -5   17      1.04      0.00
    4   -5   17      1.31      0.00
    5   -5   17      0.73      0.00
    6   -5   17     -1.19      0.00
  -12   -4   17      1.12      0.00
  -11   -4   17      0.90      0.00
  -10   -4   17     -1.07      0.00
   -9   -4   17      0.15      0.00
   -8   -4   17     -0.44      0.00
   -7   -4   17      0.83      0.00
   -6   -4   17      1.22      0.00
   -5   -4   17     -2.57      0.00
   -4   -4   17      0.03      0.00
   -3   -4   17      1.21      0.00
   -2   -4   17      1.53      0.00
   -1   -4   17      0.03      0.00
    0   -4   17     -0.47      0.00
    1   -4   17     -2.15      0.00
    2   -4   17      1.10      0.00
    3   -4   17     -1.79      0.00
    4   -4   17      0.93      0.00
    5   -4   17      1.53      0.00
  -12   -3   17      1.16      0.00
  -11   -3   17      0.19      0.00
  -10   -3   17     -1.36      0.00
   -9   -3   17     -0.43      0.00
   -8   -3   17      1.32      0.00
   -7   -3   17      0.29      0.00
   -6   -3   17     -1.71      0.00
   -5   -3   17     -0.35      0.00
   -4   -3   17      1.03      0.00
   -3   -3   17      0.36      0.00
   -2   -3   17     -1.73      0.00
   -1   -3   17     -0.75      0.00
    0   -3   17      0.48      0.00
    1   -3   17     -0.31      0.00
    2   -3   17      0.49      0.00
    3   -3   17     -0.45      0.00
    4   -3   17      1.18      0.00
    5   -3   17     -1.08      0.00
  -12   -2   17      1.08      0.00
  -11   -2   17      0.88      0.00
  -10   -2   17     -2.46      0.00
   -9   -2   17      1.87      0.00
   -8   -2   17     -2.30      0.00
   -7   -2   17     -0.57      0.00
   -6   -2   17      0.28      0.00
   -5   -2   17     -1.13      0.00
   -4   -2   17     -0.16      0.00
   -3   -2   17      2.81      0.00
   -2   -2   17     -1.27      0.00
   -1   -2   17      0.33      0.00
    0   -2   17     -0.04      0.00
    1   -2   17     -1.39      0.00
    2   -2   17     -0.96      0.00
    3   -2   17     -1.40      0.00
    4   -2   17      0.87      0.00
  -12   -1   17      1.09      0.00
  -11   -1   17     -0.25      0.00
  -10   -1   17      0.16      0.00
   -9   -1   17     -2.02      0.00
   -8   -1   17      2.23      0.00
   -7   -1   17     -0.19      0.00
   -6   -1   17     -2.55      0.00
   -5   -1   17      1.60      0.00
   -4   -1   17      0.39      0.00
   -3   -1   17     -0.57      0.00
   -2   -1   17      0.96      0.00
   -1   -1   17     -1.09      0.00
    0   -1   17     -0.97      0.00
    1   -1   17      0.80      0.00
    2   -1   17      0.17      0.00
    3   -1   17     -1.13      0.00
  -11    0   17      0.29      0.00
  -10    0   17     -0.06      0.00
   -9    0   17      1.02      0.00
   -8    0   17     -0.03      0.00
   -7    0   17      0.14      0.00
   -6    0   17     -2.54      0.00
   -5    0   17     -1.92      0.00
   -4    0   17      2.32      0.00
   -3    0   17      1.09      0.00
   -2    0   17     -0.20      0.00
   -1    0   17      1.08      0.00
    0    0   17     -1.21      0.00
    1    0   17     -0.01      0.00
    2    0   17     -0.92      0.00
  -10    1   17     -0.84      0.00
   -9    1   17     -0.76      0.00
   -8    1   17      0.29      0.00
   -7    1   17      1.40      0.00
   -6    1   17     -0.61      0.00
   -5    1   17     -0.62      0.00
   -4    1   17      0.71      0.00
   -3    1   17      0.73      0.00
   -2    1   17     -1.20      0.00
   -1    1   17      1.51      0.00
    0    1   17     -0.35      0.00
    1    1   17      0.12      0.00
  -10    2   17     -0.74      0.00
   -9    2   17      1.54      0.00
   -8    2   17      0.60      0.00
   -7    2   17      0.25      0.00
   -6    2   17     -1.29      0.00
   -5    2   17     -1.04      0.00
   -4    2   17      0.18      0.00
   -3    2   17      0.64      0.00
   -2    2   17      0.44      0.00
   -1    2   17     -1.40      0.00
    0    2   17      0.83      0.00
   -8    3   17      1.82      0.00
   -7    3   17     -1.12      0.00
   -6    3   17     -0.09      0.00
   -5    3   17      0.18      0.00
   -4    3   17     -0.68      0.00
   -3    3   17      0.98      0.00
   -2    3   17      0.21      0.00
   -3  -18   18     -0.40      0.00
   -2  -18   18     -1.56      0.00
   -1  -18   18     -0.40      0.00
    0  -18   18     -1.46      0.00
    1  -18   18      1.12      0.00
    2  -18   18      1.31      0.00
    3  -18   18     -1.35      0.00
   -5  -17   18     -0.03      0.00
   -4  -17   18      0.36      0.00
   -3  -17   18     -0.43      0.00
   -2  -17   18      0.43      0.00
   -1  -17   18     -0.46      0.00
    0  -17   18     -2.44      0.00
    1  -17   18     -3.17      0.00
    2  -17   18      2.19      0.00
    3  -17   18      1.02      0.00
    4  -17   18     -0.69      0.00
   -6  -16   18      1.73      0.00
   -5  -16   18     -1.23      0.00
   -4  -16   18      2.75      0.00
   -3  -16   18     -1.81      0.00
   -2  -16   18     -0.76      0.00
   -1  -16   18     -0.02      0.00
    0  -16   18      0.03      0.00
    1  -16   18     -1.85      0.00
    2  -16   18      0.00      0.00
    3  -16   18      1.42      0.00
    4  -16   18     -1.02      0.00
    5  -16   18      1.64      0.00
   -7  -15   18      0.11      0.00
   -6  -15   18      0.70      0.00
   -5  -15   18      0.27      0.00
   -4  -15   18     -0.48      0.00
   -3  -15   18     -0.27      0.00
   -2  -15   18      0.73      0.00
   -1  -15   18     -2.44      0.00
    0  -15   18     -1.91      0.00
    1  -15   18     -2.62      0.00
    2  -15   18      1.17      0.00
    3  -15   18     -0.36      0.00
    4  -15   18     -1.40      0.00
    5  -15   18      1.13      0.00
    6  -15   18      0.10      0.00
   -8  -14   18      0.91      0.00
   -7  -14   18     -1.14      0.00
   -6  -14   18     -0.09      0.00
   -5  -14   18      2.62      0.00
   -4  -14   18     -0.99      0.00
   -3  -14   18     -0.35      0.00
   -2  -14   18      1.16      0.00
   -1  -14   18     -0.59      0.00
    0  -14   18     -1.85      0.00
    1  -14   18     -1.43      0.00
    2  -14   18      1.12      0.00
    3  -14   18      0.19      0.00
    4  -14   18     -0.86      0.00
    5  -14   18      0.94      0.00
    6  -14   18     -0.44      0.00
   -9  -13   18     -0.97      0.00
   -8  -13   18     -0.66      0.00
   -7  -13   18      1.53      0.00
   -6  -13   18      0.81      0.00
   -5  -13   18      0.10      0.00
   -4  -13   18     -0.86      0.00
   -3  -13   18      1.68      0.00
   -2  -13   18     -1.26      0.00
   -1  -13   18     -0.85      0.00
    0  -13   18     -0.74      0.00
    1  -13   18     -0.86      0.00
    2  -13   18     -1.12      0.00
    3  -13   18      0.51      0.00
    4  -13   18     -0.38      0.00
    5  -13   18     -1.85      0.00
    6  -13   18      2.03      0.00
   -9  -12   18     -1.17      0.00
   -8  -12   18      0.03      0.00
   -7  -12   18     -0.25      0.00
   -6  -12   18      0.38      0.00
   -5  -12   18     -0.61      0.00
   -4  -12   18      1.38      0.00
   -3  -12   18     -0.07      0.00
   -2  -12   18     -0.34      0.00
   -1  -12   18     -0.32      0.00
    0  -12   18     -5.51      0.00
    1  -12   18      0.12      0.00
    2  -12   18     -0.86      0.00
    3  -12   18      0.67      0.00
    4  -12   18      0.40      0.00
    5  -12   18     -2.09      0.00
    6  -12   18     -0.53      0.00
  -10  -11   18     -0.18      0.00
   -9  -11   18     -0.56      0.00
   -8  -11   18      0.17      0.00
   -7  -11   18     -2.17      0.00
   -6  -11   18      1.45      0.00
   -5  -11   18      1.47      0.00
   -4  -11   18      0.08      0.00
   -3  -11   18      1.08      0.00
   -2  -11   18      1.48      0.00
   -1  -11   18     -0.74      0.00
    0  -11   18      1.03      0.00
    1  -11   18      2.25      0.00
    2  -11   18     -1.81      0.00
    3  -11   18     -1.22      0.00
    4  -11   18      2.82      0.00
    5  -11   18     -0.97      0.00
    6  -11   18     -3.52      0.00
  -10  -10   18      0.96      0.00
   -9  -10   18     -0.69      0.00
   -8  -10   18      0.29      0.00
   -7  -10   18     -0.14      0.00
   -6  -10   18     -2.26      0.00
   -5  -10   18     -0.12      0.00
   -4  -10   18      0.75      0.00
   -3  -10   18      0.86      0.00
   -2  -10   18      0.39      0.00
   -1  -10   18     -2.32      0.00
    0  -10   18     -2.30      0.00
    1  -10   18     -3.12      0.00
    2  -10   18     -0.76      0.00
    3  -10   18      1.78      0.00
    4  -10   18      1.03      0.00
    5  -10   18     -0.04      0.00
    6  -10   18     -0.96      0.00
  -11   -9   18     -2.22      0.00
  -10   -9   18      0.21      0.00
   -9   -9   18      0.86      0.00
   -8   -9   18     -1.73      0.00
   -7   -9   18     -1.99      0.00
   -6   -9   18      1.96      0.00
   -5   -9   18      0.58      0.00
   -4   -9   18     -1.13      0.00
   -3   -9   18      1.02      0.00
   -2   -9   18      0.16      0.00
   -1   -9   18      1.60      0.00
    0   -9   18      3.71      0.00
    1   -9   18     -0.79      0.00
    2   -9   18     -0.59      0.00
    3   -9   18     -1.71      0.00
    4   -9   18      1.09      0.00
    5   -9   18     -2.11      0.00
    6   -9   18     -0.59      0.00
  -11   -8   18      0.54      0.00
  -10   -8   18     -0.09      0.00
   -9   -8   18      0.87      0.00
   -8   -8   18      0.06      0.00
   -7   -8   18     -1.64      0.00
   -6   -8   18     -1.11      0.00
   -5   -8   18      0.34      0.00
   -4   -8   18     -0.14      0.00
   -3   -8   18      0.41      0.00
   -2   -8   18     -1.59      0.00
   -1   -8   18     -0.77      0.00
    0   -8   18     -1.05      0.00
    1   -8   18     -0.67      0.00
    2   -8   18      0.88      0.00
    3   -8   18      1.17      0.00
    4   -8   18      1.03      0.00
    5   -8   18      1.25      0.00
    6   -8   18     -1.99      0.00
  -11   -7   18     -0.16      0.00
  -10   -7   18      0.04      0.00
   -9   -7   18     -0.04      0.00
   -8   -7   18      1.11      0.00
   -7   -7   18      0.76      0.00
   -6   -7   18     -0.25      0.00
   -5   -7   18      0.75      0.00
   -4   -7   18      0.07      0.00
   -3   -7   18      1.37      0.00
   -2   -7   18      0.65      0.00
   -1   -7   18      0.67      0.00
    0   -7   18      0.05      0.00
    1   -7   18      0.79      0.00
    2   -7   18     -0.11      0.00
    3   -7   18     -2.19      0.00
    4   -7   18     -1.19      0.00
    5   -7   18      0.32      0.00
    6   -7   18      1.77      0.00
  -11   -6   18     -0.77      0.00
  -10   -6   18      1.54      0.00
   -9   -6   18      0.35      0.00
   -8   -6   18     -2.77      0.00
   -7   -6   18     -0.10      0.00
   -6   -6   18     -0.58      0.00
   -5   -6   18      1.54      0.00
   -4   -6   18     -0.61      0.00
   -3   -6   18     -1.70      0.00
   -2   -6   18     -0.69      0.00
   -1   -6   18      0.06      0.00
    0   -6   18      0.86      0.00
    1   -6   18      0.62      0.00
    2   -6   18      1.44      0.00
    3   -6   18     -0.42      0.00
    4   -6   18      0.54      0.00
    5   -6   18     -1.17      0.00
  -11   -5   18     -0.03      0.00
  -10   -5   18     -0.57      0.00
   -9   -5   18      1.16      0.00
   -8   -5   18      1.44      0.00
   -7   -5   18      1.08      0.00
   -6   -5   18      0.03      0.00
   -5   -5   18     -1.45      0.00
   -4   -5   18      0.00      0.00
   -3   -5   18      1.40      0.00
   -2   -5   18      2.41      0.00
   -1   -5   18     -2.10      0.00
    0   -5   18      0.37      0.00
    1   -5   18      1.00      0.00
    2   -5   18      0.56      0.00
    3   -5   18     -1.12      0.00
    4   -5   18      0.07      0.00
    5   -5   18      2.24      0.00
  -11   -4   18      2.93      0.00
  -10   -4   18     -1.40      0.00
   -9   -4   18      1.50      0.00
   -8   -4   18     -0.74      0.00
   -7   -4   18     -0.04      0.00
   -6   -4   18      1.50      0.00
   -5   -4   18      1.60      0.00
   -4   -4   18     -2.01      0.00
   -3   -4   18      0.09      0.00
   -2   -4   18     -1.83      0.00
   -1   -4   18      0.69      0.00
    0   -4   18      1.32      0.00
    1   -4   18      0.85      0.00
    2   -4   18      1.62      0.00
    3   -4   18     -1.26      0.00
    4   -4   18     -1.47      0.00
  -11   -3   18      0.00      0.00
  -10   -3   18      1.32      0.00
   -9   -3   18      0.00      0.00
   -8   -3   18     -0.01      0.00
   -7   -3   18      0.23      0.00
   -6   -3   18     -0.45      0.00
   -5   -3   18      0.04      0.00
   -4   -3   18     -0.16      0.00
   -3   -3   18     -1.48      0.00
   -2   -3   18      1.51      0.00
   -1   -3   18     -0.46      0.00
    0   -3   18     -0.01      0.00
    1   -3   18      0.31      0.00
    2   -3   18      1.85      0.00
    3   -3   18     -1.37      0.00
  -11   -2   18      1.23      0.00
  -10   -2   18     -1.04      0.00
   -9   -2   18      0.84      0.00
   -8   -2   18      0.80      0.00
   -7   -2   18      2.37      0.00
   -6   -2   18     -0.49      0.00
   -5   -2   18     -0.27      0.00
   -4   -2   18     -0.36      0.00
   -3   -2   18     -1.98      0.00
   -2   -2   18      0.48      0.00
   -1   -2   18      0.91      0.00
    0   -2   18     -0.68      0.00
    1   -2   18     -0.07      0.00
    2   -2   18      1.79      0.00
  -10   -1   18      0.53      0.00
   -9   -1   18      1.12      0.00
   -8   -1   18     -0.98      0.00
   -7   -1   18     -0.19      0.00
   -6   -1   18      0.61      0.00
   -5   -1   18      1.99      0.00
   -4   -1   18     -0.91      0.00
   -3   -1   18     -1.54      0.00
   -2   -1   18     -0.83      0.00
   -1   -1   18      0.93      0.00
    0   -1   18     -0.83      0.00
    1   -1   18      0.91      0.00
   -9    0   18     -1.49      0.00
   -8    0   18      1.19      0.00
   -7    0   18      0.76      0.00
   -6    0   18      0.29      0.00
   -5    0   18     -0.70      0.00
   -4    0   18     -0.46      0.00
   -3    0   18      0.01      0.00
   -2    0   18      0.56      0.00
   -1    0   18     -0.78      0.00
    0    0   18     -0.16      0.00
   -8    1   18      1.14      0.00
   -7    1   18     -1.00      0.00
   -6    1   18     -0.56      0.00
   -5    1   18      3.21      0.00
   -4    1   18     -2.69      0.00
   -3    1   18      0.27      0.00
   -2    1   18      1.54      0.00
   -1    1   18     -2.71      0.00
   -6    2   18      1.18      0.00
   -5    2   18     -0.02      0.00
   -4    2   18     -1.41      0.00
    0  -18   19      0.64      0.00
   -3  -17   19     -1.41      0.00
   -2  -17   19      0.57      0.00
   -1  -17   19      1.86      0.00
    0  -17   19      0.03      0.00
    1  -17   19      0.15      0.00
    2  -17   19      1.41      0.00
    3  -17   19      0.15      0.00
   -5  -16   19      1.56      0.00
   -4  -16   19      0.12      0.00
   -3  -16   19     -1.83      0.00
   -2  -16   19      2.57      0.00
   -1  -16   19     -1.06      0.00
    0  -16   19      0.79      0.00
    1  -16   19     -0.91      0.00
    2  -16   19      0.07      0.00
    3  -16   19      0.41      0.00
    4  -16   19     -1.43      0.00
   -6  -15   19      0.75      0.00
   -5  -15   19     -0.44      0.00
   -4  -15   19     -0.58      0.00
   -3  -15   19     -0.77      0.00
   -2  -15   19      1.80      0.00
   -1  -15   19      1.21      0.00
    0  -15   19      0.48      0.00
    1  -15   19     -0.19      0.00
    2  -15   19      1.01      0.00
    3  -15   19      0.77      0.00
    4  -15   19      1.12      0.00
   -7  -14   19      1.24      0.00
   -6  -14   19     -0.72      0.00
   -5  -14   19     -0.62      0.00
   -4  -14   19      0.11      0.00
   -3  -14   19     -0.52      0.00
   -2  -14   19      1.52      0.00
   -1  -14   19      0.98      0.00
    0  -14   19      1.00      0.00
    1  -14   19     -0.73      0.00
    2  -14   19      0.25      0.00
    3  -14   19     -1.10      0.00
    4  -14   19      1.81      0.00
    5  -14   19     -0.45      0.00
   -8  -13   19      0.71      0.00
   -7  -13   19     -0.68      0.00
   -6  -13   19      0.08      0.00
   -5  -13   19      0.38      0.00
   -4  -13   19     -1.98      0.00
   -3  -13   19     -2.75      0.00
   -2  -13   19      1.15      0.00
   -1  -13   19      2.29      0.00
    0  -13   19     -3.39      0.00
    1  -13   19      1.72      0.00
    2  -13   19     -0.94      0.00
    3  -13   19     -1.96      0.00
    4  -13   19      1.26      0.00
    5  -13   19      2.78      0.00
   -8  -12   19      0.61      0.00
   -7  -12   19      0.77      0.00
   -6  -12   19      0.51      0.00
   -5  -12   19     -0.20      0.00
   -4  -12   19     -0.03      0.00
   -3  -12   19     -1.31      0.00
   -2  -12   19      0.27      0.00
   -1  -12   19      3.10      0.00
    0  -12   19      1.94      0.00
    1  -12   19      2.03      0.00
    2  -12   19     -0.06      0.00
    3  -12   19     -1.60      0.00
    4  -12   19     -1.29      0.00
    5  -12   19      2.59      0.00
   -9  -11   19      1.87      0.00
   -8  -11   19      0.01      0.00
   -7  -11   19     -0.13      0.00
   -6  -11   19      0.20      0.00
   -5  -11   19      0.71      0.00
   -4  -11   19     -0.93      0.00
   -3  -11   19     -2.81      0.00
   -2  -11   19     -1.60      0.00
   -1  -11   19     -0.58      0.00
    0  -11   19     -1.40      0.00
    1  -11   19     -1.53      0.00
    2  -11   19     -0.46      0.00
    3  -11   19      1.88      0.00
    4  -11   19     -1.56      0.00
    5  -11   19      0.39      0.00
   -9  -10   19     -1.64      0.00
   -8  -10   19      2.42      0.00
   -7  -10   19     -1.35      0.00
   -6  -10   19      3.07      0.00
   -5  -10   19     -0.20      0.00
   -4  -10   19     -1.74      0.00
   -3  -10   19      1.57      0.00
   -2  -10   19      0.11      0.00
   -1  -10   19      1.02      0.00
    0  -10   19      0.95      0.00
    1  -10   19      0.16      0.00
    2  -10   19      0.44      0.00
    3  -10   19     -2.05      0.00
    4  -10   19     -0.55      0.00
    5  -10   19     -0.55      0.00
  -10   -9   19     -1.25      0.00
   -9   -9   19      2.32      0.00
   -8   -9   19     -2.15      0.00
   -7   -9   19      0.04      0.00
   -6   -9   19     -0.01      0.00
   -5   -9   19     -0.55      0.00
   -4   -9   19      0.19      0.00
   -3   -9   19     -3.01      0.00
   -2   -9   19      0.67      0.00
   -1   -9   19     -1.14      0.00
    0   -9   19     -1.33      0.00
    1   -9   19     -0.48      0.00
    2   -9   19      0.36      0.00
    3   -9   19      0.71      0.00
    4   -9   19     -0.33      0.00
    5   -9   19      0.67      0.00
  -10   -8   19      0.37      0.00
   -9   -8   19     -2.02      0.00
   -8   -8   19      2.98      0.00
   -7   -8   19      0.85      0.00
   -6   -8   19      1.17      0.00
   -5   -8   19     -0.46      0.00
   -4   -8   19      1.13      0.00
   -3   -8   19     -0.22      0.00
   -2   -8   19      0.54      0.00
   -1   -8   19      0.09      0.00
    0   -8   19     -0.88      0.00
    1   -8   19     -0.15      0.00
    2   -8   19     -1.86      0.00
    3   -8   19     -0.53      0.00
    4   -8   19     -0.26      0.00
  -10   -7   19      0.47      0.00
   -9   -7   19     -1.73      0.00
   -8   -7   19     -3.29      0.00
   -7   -7   19      0.92      0.00
   -6   -7   19     -0.62      0.00
   -5   -7   19      1.08      0.00
   -4   -7   19     -1.79      0.00
   -3   -7   19     -0.60      0.00
   -2   -7   19      0.20      0.00
   -1   -7   19     -1.04      0.00
    0   -7   19      0.24      0.00
    1   -7   19     -0.32      0.00
    2   -7   19      1.56      0.00
    3   -7   19     -1.83      0.00
    4   -7   19     -0.86      0.00
  -10   -6   19     -1.80      0.00
   -9   -6   19     -0.32      0.00
   -8   -6   19      3.44      0.00
   -7   -6   19     -1.70      0.00
   -6   -6   19      0.15      0.00
   -5   -6   19     -1.08      0.00
   -4   -6   19      0.87      0.00
   -3   -6   19      1.24      0.00
   -2   -6   19      1.04      0.00
   -1   -6   19     -2.57      0.00
    0   -6   19     -0.21      0.00
    1   -6   19     -0.13      0.00
    2   -6   19     -1.16      0.00
    3   -6   19      2.14      0.00
    4   -6   19     -1.53      0.00
  -10   -5   19      0.63      0.00
   -9   -5   19     -3.86      0.00
   -8   -5   19     -0.42      0.00
   -7   -5   19      1.56      0.00
   -6   -5   19      1.07      0.00
   -5   -5   19      1.09      0.00
   -4   -5   19     -0.65      0.00
   -3   -5   19      0.74      0.00
   -2   -5   19     -0.74      0.00
   -1   -5   19     -0.62      0.00
    0   -5   19      0.36      0.00
    1   -5   19     -2.95      0.00
    2   -5   19      2.45      0.00
    3   -5   19     -1.61      0.00
  -10   -4   19      0.89      0.00
   -9   -4   19     -2.04      0.00
   -8   -4   19     -1.32      0.00
   -7   -4   19     -0.16      0.00
   -6   -4   19     -0.56      0.00
   -5   -4   19     -0.04      0.00
   -4   -4   19      1.93      0.00
   -3   -4   19     -0.25      0.00
   -2   -4   19     -0.49      0.00
   -1   -4   19      1.30      0.00
    0   -4   19     -0.50      0.00
    1   -4   19     -1.10      0.00
    2   -4   19     -0.13      0.00
   -9   -3   19     -0.40      0.00
   -8   -3   19     -0.10      0.00
   -7   -3   19      0.07      0.00
   -6   -3   19     -0.79      0.00
   -5   -3   19      0.79      0.00
   -4   -3   19      1.30      0.00
   -3   -3   19      2.61      0.00
   -2   -3   19     -1.15      0.00
   -1   -3   19     -0.42      0.00
    0   -3   19     -0.14      0.00
    1   -3   19     -0.99      0.00
   -9   -2   19     -2.16      0.00
   -8   -2   19      0.20      0.00
   -7   -2   19     -1.27      0.00
   -6   -2   19      0.53      0.00
   -5   -2   19      1.25      0.00
   -4   -2   19     -0.66      0.00
   -3   -2   19      0.05      0.00
   -2   -2   19      1.12      0.00
   -1   -2   19     -1.06      0.00
    0   -2   19      1.22      0.00
   -8   -1   19      1.04      0.00
   -7   -1   19      0.84      0.00
   -6   -1   19     -1.72      0.00
   -5   -1   19     -1.74      0.00
   -4   -1   19      1.72      0.00
   -3   -1   19      1.77      0.00
   -2   -1   19      0.87      0.00
   -1   -1   19     -1.29      0.00
   -6    0   19      0.59      0.00
   -5    0   19      2.40      0.00
   -4    0   19     -2.21      0.00
   -3    0   19     -0.84      0.00
   -3  -16   20      1.14      0.00
   -2  -16   20     -0.84      0.00
   -1  -16   20      0.51      0.00
    0  -16   20     -0.08      0.00
    1  -16   20      0.40      0.00
   -5  -15   20      1.33      0.00
   -4  -15   20     -0.23      0.00
   -3  -15   20     -0.07      0.00
   -2  -15   20     -0.58      0.00
   -1  -15   20      0.57      0.00
    0  -15   20      0.57      0.00
    1  -15   20     -0.21      0.00
    2  -15   20      0.15      0.00
   -6  -14   20     -0.18      0.00
   -5  -14   20      0.60      0.00
   -4  -14   20     -0.51      0.00
   -3  -14   20      0.90      0.00
   -2  -14   20     -1.82      0.00
   -1  -14   20     -2.66      0.00
    0  -14   20      0.36      0.00
    1  -14   20      0.78      0.00
    2  -14   20      0.01      0.00
    3  -14   20     -0.72      0.00
   -7  -13   20     -0.44      0.00
   -6  -13   20     -1.01      0.00
   -5  -13   20      1.89      0.00
   -4  -13   20      2.91      0.00
   -3  -13   20     -0.53      0.00
   -2  -13   20      0.78      0.00
   -1  -13   20     -0.32      0.00
    0  -13   20      3.17      0.00
    1  -13   20     -0.54      0.00
    2  -13   20      1.26      0.00
    3  -13   20      1.03      0.00
   -7  -12   20     -0.10      0.00
   -6  -12   20     -3.03      0.00
   -5  -12   20      2.70      0.00
   -4  -12   20     -1.34      0.00
   -3  -12   20      1.75      0.00
   -2  -12   20     -1.18      0.00
   -1  -12   20     -2.92      0.00
    0  -12   20      1.42      0.00
    1  -12   20     -1.70      0.00
    2  -12   20     -1.41      0.00
    3  -12   20      2.67      0.00
   -8  -11   20      0.44      0.00
   -7  -11   20     -0.11      0.00
   -6  -11   20     -1.00      0.00
   -5  -11   20      1.28      0.00
   -4  -11   20      1.09      0.00
   -3  -11   20      1.39      0.00
   -2  -11   20      0.38      0.00
   -1  -11   20      0.59      0.00
    0  -11   20      0.94      0.00
    1  -11   20      2.22      0.00
    2  -11   20     -0.04      0.00
    3  -11   20     -1.24      0.00
   -8  -10   20     -1.58      0.00
   -7  -10   20     -0.45      0.00
   -6  -10   20     -1.03      0.00
   -5  -10   20     -0.81      0.00
   -4  -10   20      1.70      0.00
   -3  -10   20     -1.72      0.00
   -2  -10   20     -0.48      0.00
   -1  -10   20      1.39      0.00
    0  -10   20      0.88      0.00
    1  -10   20     -0.09      0.00
    2  -10   20      0.45      0.00
    3  -10   20      0.58      0.00
   -8   -9   20      3.43      0.00
   -7   -9   20     -0.25      0.00
   -6   -9   20     -0.55      0.00
   -5   -9   20      0.18      0.00
   -4   -9   20      1.88      0.00
   -3   -9   20      0.61      0.00
   -2   -9   20     -1.20      0.00
   -1   -9   20     -0.74      0.00
    0   -9   20      0.25      0.00
    1   -9   20      1.49      0.00
    2   -9   20      0.17      0.00
    3   -9   20     -0.14      0.00
   -9   -8   20     -0.56      0.00
   -8   -8   20     -1.72      0.00
   -7   -8   20     -1.02      0.00
   -6   -8   20      1.25      0.00
   -5   -8   20     -1.35      0.00
   -4   -8   20      0.63      0.00
   -3   -8   20     -1.26      0.00
   -2   -8   20      1.77      0.00
   -1   -8   20     -0.48      0.00
    0   -8   20      0.78      0.00
    1   -8   20      2.10      0.00
    2   -8   20     -0.29      0.00
    3   -8   20     -0.35      0.00
   -9   -7   20      2.15      0.00
   -8   -7   20      1.42      0.00
   -7   -7   20     -1.75      0.00
   -6   -7   20     -1.14      0.00
   -5   -7   20     -0.42      0.00
   -4   -7   20      0.20      0.00
   -3   -7   20      0.93      0.00
   -2   -7   20     -0.37      0.00
   -1   -7   20     -0.72      0.00
    0   -7   20      1.30      0.00
    1   -7   20     -1.38      0.00
    2   -7   20      1.22      0.00
   -9   -6   20      0.64      0.00
   -8   -6   20     -1.08      0.00
   -7   -6   20      2.88      0.00
   -6   -6   20     -0.27      0.00
   -5   -6   20     -2.53      0.00
   -4   -6   20      1.50      0.00
   -3   -6   20     -0.29      0.00
   -2   -6   20     -1.21      0.00
   -1   -6   20      0.22      0.00
    0   -6   20      1.49      0.00
    1   -6   20     -0.20      0.00
    2   -6   20     -0.22      0.00
   -8   -5   20     -1.79      0.00
   -7   -5   20     -0.48      0.00
   -6   -5   20      0.53      0.00
   -5   -5   20     -2.04      0.00
   -4   -5   20     -2.28      0.00
   -3   -5   20      0.43      0.00
   -2   -5   20     -0.20      0.00
   -1   -5   20      1.85      0.00
    0   -5   20     -0.25      0.00
    1   -5   20      1.03      0.00
   -8   -4   20      1.98      0.00
   -7   -4   20     -0.06      0.00
   -6   -4   20     -1.87      0.00
   -5   -4   20      0.03      0.00
   -4   -4   20      1.28      0.00
   -3   -4   20     -0.88      0.00
   -2   -4   20     -0.21      0.00
   -1   -4   20     -1.67      0.00
    0   -4   20      1.16      0.00
   -7   -3   20      2.66      0.00
   -6   -3   20      0.27      0.00
   -5   -3   20     -2.36      0.00
   -4   -3   20     -2.16      0.00
   -3   -3   20     -0.45      0.00
   -2   -3   20      0.56      0.00
   -5   -2   20      0.71      0.00
   -4   -2   20      1.69      0.00
   -3  -14   21     -1.10      0.00
   -2  -14   21      1.63      0.00
   -1  -14   21      2.77      0.00
    0  -14   21     -0.21      0.00
   -5  -13   21     -0.13      0.00
   -4  -13   21     -0.88      0.00
   -3  -13   21      0.35      0.00
   -2  -13   21     -1.63      0.00
   -1  -13   21     -0.81      0.00
    0  -13   21     -0.51      0.00
    1  -13   21     -1.22      0.00
   -5  -12   21     -0.05      0.00
   -4  -12   21     -1.13      0.00
   -3  -12   21      0.20      0.00
   -2  -12   21      1.12      0.00
   -1  -12   21      0.21      0.00
    0  -12   21     -1.12      0.00
    1  -12   21      0.51      0.00
   -6  -11   21     -1.35      0.00
   -5  -11   21     -0.52      0.00
   -4  -11   21     -0.12      0.00
   -3  -11   21      0.93      0.00
   -2  -11   21      0.02      0.00
   -1  -11   21      0.66      0.00
    0  -11   21     -1.17      0.00
    1  -11   21     -0.83      0.00
   -6  -10   21      0.48      0.00
   -5  -10   21      1.26      0.00
   -4  -10   21     -2.94      0.00
   -3  -10   21      0.70      0.00
   -2  -10   21      1.05      0.00
   -1  -10   21     -2.27      0.00
    0  -10   21     -0.35      0.00
    1  -10   21      0.05      0.00
   -7   -9   21     -1.38      0.00
   -6   -9   21      1.49      0.00
   -5   -9   21      0.82      0.00
   -4   -9   21     -1.66      0.00
   -3   -9   21      0.99      0.00
   -2   -9   21      1.71      0.00
   -1   -9   21      0.03      0.00
    0   -9   21     -0.43      0.00
    1   -9   21      0.96      0.00
   -7   -8   21      0.61      0.00
   -6   -8   21      0.33      0.00
   -5   -8   21      0.21      0.00
   -4   -8   21     -1.66      0.00
   -3   -8   21      2.68      0.00
   -2   -8   21     -1.91      0.00
   -1   -8   21     -0.91      0.00
    0   -8   21      0.06      0.00
   -6   -7   21      2.66      0.00
   -5   -7   21      0.45      0.00
   -4   -7   21      0.45      0.00
   -3   -7   21     -0.09      0.00
   -2   -7   21      0.46      0.00
   -1   -7   21     -0.42      0.00
   -6   -6   21      1.40      0.00
   -5   -6   21      0.17      0.00
   -4   -6   21     -0.81      0.00
   -3   -6   21      1.39      0.00
   -2   -6   21      0.53      0.00
   -5   -5   21      2.44      0.00
   -4   -5   21      2.41      0.00
   -3   -5   21     -1.24      0.00
    1    0    0    -89.87      0.00
  -16    1    0      0.08      0.00
   -1    1    0    -15.18      0.00
    0    1    0      8.22      0.00
    1    1    0     -4.84      0.00
   -1    2    0     18.18      0.00
   14    5    0      0.93      0.00
   13    7    0     -0.33      0.00
  -16   10    0      1.35      0.00
   10   11    0      0.04      0.00
    9   12    0      0.20      0.00
  -15   13    0     -0.03      0.00
    8   13    0     -1.04      0.00
    7   14    0     -1.63      0.00
    4   16    0     -0.16      0.00
    0   18    0     -0.07      0.00
   -5   19    0      0.87      0.00
    2  -19    1      0.09      0.00
    7  -19    1     -3.02      0.00
    8  -19    1     -0.80      0.00
   10  -18    1     -0.53      0.00
   12  -17    1     -0.44      0.00
   -5  -16    1     -0.32      0.00
   13  -16    1      0.80      0.00
   15  -13    1     -0.58      0.00
   16  -10    1     -0.19      0.00
  -12   -9    1      1.49      0.00
    0   -2    1     -3.86      0.00
    1   -2    1    -16.14      0.00
   16   -2    1      1.71      0.00
   -1   -1    1    -12.70      0.00
    0   -1    1     37.00      0.00
    1   -1    1    -15.83      0.00
  -16    0    1     -0.05      0.00
   -1    0    1    -39.61      0.00
    0    0    1    -96.18      0.00
    1    0    1      8.89      0.00
   -1    1    1    -16.15      0.00
    0    1    1    -12.39      0.00
   15    2    1      0.69      0.00
   14    4    1      0.44      0.00
   13    6    1     -0.45      0.00
   11    9    1      0.54      0.00
  -16   10    1      0.14      0.00
  -14   14    1     -0.27      0.00
    5   15    1     -0.24      0.00
  -12   16    1      0.04      0.00
  -11   17    1     -0.31      0.00
    1   17    1     -0.45      0.00
   -8   18    1      1.71      0.00
   -2   18    1     -0.47      0.00
    0  -19    2      0.79      0.00
    9  -19    2     -0.27      0.00
   11  -18    2     -1.05      0.00
   12  -17    2     -0.50      0.00
   13  -16    2     -0.35      0.00
   -7  -15    2      1.43      0.00
   14  -15    2     -0.58      0.00
   15  -13    2      0.18      0.00
  -10  -12    2      1.45      0.00
  -11  -11    2      0.43      0.00
   16  -10    2      0.33      0.00
   16   -9    2     -1.73      0.00
  -13   -8    2      0.69      0.00
  -15   -4    2     -0.67      0.00
   16   -4    2     -1.08      0.00
   16   -3    2      1.87      0.00
    0   -2    2     15.34      0.00
  -16   -1    2      0.84      0.00
   -1   -1    2    -15.28      0.00
    0   -1    2     40.34      0.00
   -1    0    2     -4.85      0.00
   15    1    2     -0.52      0.00
   12    7    2     -0.03      0.00
  -16   10    2      0.40      0.00
  -15   12    2      0.70      0.00
  -13   15    2      0.18      0.00
    4   15    2     -0.96      0.00
    2   16    2     -0.25      0.00
  -10   17    2      0.72      0.00
    0   17    2     -0.59      0.00
   -5   18    2      0.45      0.00
    2  -20    3      0.29      0.00
    3  -20    3     -0.81      0.00
    4  -20    3      0.53      0.00
    5  -20    3      0.13      0.00
    6  -20    3      0.93      0.00
    7  -20    3      0.69      0.00
   -1  -19    3      0.01      0.00
   -3  -18    3     -1.43      0.00
   11  -18    3      0.38      0.00
   -5  -17    3     -0.21      0.00
   14  -15    3      0.82      0.00
   15  -13    3     -1.32      0.00
  -12  -10    3      0.15      0.00
   16   -9    3     -1.14      0.00
   16   -8    3      0.11      0.00
  -14   -7    3     -2.05      0.00
   16   -7    3      0.90      0.00
   16   -6    3      0.16      0.00
   16   -5    3      0.98      0.00
  -16   -2    3      0.33      0.00
   15    0    3     -0.54      0.00
   12    6    3     -0.71      0.00
   10    9    3     -0.19      0.00
    9   10    3     -0.32      0.00
    8   11    3      0.29      0.00
  -15   12    3      0.37      0.00
    7   12    3      0.75      0.00
  -14   13    3     -0.85      0.00
    6   13    3      0.00      0.00
  -12   15    3     -0.10      0.00
    3   15    3     -0.13      0.00
  -11   16    3      0.94      0.00
    1   16    3     -0.75      0.00
   -8   17    3     -0.18      0.00
   -3   17    3     -0.59      0.00
   -2   17    3     -0.62      0.00
    1  -20    4     -0.08      0.00
    7  -20    4      1.20      0.00
    8  -20    4      0.09      0.00
   -2  -19    4     -0.47      0.00
   10  -19    4     -1.06      0.00
   -4  -18    4     -0.61      0.00
   -7  -16    4     -1.05      0.00
   -8  -15    4     -0.55      0.00
   14  -15    4     -0.24      0.00
   -9  -14    4      0.35      0.00
  -10  -13    4      0.35      0.00
   15  -13    4      0.54      0.00
  -11  -12    4      0.33      0.00
  -13   -9    4      0.43      0.00
  -15   -5    4     -0.13      0.00
  -16   -2    4      1.22      0.00
   15   -2    4      0.31      0.00
   14    1    4      0.20      0.00
   10    8    4      1.17      0.00
  -16    9    4     -0.08      0.00
  -15   11    4     -1.22      0.00
    5   13    4      0.31      0.00
  -13   14    4     -0.42      0.00
   -9   16    4     -0.93      0.00
   -1   16    4      0.44      0.00
    0  -20    5      0.33      0.00
    8  -20    5     -1.64      0.00
   -3  -19    5      0.40      0.00
   10  -19    5     -0.87      0.00
   -6  -17    5      0.85      0.00
   14  -15    5      0.93      0.00
   15  -12    5     -1.25      0.00
  -12  -11    5      0.34      0.00
  -16   -3    5      0.00      0.00
   15   -3    5     -1.00      0.00
   14    0    5      1.42      0.00
   11    6    5     -0.22      0.00
  -16    8    5      0.67      0.00
  -14   12    5      0.46      0.00
  -13   13    5     -0.28      0.00
    4   13    5     -1.29      0.00
  -12   14    5      1.46      0.00
    2   14    5     -0.38      0.00
  -10   15    5     -0.54      0.00
    0   15    5      0.04      0.00
   -7   16    5     -0.34      0.00
   -6   16    5      1.50      0.00
   -5   16    5      0.81      0.00
   -4   16    5      0.18      0.00
    3  -21    6      0.40      0.00
    4  -21    6     -0.69      0.00
    5  -21    6     -0.46      0.00
   -1  -20    6      0.68      0.00
   -5  -18    6     -2.04      0.00
   13  -16    6      0.50      0.00
   -9  -15    6      0.81      0.00
  -10  -14    6      1.51      0.00
   14  -14    6     -0.23      0.00
   15  -11    6     -1.10      0.00
  -13  -10    6      0.83      0.00
   15  -10    6      0.58      0.00
  -14   -8    6      1.28      0.00
  -15   -6    6      0.06      0.00
   15   -6    6     -0.50      0.00
   15   -5    6     -0.29      0.00
  -16   -3    6     -0.99      0.00
   14   -1    6      1.61      0.00
   13    1    6      0.86      0.00
   12    3    6      1.47      0.00
   11    5    6      0.26      0.00
  -16    8    6      0.15      0.00
  -15   10    6     -0.56      0.00
    4   12    6      0.55      0.00
  -11   14    6     -0.73      0.00
   -9   15    6      0.26      0.00
   -8   15    6      0.09      0.00
   -3   15    6      0.67      0.00
   -2   15    6     -0.20      0.00
    1  -21    7     -0.01      0.00
    2  -21    7     -0.17      0.00
    3  -21    7      0.25      0.00
    4  -21    7     -1.53      0.00
    5  -21    7      0.30      0.00
    6  -21    7     -0.10      0.00
   -2  -20    7      0.31      0.00
    9  -20    7      0.95      0.00
   -4  -19    7     -1.34      0.00
   -7  -17    7      0.18      0.00
   -8  -16    7     -0.05      0.00
   13  -16    7     -0.70      0.00
  -10  -14    7      0.08      0.00
   14  -14    7     -0.07      0.00
  -11  -13    7      0.29      0.00
  -13  -10    7      0.14      0.00
  -15   -6    7     -1.18      0.00
  -16   -3    7     -0.87      0.00
   14   -3    7      0.85      0.00
   13    0    7      2.17      0.00
   12    2    7      0.28      0.00
   11    4    7      0.38      0.00
  -16    7    7      0.43      0.00
  -15    9    7      0.24      0.00
  -13   12    7     -0.72      0.00
    3   12    7      0.57      0.00
    1   13    7      0.54      0.00
   -9   14    7      0.86      0.00
   -2   14    7     -0.35      0.00
    1  -21    8     -0.66      0.00
    6  -21    8      0.34      0.00
    9  -20    8      0.15      0.00
   10  -19    8     -0.60      0.00
   -6  -18    8     -1.02      0.00
   12  -17    8     -0.37      0.00
   14  -13    8     -0.81      0.00
  -12  -12    8      0.14      0.00
   14  -12    8     -0.54      0.00
  -15   -6    8     -0.65      0.00
   14   -5    8     -1.88      0.00
  -16   -3    8      0.57      0.00
   12    1    8      0.06      0.00
  -16    6    8      0.02      0.00
  -15    8    8     -0.73      0.00
    7    8    8      1.56      0.00
  -14   10    8     -0.59      0.00
  -13   11    8     -0.05      0.00
    3   11    8      0.42      0.00
  -12   12    8     -0.23      0.00
  -10   13    8      0.75      0.00
   -1   13    8     -1.13      0.00
   -6   14    8      0.17      0.00
    0  -21    9     -0.03      0.00
    6  -21    9      0.56      0.00
   -3  -20    9     -0.83      0.00
    9  -20    9      0.21      0.00
   10  -19    9      1.29      0.00
   -6  -18    9      0.25      0.00
   11  -18    9     -0.93      0.00
   12  -17    9     -0.31      0.00
   13  -15    9     -0.23      0.00
  -12  -12    9     -0.29      0.00
   14  -11    9      0.44      0.00
   14  -10    9      1.52      0.00
   14   -9    9      0.66      0.00
   14   -8    9     -0.44      0.00
  -15   -6    9      0.53      0.00
  -16   -3    9     -0.23      0.00
   13   -3    9      0.27      0.00
  -16   -2    9      0.16      0.00
   10    3    9     -0.26      0.00
  -16    4    9      1.66      0.00
  -15    7    9     -0.31      0.00
    7    7    9     -0.26      0.00
    6    8    9      0.45      0.00
  -14    9    9      0.04      0.00
  -13   10    9      0.39      0.00
  -12   11    9      0.84      0.00
  -10   12    9     -0.20      0.00
   -7   13    9     -0.51      0.00
   -6   13    9     -0.46      0.00
   -5   13    9      0.10      0.00
   -4   13    9     -0.71      0.00
    0  -21   10      1.05      0.00
    6  -21   10     -0.43      0.00
   -3  -20   10      0.02      0.00
   -5  -19   10     -0.51      0.00
   10  -19   10     -0.44      0.00
   12  -16   10      0.30      0.00
   13  -14   10      0.67      0.00
   13  -13   10      0.06      0.00
  -12  -12   10      0.45      0.00
  -15   -6   10      0.09      0.00
   13   -6   10     -0.49      0.00
   13   -5   10      0.91      0.00
  -16   -2   10      0.04      0.00
   12   -2   10     -1.07      0.00
  -16   -1   10     -0.52      0.00
  -16    0   10     -0.37      0.00
   11    0   10      0.58      0.00
  -16    1   10     -0.26      0.00
  -16    2   10     -0.09      0.00
   10    2   10     -0.27      0.00
  -16    3   10     -0.08      0.00
  -15    6   10     -0.20      0.00
  -14    8   10      0.24      0.00
  -13    9   10      0.11      0.00
  -12   10   10     -0.04      0.00
    2   10   10      0.18      0.00
    0   11   10     -0.01      0.00
   -8   12   10      0.27      0.00
   -7   12   10     -0.48      0.00
   -6   12   10      0.46      0.00
   -5   12   10     -0.76      0.00
   -4   12   10     -1.66      0.00
   -3   12   10      0.62      0.00
   -1  -21   11      0.21      0.00
    0  -21   11      0.00      0.00
    6  -21   11     -1.17      0.00
   -3  -20   11      0.37      0.00
    8  -20   11     -0.17      0.00
   -5  -19   11      0.08      0.00
   11  -17   11     -0.65      0.00
   -9  -16   11      0.09      0.00
   12  -15   11      0.17      0.00
  -12  -12   11     -0.80      0.00
   13  -11   11      0.28      0.00
   13  -10   11     -1.16      0.00
   13   -9   11     -1.19      0.00
  -15   -6   11     -0.88      0.00
   12   -4   11      0.61      0.00
    9    2   11      0.89      0.00
  -15    5   11     -0.39      0.00
  -14    7   11     -0.79      0.00
  -13    8   11     -0.43      0.00
  -12    9   11      0.24      0.00
    2    9   11      0.38      0.00
    0   10   11      1.61      0.00
   -8   11   11      0.55      0.00
   -7   11   11     -0.65      0.00
   -4   11   11     -0.80      0.00
   -3   11   11     -0.47      0.00
   -1  -21   12      0.06      0.00
    0  -21   12     -0.69      0.00
    5  -21   12     -0.13      0.00
    6  -21   12     -0.10      0.00
   -3  -20   12     -0.60      0.00
    8  -20   12      0.33      0.00
   -5  -19   12     -0.43      0.00
    9  -19   12      0.26      0.00
   10  -18   12      0.47      0.00
   -8  -17   12      0.86      0.00
   -9  -16   12     -0.59      0.00
   11  -16   12     -1.26      0.00
   12  -14   12      1.51      0.00
   12  -13   12     -0.03      0.00
  -12  -12   12      0.38      0.00
  -14   -8   12     -0.60      0.00
   12   -7   12      0.75      0.00
  -15   -5   12      0.61      0.00
   10   -1   12      0.42      0.00
    8    2   12     -0.70      0.00
  -15    3   12     -0.06      0.00
  -13    7   12     -1.11      0.00
    3    7   12      1.28      0.00
  -12    8   12     -0.35      0.00
    0    9   12     -1.14      0.00
   -8   10   12      0.00      0.00
   -7   10   12     -0.39      0.00
   -4   10   12     -0.14      0.00
   -3   10   12     -1.17      0.00
    0  -21   13     -0.58      0.00
    4  -21   13      0.29      0.00
    5  -21   13     -0.08      0.00
   -3  -20   13     -0.43      0.00
    7  -20   13      0.64      0.00
   -5  -19   13      0.12      0.00
   10  -17   13      1.39      0.00
   -9  -16   13      0.36      0.00
   11  -15   13     -0.18      0.00
  -12  -12   13      0.44      0.00
  -13  -10   13     -0.90      0.00
  -14   -8   13     -0.83      0.00
   11   -6   13      0.87      0.00
  -15   -4   13      0.00      0.00
  -15   -3   13      0.17      0.00
   10   -3   13      1.69      0.00
  -15   -2   13     -0.64      0.00
  -15   -1   13      0.95      0.00
    9   -1   13     -0.46      0.00
  -15    0   13      1.13      0.00
  -15    1   13     -0.66      0.00
    7    2   13     -0.28      0.00
    6    3   13     -0.47      0.00
  -14    4   13     -0.31      0.00
    4    5   13     -0.15      0.00
    3    6   13     -1.42      0.00
  -10    8   13     -1.00      0.00
   -8    9   13      0.96      0.00
   -7    9   13      0.10      0.00
   -6    9   13      0.93      0.00
   -5    9   13      0.13      0.00
   -4    9   13     -0.89      0.00
   -3    9   13     -1.39      0.00
    0  -21   14     -0.01      0.00
    1  -21   14      0.03      0.00
    2  -21   14      0.94      0.00
    3  -21   14      0.46      0.00
    4  -21   14      0.11      0.00
   -3  -20   14     -0.46      0.00
    6  -20   14      0.88      0.00
   -5  -19   14      0.56      0.00
    8  -19   14     -0.58      0.00
   10  -16   14     -0.36      0.00
  -11  -13   14      1.17      0.00
   11  -12   14     -0.33      0.00
   11  -11   14     -0.58      0.00
   11  -10   14     -0.29      0.00
  -14   -7   14      0.44      0.00
   10   -5   14      1.34      0.00
    9   -3   14     -0.07      0.00
    8   -1   14      0.51      0.00
  -14    2   14     -0.15      0.00
    5    3   14     -1.02      0.00
  -13    4   14      0.46      0.00
    4    4   14     -0.09      0.00
    1    6   14     -0.74      0.00
  -10    7   14     -0.91      0.00
   -1    7   14      0.09      0.00
   -7    8   14      0.68      0.00
   -6    8   14      0.55      0.00
   -5    8   14     -0.47      0.00
   -4    8   14     -0.66      0.00
   -2  -20   15      1.00      0.00
    5  -20   15      0.06      0.00
    7  -19   15     -1.18      0.00
   -6  -18   15      0.83      0.00
    8  -18   15      0.55      0.00
    9  -16   15      0.25      0.00
  -10  -14   15      0.56      0.00
   10  -14   15      0.24      0.00
  -11  -13   15      0.78      0.00
   10  -13   15     -0.53      0.00
   10  -12   15     -0.90      0.00
  -12  -11   15     -0.19      0.00
   10  -11   15     -0.21      0.00
   10  -10   15      0.65      0.00
  -13   -9   15      1.69      0.00
   10   -9   15      0.70      0.00
  -14   -5   15     -0.96      0.00
    9   -5   15     -0.35      0.00
  -14   -4   15      1.29      0.00
  -14   -3   15      0.06      0.00
    8   -3   15     -1.19      0.00
  -14   -2   15     -1.21      0.00
  -14   -1   15      0.29      0.00
    7   -1   15     -0.13      0.00
    6    0   15      0.32      0.00
  -13    2   15     -0.62      0.00
  -12    4   15     -0.82      0.00
    2    4   15      0.65      0.00
  -11    5   15     -0.38      0.00
   -9    6   15      0.40      0.00
   -2    6   15      0.24      0.00
   -2  -20   16     -0.03      0.00
   -1  -20   16     -0.08      0.00
    3  -20   16     -0.67      0.00
    4  -20   16     -0.84      0.00
   -4  -19   16      0.41      0.00
    6  -19   16     -0.60      0.00
    7  -18   16      1.25      0.00
   -7  -17   16      0.46      0.00
   -8  -16   16      0.71      0.00
   -9  -15   16     -0.21      0.00
    9  -14   16      0.48      0.00
    9  -13   16      0.41      0.00
  -11  -12   16     -0.62      0.00
  -12  -10   16     -0.19      0.00
    9  -10   16      1.02      0.00
    9   -9   16     -1.73      0.00
  -13   -8   16     -0.40      0.00
    9   -8   16      0.29      0.00
  -13   -7   16      0.62      0.00
    8   -5   16     -0.11      0.00
    7   -3   16      1.24      0.00
  -13    0   16     -0.91      0.00
    5    0   16      0.35      0.00
    4    1   16      0.07      0.00
  -12    2   16     -0.18      0.00
    3    2   16      1.51      0.00
  -11    3   16      0.72      0.00
  -10    4   16      0.11      0.00
    0    4   16      0.41      0.00
   -8    5   16     -0.93      0.00
   -3    5   16     -0.17      0.00
   -2    5   16     -0.96      0.00
    0  -20   17     -1.22      0.00
    1  -20   17     -0.14      0.00
    2  -20   17     -0.72      0.00
   -3  -19   17     -0.62      0.00
    4  -19   17      0.08      0.00
   -5  -18   17     -0.84      0.00
    6  -18   17     -0.53      0.00
    7  -16   17     -0.65      0.00
    8  -14   17      0.04      0.00
  -10  -13   17     -0.52      0.00
    8  -13   17      1.55      0.00
  -11  -11   17     -0.13      0.00
    8  -10   17     -0.45      0.00
  -12   -9   17      0.61      0.00
    8   -9   17     -0.13      0.00
    7   -6   17     -0.34      0.00
    6   -4   17      1.18      0.00
    5   -2   17      1.93      0.00
    4   -1   17      1.08      0.00
  -12    0   17      0.52      0.00
    3    0   17     -0.42      0.00
  -11    1   17      0.64      0.00
    2    1   17      0.57      0.00
    1    2   17      0.35      0.00
   -9    3   17      0.10      0.00
   -1    3   17     -0.47      0.00
   -7    4   17      0.55      0.00
   -6    4   17      0.11      0.00
   -5    4   17      0.12      0.00
   -4    4   17      0.61      0.00
   -2  -19   18     -0.88      0.00
   -1  -19   18     -0.28      0.00
    0  -19   18      0.15      0.00
    1  -19   18     -0.68      0.00
    2  -19   18     -0.61      0.00
    3  -19   18      0.15      0.00
   -4  -18   18      1.33      0.00
    4  -18   18      0.04      0.00
    5  -17   18     -0.57      0.00
   -7  -16   18     -0.17      0.00
    6  -16   18     -0.27      0.00
   -8  -15   18     -0.71      0.00
    7  -14   18      0.40      0.00
    7  -13   18     -0.36      0.00
  -10  -12   18      0.09      0.00
    7  -12   18      0.40      0.00
    7  -11   18      0.78      0.00
  -11  -10   18      0.57      0.00
    7  -10   18      0.78      0.00
    7   -9   18     -0.17      0.00
  -12   -6   18     -0.29      0.00
    6   -6   18     -1.12      0.00
  -12   -5   18      0.58      0.00
  -12   -4   18     -1.00      0.00
    4   -3   18      1.02      0.00
    3   -2   18     -0.50      0.00
  -11   -1   18     -0.01      0.00
    2   -1   18      0.37      0.00
  -10    0   18     -0.46      0.00
    1    0   18      0.14      0.00
   -9    1   18     -0.64      0.00
    0    1   18      0.40      0.00
   -8    2   18      0.13      0.00
   -7    2   18     -1.09      0.00
   -3    2   18     -0.20      0.00
   -2    2   18      0.57      0.00
   -3  -18   19      0.31      0.00
   -2  -18   19      0.54      0.00
   -1  -18   19      0.78      0.00
    1  -18   19     -0.20      0.00
    2  -18   19      0.31      0.00
   -4  -17   19     -0.12      0.00
    4  -17   19     -0.17      0.00
   -6  -16   19     -1.45      0.00
   -7  -15   19     -0.86      0.00
    5  -15   19     -0.53      0.00
   -8  -14   19     -0.23      0.00
   -9  -12   19      0.03      0.00
    6  -12   19     -0.87      0.00
    6  -11   19      2.95      0.00
  -10  -10   19      0.39      0.00
    5   -8   19     -0.41      0.00
  -11   -7   19     -0.29      0.00
    5   -7   19      0.89      0.00
  -11   -6   19      0.61      0.00
  -11   -5   19      1.09      0.00
    3   -4   19      0.51      0.00
  -10   -3   19     -0.44      0.00
    2   -3   19     -0.20      0.00
  -10   -2   19      1.62      0.00
    1   -2   19     -0.04      0.00
   -9   -1   19     -1.06      0.00
    0   -1   19      0.62      0.00
   -8    0   19      0.54      0.00
   -7    0   19     -0.89      0.00
   -2    0   19      0.42      0.00
   -2  -17   20      0.20      0.00
   -1  -17   20     -0.43      0.00
    0  -17   20      0.18      0.00
    1  -17   20     -1.01      0.00
   -4  -16   20     -1.09      0.00
    2  -16   20      1.24      0.00
    3  -16   20     -0.89      0.00
   -6  -15   20     -0.91      0.00
    3  -15   20     -0.63      0.00
   -7  -14   20      0.29      0.00
    4  -14   20     -0.69      0.00
    4  -13   20     -0.52      0.00
   -8  -12   20      0.71      0.00
    4  -12   20      0.27      0.00
    4  -11   20      0.12      0.00
   -9  -10   20      0.27      0.00
    4  -10   20      0.27      0.00
   -9   -9   20      0.32      0.00
    4   -9   20     -0.67      0.00
    3   -7   20      1.16      0.00
   -9   -5   20      1.04      0.00
    2   -5   20     -1.06      0.00
   -9   -4   20      0.32      0.00
    1   -4   20     -0.25      0.00
   -8   -3   20     -1.02      0.00
   -1   -3   20      0.38      0.00
    0   -3   20      0.27      0.00
   -7   -2   20     -0.07      0.00
   -6   -2   20     -1.34      0.00
   -3   -2   20     -1.10      0.00
   -2   -2   20      0.03      0.00
   -3  -15   21     -0.28      0.00
   -2  -15   21     -0.25      0.00
   -1  -15   21     -0.64      0.00
    0  -15   21     -0.39      0.00
    1  -15   21     -0.92      0.00
   -5  -14   21      0.27      0.00
   -4  -14   21      0.00      0.00
    1  -14   21      0.09      0.00
   -6  -13   21     -1.03      0.00
    2  -13   21      0.51      0.00
   -6  -12   21      1.17      0.00
    2  -12   21      0.42      0.00
   -7  -11   21      0.22      0.00
    2  -11   21     -0.09      0.00
   -7  -10   21      1.04      0.00
    2  -10   21     -0.61      0.00
   -8   -9   21      0.35      0.00
    2   -9   21     -1.29      0.00
   -8   -8   21     -0.43      0.00
    1   -8   21     -0.60      0.00
   -7   -7   21      0.55      0.00
    0   -7   21     -0.55      0.00
   -7   -6   21     -0.44      0.00
   -1   -6   21     -0.39      0.00
    0   -6   21     -0.45      0.00
   -7   -5   21     -0.09      0.00
   -6   -5   21      0.15      0.00
   -2   -5   21     -0.06      0.00
   -1   -5   21     -0.53      0.00
   -5   -4   21     -0.52      0.00
   -4   -4   21     -0.73      0.00
   -3   -4   21      1.53      0.00
    0    0    0      0.00      0.00
;
_shelx_fab_checksum              71111
loop_
_space_group_symop_operation_xyz
'x, y, z'
'-x, -y, -z'
loop_
_atom_site_label
_atom_site_type_symbol
_atom_site_fract_x
_atom_site_fract_y
_atom_site_fract_z
_atom_site_U_iso_or_equiv
_atom_site_adp_type
_atom_site_occupancy
_atom_site_site_symmetry_order
_atom_site_calc_flag
_atom_site_refinement_flags_posn
_atom_site_refinement_flags_adp
_atom_site_refinement_flags_occupancy
Fe1 Fe 0.95238(4) 0.90666(3) 0.76382(3) 0.02325(13) Uani 1 1 d . . .
Fe2 Fe 1.0000 1.0000 1.0000 0.02250(15) Uani 1 2 d S . P
O1 O 0.8557(2) 0.76652(14) 0.74657(15) 0.0358(6) Uani 1 1 d . . .
O2 O 0.98841(16) 0.87546(12) 0.86588(13) 0.0229(4) Uani 1 1 d . . .
O3 O 0.9648(2) 0.18597(16) 0.33587(15) 0.0429(6) Uani 1 1 d . . .
O4 O 1.1026(2) 0.14415(16) 0.37397(15) 0.0395(6) Uani 1 1 d . . .
O5 O 0.9226(2) 0.97608(15) 1.17434(16) 0.0424(6) Uani 1 1 d . . .
O6 O 0.89966(17) 0.91485(13) 1.02491(14) 0.0291(5) Uani 1 1 d . . .
O7 O 0.1585(2) 1.02434(15) 1.21044(15) 0.0392(6) Uani 1 1 d . . .
O8 O 0.13667(17) 0.97962(14) 1.06326(14) 0.0287(5) Uani 1 1 d . . .
C1 C 0.9236(3) 0.79240(19) 0.8194(2) 0.0247(6) Uani 1 1 d . . .
C2 C 0.9356(2) 0.72717(18) 0.85194(19) 0.0220(6) Uani 1 1 d . . .
C3 C 0.8574(3) 0.64241(19) 0.8150(2) 0.0262(7) Uani 1 1 d . . .
H3 H 0.7954 0.6246 0.7674 0.031 Uiso 1 1 calc R U .
C4 C 0.8706(2) 0.58424(19) 0.8482(2) 0.0248(6) Uani 1 1 d . . .
H4 H 0.8167 0.5272 0.8241 0.030 Uiso 1 1 calc R U .
C5 C 0.9617(2) 0.60870(18) 0.91606(19) 0.0204(6) Uani 1 1 d . . .
C6 C 1.0404(3) 0.69123(19) 0.9491(2) 0.0259(7) Uani 1 1 d . . .
H6 H 1.1049 0.7070 0.9934 0.031 Uiso 1 1 calc R U .
C7 C 1.0262(2) 0.75110(19) 0.9183(2) 0.0248(6) Uani 1 1 d . . .
H7 H 1.0796 0.8088 0.9433 0.030 Uiso 1 1 calc R U .
C8 C 0.9786(2) 0.55048(17) 0.95718(18) 0.0184(6) Uani 1 1 d . . .
C9 C 0.9963(2) 0.46444(17) 0.90726(19) 0.0181(6) Uani 1 1 d . . .
C10 C 0.9970(2) 0.42647(19) 0.8150(2) 0.0244(6) Uani 1 1 d . . .
H10 H 0.9818 0.4597 0.7858 0.029 Uiso 1 1 calc R U .
C11 C 1.0185(3) 0.3438(2) 0.7667(2) 0.0275(7) Uani 1 1 d . . .
C12 C 1.0409(3) 0.2942(2) 0.8113(2) 0.0300(7) Uani 1 1 d . . .
H12 H 1.0563 0.2369 0.7787 0.036 Uiso 1 1 calc R U .
C13 C 1.0406(2) 0.32692(19) 0.8986(2) 0.0255(7) Uani 1 1 d . . .
H13 H 1.0556 0.2919 0.9259 0.031 Uiso 1 1 calc R U .
C14 C 1.0184(2) 0.41289(18) 0.95099(19) 0.0193(6) Uani 1 1 d . . .
C15 C 1.0236(3) 0.3068(2) 0.6723(2) 0.0319(7) Uani 1 1 d . . .
C16 C 0.9518(3) 0.3128(2) 0.6087(2) 0.0403(9) Uani 1 1 d . . .
H16 H 0.8993 0.3428 0.6268 0.048 Uiso 1 1 calc R U .
C17 C 0.9555(3) 0.2758(2) 0.5201(2) 0.0435(9) Uani 1 1 d . . .
H17 H 0.9059 0.2807 0.4777 0.052 Uiso 1 1 calc R U .
C18 C 1.0316(3) 0.2313(2) 0.4924(2) 0.0355(8) Uani 1 1 d . . .
C19 C 1.1045(3) 0.2274(2) 0.5556(2) 0.0396(8) Uani 1 1 d . . .
H19 H 1.1584 0.1992 0.5381 0.048 Uiso 1 1 calc R U .
C20 C 1.1000(3) 0.2638(2) 0.6437(2) 0.0367(8) Uani 1 1 d . . .
H20 H 1.1503 0.2594 0.6861 0.044 Uiso 1 1 calc R U .
C21 C 1.0324(3) 0.1852(2) 0.3950(2) 0.0356(8) Uani 1 1 d . . .
C22 C 0.8811(3) 0.91319(19) 1.0919(2) 0.0271(7) Uani 1 1 d . . .
C23 C 0.7995(2) 0.82789(19) 1.0725(2) 0.0246(6) Uani 1 1 d . . .
C24 C 0.7782(3) 0.8193(2) 1.1437(2) 0.0307(7) Uani 1 1 d . . .
H24 H 0.8137 0.8681 1.2053 0.037 Uiso 1 1 calc R U .
C25 C 0.7046(3) 0.7386(2) 1.1244(2) 0.0317(7) Uani 1 1 d . . .
H25 H 0.6904 0.7327 1.1732 0.038 Uiso 1 1 calc R U .
C26 C 0.6523(2) 0.66737(19) 1.0354(2) 0.0266(7) Uani 1 1 d . . .
C27 C 0.6737(3) 0.6767(2) 0.9653(2) 0.0352(8) Uani 1 1 d . . .
H27 H 0.6383 0.6277 0.9039 0.042 Uiso 1 1 calc R U .
C28 C 0.7462(3) 0.7566(2) 0.9832(2) 0.0336(8) Uani 1 1 d . . .
H28 H 0.7593 0.7624 0.9340 0.040 Uiso 1 1 calc R U .
C29 C 0.5733(2) 0.5808(2) 1.0160(2) 0.0295(7) Uani 1 1 d . . .
C30 C 0.4744(2) 0.58509(19) 1.0302(2) 0.0284(7) Uani 1 1 d . . .
C31 C 0.4423(2) 0.6672(2) 1.0572(2) 0.0307(7) Uani 1 1 d . . .
H31 H 0.4901 0.7211 1.0660 0.037 Uiso 1 1 calc R U .
C32 C 0.3461(3) 0.6720(2) 1.0710(2) 0.0306(7) Uani 1 1 d . . .
C33 C 0.2742(3) 0.5910(2) 1.0576(2) 0.0344(8) Uani 1 1 d . . .
H33 H 0.2075 0.5940 1.0688 0.041 Uiso 1 1 calc R U .
C34 C 0.2992(2) 0.5101(2) 1.0292(2) 0.0325(8) Uani 1 1 d . . .
H34 H 0.2488 0.4568 1.0190 0.039 Uiso 1 1 calc R U .
C35 C 0.3999(2) 0.50287(19) 1.0143(2) 0.0292(7) Uani 1 1 d . . .
C36 C 0.3117(2) 0.75700(19) 1.0947(2) 0.0290(7) Uani 1 1 d . . .
C37 C 0.2549(3) 0.7871(2) 1.1575(2) 0.0299(7) Uani 1 1 d . . .
H37 H 0.2430 0.7563 1.1899 0.036 Uiso 1 1 calc R U .
C38 C 0.2157(3) 0.8612(2) 1.1733(2) 0.0321(7) Uani 1 1 d . . .
H38 H 0.1798 0.8827 1.2184 0.039 Uiso 1 1 calc R U .
C39 C 0.2280(2) 0.90500(19) 1.1243(2) 0.0270(7) Uani 1 1 d . . .
C40 C 0.2862(3) 0.8760(2) 1.0623(2) 0.0320(7) Uani 1 1 d . . .
H40 H 0.2963 0.9058 1.0288 0.038 Uiso 1 1 calc R U .
C41 C 0.3296(3) 0.8042(2) 1.0490(2) 0.0325(7) Uani 1 1 d . . .
H41 H 0.3719 0.7869 1.0085 0.039 Uiso 1 1 calc R U .
C42 C 0.1702(3) 0.97546(19) 1.1329(2) 0.0275(7) Uani 1 1 d . . .
loop_
_atom_site_aniso_label
_atom_site_aniso_U_11
_atom_site_aniso_U_22
_atom_site_aniso_U_33
_atom_site_aniso_U_23
_atom_site_aniso_U_13
_atom_site_aniso_U_12
Fe1 0.0375(3) 0.0160(2) 0.0214(2) 0.01096(17) 0.01255(19) 0.01228(18)
Fe2 0.0306(3) 0.0167(3) 0.0260(3) 0.0129(3) 0.0136(3) 0.0099(2)
O1 0.0554(15) 0.0234(11) 0.0307(12) 0.0175(10) 0.0056(11) 0.0129(11)
O2 0.0355(12) 0.0168(9) 0.0242(10) 0.0136(9) 0.0140(9) 0.0116(9)
O3 0.0576(17) 0.0458(14) 0.0287(13) 0.0176(11) 0.0178(12) 0.0240(13)
O4 0.0623(17) 0.0400(13) 0.0285(12) 0.0187(11) 0.0245(12) 0.0294(13)
O5 0.0575(16) 0.0265(12) 0.0403(14) 0.0187(11) 0.0184(12) -0.0014(11)
O6 0.0383(13) 0.0190(10) 0.0368(12) 0.0163(10) 0.0218(10) 0.0081(9)
O7 0.0633(17) 0.0362(12) 0.0294(12) 0.0169(11) 0.0194(12) 0.0355(12)
O8 0.0363(13) 0.0281(11) 0.0324(12) 0.0195(10) 0.0145(10) 0.0178(10)
C1 0.0363(18) 0.0208(14) 0.0242(15) 0.0132(13) 0.0146(14) 0.0145(13)
C2 0.0344(17) 0.0150(13) 0.0206(14) 0.0100(12) 0.0116(13) 0.0112(12)
C3 0.0330(17) 0.0224(14) 0.0271(16) 0.0156(13) 0.0068(14) 0.0113(13)
C4 0.0324(17) 0.0183(13) 0.0250(15) 0.0119(12) 0.0095(13) 0.0074(13)
C5 0.0325(16) 0.0171(13) 0.0227(14) 0.0131(12) 0.0169(13) 0.0157(12)
C6 0.0300(17) 0.0204(14) 0.0294(16) 0.0151(13) 0.0065(13) 0.0084(13)
C7 0.0331(17) 0.0165(13) 0.0271(16) 0.0127(12) 0.0091(13) 0.0079(12)
C8 0.0226(14) 0.0153(12) 0.0235(14) 0.0131(12) 0.0104(12) 0.0074(11)
C9 0.0210(15) 0.0175(13) 0.0234(14) 0.0130(12) 0.0128(12) 0.0093(11)
C10 0.0326(17) 0.0235(14) 0.0257(15) 0.0161(13) 0.0137(13) 0.0131(13)
C11 0.0395(19) 0.0254(15) 0.0255(16) 0.0144(13) 0.0167(14) 0.0171(14)
C12 0.047(2) 0.0227(15) 0.0287(16) 0.0140(13) 0.0189(15) 0.0215(14)
C13 0.0361(18) 0.0206(14) 0.0286(16) 0.0155(13) 0.0148(14) 0.0148(13)
C14 0.0233(15) 0.0154(12) 0.0256(15) 0.0128(12) 0.0124(12) 0.0090(11)
C15 0.051(2) 0.0271(15) 0.0258(16) 0.0149(14) 0.0187(15) 0.0189(15)
C16 0.058(2) 0.0450(19) 0.0308(18) 0.0202(16) 0.0225(17) 0.0345(18)
C17 0.063(3) 0.049(2) 0.0316(18) 0.0232(17) 0.0215(18) 0.034(2)
C18 0.054(2) 0.0315(17) 0.0264(17) 0.0144(14) 0.0201(16) 0.0198(16)
C19 0.054(2) 0.0421(19) 0.0323(18) 0.0181(16) 0.0237(17) 0.0291(18)
C20 0.051(2) 0.0407(18) 0.0283(17) 0.0186(15) 0.0185(16) 0.0274(17)
C21 0.054(2) 0.0280(16) 0.0282(17) 0.0136(14) 0.0193(17) 0.0162(16)
C22 0.0322(17) 0.0181(14) 0.0386(19) 0.0173(14) 0.0168(15) 0.0112(13)
C23 0.0265(16) 0.0186(14) 0.0404(18) 0.0193(14) 0.0194(14) 0.0116(12)
C24 0.0325(18) 0.0236(15) 0.0372(18) 0.0185(14) 0.0078(15) 0.0056(13)
C25 0.0339(18) 0.0308(16) 0.048(2) 0.0296(16) 0.0199(16) 0.0127(14)
C26 0.0248(16) 0.0178(14) 0.0465(19) 0.0190(14) 0.0184(15) 0.0125(12)
C27 0.041(2) 0.0184(14) 0.042(2) 0.0116(14) 0.0190(16) 0.0059(14)
C28 0.044(2) 0.0217(15) 0.0391(19) 0.0150(14) 0.0242(16) 0.0098(14)
C29 0.0246(16) 0.0213(14) 0.051(2) 0.0222(15) 0.0173(15) 0.0111(13)
C30 0.0241(16) 0.0199(14) 0.051(2) 0.0220(15) 0.0178(15) 0.0119(12)
C31 0.0252(16) 0.0201(14) 0.055(2) 0.0227(15) 0.0166(15) 0.0102(13)
C32 0.0306(17) 0.0206(14) 0.049(2) 0.0210(15) 0.0155(15) 0.0135(13)
C33 0.0263(17) 0.0260(16) 0.061(2) 0.0255(16) 0.0209(16) 0.0144(14)
C34 0.0248(16) 0.0235(15) 0.057(2) 0.0229(16) 0.0202(16) 0.0112(13)
C35 0.0261(16) 0.0199(14) 0.052(2) 0.0215(15) 0.0201(15) 0.0129(13)
C36 0.0259(16) 0.0204(14) 0.0423(19) 0.0158(14) 0.0111(14) 0.0113(13)
C37 0.0373(19) 0.0268(15) 0.0359(18) 0.0204(14) 0.0136(15) 0.0182(14)
C38 0.043(2) 0.0297(16) 0.0332(17) 0.0181(14) 0.0185(15) 0.0216(15)
C39 0.0295(17) 0.0200(14) 0.0297(16) 0.0111(13) 0.0075(14) 0.0107(13)
C40 0.0351(18) 0.0237(15) 0.045(2) 0.0201(15) 0.0169(16) 0.0134(14)
C41 0.0302(17) 0.0235(15) 0.051(2) 0.0201(15) 0.0208(16) 0.0150(14)
C42 0.0322(17) 0.0211(14) 0.0337(18) 0.0146(14) 0.0121(14) 0.0150(13)
loop_
_atom_type_symbol
_atom_type_description
_atom_type_scat_dispersion_real
_atom_type_scat_dispersion_imag
_atom_type_scat_source
Fe Fe 0.3463 0.8444 'International Tables Vol C Tables 4.2.6.8 and 6.1.1.4'
O O 0.0106 0.0060 'International Tables Vol C Tables 4.2.6.8 and 6.1.1.4'
N N 0.0061 0.0033 'International Tables Vol C Tables 4.2.6.8 and 6.1.1.4'
C C 0.0033 0.0016 'International Tables Vol C Tables 4.2.6.8 and 6.1.1.4'
H H 0.0000 0.0000 'International Tables Vol C Tables 4.2.6.8 and 6.1.1.4'
Cl Cl 0.1484 0.1585 'International Tables Vol C Tables 4.2.6.8 and 6.1.1.4'
loop_
_geom_angle_atom_site_label_1
_geom_angle_atom_site_label_2
_geom_angle_atom_site_label_3
_geom_angle
_geom_angle_site_symmetry_1
_geom_angle_site_symmetry_3
O5 Fe1 O7 94.98(10) 2_777 2_677
O5 Fe1 O4 110.64(10) 2_777 2_766
O7 Fe1 O4 91.45(9) 2_677 2_766
O5 Fe1 O2 95.14(9) 2_777 .
O7 Fe1 O2 107.04(8) 2_677 .
O4 Fe1 O2 146.93(8) 2_766 .
O5 Fe1 O3 94.09(10) 2_777 2_766
O7 Fe1 O3 151.26(9) 2_677 2_766
O4 Fe1 O3 59.86(9) 2_766 2_766
O2 Fe1 O3 99.21(8) . 2_766
O5 Fe1 O1 153.19(9) 2_777 .
O7 Fe1 O1 98.13(9) 2_677 .
O4 Fe1 O1 92.35(9) 2_766 .
O2 Fe1 O1 58.65(7) . .
O3 Fe1 O1 85.51(9) 2_766 .
O6 Fe2 O6 180.00(10) . 2_777
O6 Fe2 O8 88.27(8) . 2_677
O6 Fe2 O8 91.73(8) 2_777 2_677
O6 Fe2 O8 91.73(8) . 1_655
O6 Fe2 O8 88.27(8) 2_777 1_655
O8 Fe2 O8 180.0 2_677 1_655
O6 Fe2 O2 90.31(7) . 2_777
O6 Fe2 O2 89.69(7) 2_777 2_777
O8 Fe2 O2 89.46(8) 2_677 2_777
O8 Fe2 O2 90.54(8) 1_655 2_777
O6 Fe2 O2 89.68(7) . .
O6 Fe2 O2 90.31(7) 2_777 .
O8 Fe2 O2 90.55(8) 2_677 .
O8 Fe2 O2 89.45(8) 1_655 .
O2 Fe2 O2 180.0 2_777 .
C1 O1 Fe1 84.39(17) . .
C1 O2 Fe1 95.65(16) . .
C1 O2 Fe2 131.41(18) . .
Fe1 O2 Fe2 108.52(8) . .
C21 O3 Fe1 83.6(2) . 2_766
C21 O4 Fe1 95.2(2) . 2_766
C22 O5 Fe1 131.2(2) . 2_777
C22 O6 Fe2 138.4(2) . .
C42 O7 Fe1 125.6(2) . 2_677
C42 O8 Fe2 138.1(2) . 1_455
O1 C1 O2 120.1(2) . .
O1 C1 C2 121.5(3) . .
O2 C1 C2 118.4(3) . .
C7 C2 C3 120.0(2) . .
C7 C2 C1 118.6(3) . .
C3 C2 C1 121.3(3) . .
C4 C3 C2 119.6(3) . .
C5 C4 C3 120.5(3) . .
C4 C5 C6 119.0(2) . .
C4 C5 C8 122.9(2) . .
C6 C5 C8 118.1(3) . .
C5 C6 C7 120.8(3) . .
C2 C7 C6 120.0(3) . .
C9 C8 C14 120.6(2) . 2_767
C9 C8 C5 121.1(2) . .
C14 C8 C5 118.2(2) 2_767 .
C8 C9 C10 122.2(2) . .
C8 C9 C14 119.4(2) . .
C10 C9 C14 118.4(2) . .
C11 C10 C9 122.5(3) . .
C10 C11 C12 118.3(3) . .
C10 C11 C15 122.3(3) . .
C12 C11 C15 119.4(3) . .
C13 C12 C11 121.5(3) . .
C12 C13 C14 121.7(3) . .
C8 C14 C13 122.4(2) 2_767 .
C8 C14 C9 119.9(2) 2_767 .
C13 C14 C9 117.6(2) . .
C20 C15 C16 117.8(3) . .
C20 C15 C11 120.7(3) . .
C16 C15 C11 121.5(3) . .
C17 C16 C15 121.0(3) . .
C16 C17 C18 120.3(3) . .
C19 C18 C17 118.9(3) . .
C19 C18 C21 120.1(3) . .
C17 C18 C21 121.0(3) . .
C20 C19 C18 120.6(3) . .
C19 C20 C15 121.4(3) . .
O3 C21 O4 121.2(3) . .
O3 C21 C18 121.0(3) . .
O4 C21 C18 117.8(3) . .
O6 C22 O5 126.6(3) . .
O6 C22 C23 117.2(3) . .
O5 C22 C23 116.2(3) . .
C28 C23 C24 119.4(3) . .
C28 C23 C22 120.2(3) . .
C24 C23 C22 120.4(3) . .
C23 C24 C25 119.6(3) . .
C26 C25 C24 120.9(3) . .
C27 C26 C25 119.0(3) . .
C27 C26 C29 120.8(3) . .
C25 C26 C29 120.1(3) . .
C26 C27 C28 120.9(3) . .
C23 C28 C27 120.2(3) . .
C30 C29 C35 120.5(3) . 2_667
C30 C29 C26 119.4(3) . .
C35 C29 C26 120.0(3) 2_667 .
C29 C30 C31 122.4(3) . .
C29 C30 C35 119.4(3) . .
C31 C30 C35 118.1(3) . .
C32 C31 C30 122.8(3) . .
C31 C32 C33 118.6(3) . .
C31 C32 C36 122.1(3) . .
C33 C32 C36 119.3(3) . .
C34 C33 C32 121.1(3) . .
C33 C34 C35 121.6(3) . .
C29 C35 C34 122.3(3) 2_667 .
C29 C35 C30 120.0(3) 2_667 .
C34 C35 C30 117.7(3) . .
C37 C36 C41 118.7(3) . .
C37 C36 C32 121.0(3) . .
C41 C36 C32 120.1(3) . .
C38 C37 C36 120.5(3) . .
C37 C38 C39 121.1(3) . .
C38 C39 C40 118.5(3) . .
C38 C39 C42 119.5(3) . .
C40 C39 C42 121.8(3) . .
C41 C40 C39 120.6(3) . .
C40 C41 C36 120.4(3) . .
O8 C42 O7 126.1(3) . .
O8 C42 C39 118.2(3) . .
O7 C42 C39 115.7(3) . .
loop_
_geom_bond_atom_site_label_1
_geom_bond_atom_site_label_2
_geom_bond_distance
_geom_bond_site_symmetry_2
Fe1 O5 2.026(2) 2_777
Fe1 O7 2.031(2) 2_677
Fe1 O4 2.059(2) 2_766
Fe1 O2 2.0920(18) .
Fe1 O3 2.325(2) 2_766
Fe1 O1 2.360(2) .
Fe2 O6 2.0536(19) .
Fe2 O6 2.0536(19) 2_777
Fe2 O8 2.138(2) 2_677
Fe2 O8 2.138(2) 1_655
Fe2 O2 2.2408(19) 2_777
Fe2 O2 2.2408(19) .
O1 C1 1.249(4) .
O2 C1 1.283(3) .
O3 C21 1.254(4) .
O3 Fe1 2.325(2) 2_766
O4 C21 1.270(4) .
O4 Fe1 2.059(2) 2_766
O5 C22 1.252(4) .
O5 Fe1 2.026(2) 2_777
O6 C22 1.248(4) .
O7 C42 1.260(4) .
O7 Fe1 2.031(2) 2_677
O8 C42 1.259(4) .
O8 Fe2 2.138(2) 1_455
C1 C2 1.489(4) .
C2 C7 1.366(4) .
C2 C3 1.395(4) .
C3 C4 1.387(4) .
C4 C5 1.381(4) .
C5 C6 1.385(4) .
C5 C8 1.501(3) .
C6 C7 1.386(4) .
C8 C9 1.393(4) .
C8 C14 1.404(4) 2_767
C9 C10 1.420(4) .
C9 C14 1.447(4) .
C10 C11 1.369(4) .
C11 C12 1.430(4) .
C11 C15 1.475(4) .
C12 C13 1.349(4) .
C13 C14 1.428(4) .
C14 C8 1.404(4) 2_767
C15 C20 1.385(5) .
C15 C16 1.391(5) .
C16 C17 1.376(5) .
C17 C18 1.392(5) .
C18 C19 1.375(5) .
C18 C21 1.496(4) .
C19 C20 1.373(4) .
C22 C23 1.505(4) .
C23 C28 1.384(4) .
C23 C24 1.388(4) .
C24 C25 1.393(4) .
C25 C26 1.378(5) .
C26 C27 1.374(4) .
C26 C29 1.504(4) .
C27 C28 1.386(4) .
C29 C30 1.395(4) .
C29 C35 1.403(4) 2_667
C30 C31 1.421(4) .
C30 C35 1.442(4) .
C31 C32 1.358(4) .
C32 C33 1.427(4) .
C32 C36 1.487(4) .
C33 C34 1.352(4) .
C34 C35 1.430(4) .
C35 C29 1.403(4) 2_667
C36 C37 1.389(4) .
C36 C41 1.397(4) .
C37 C38 1.377(4) .
C38 C39 1.389(4) .
C39 C40 1.392(4) .
C39 C42 1.502(4) .
C40 C41 1.383(4) .
loop_
_platon_squeeze_void_nr
_platon_squeeze_void_average_x
_platon_squeeze_void_average_y
_platon_squeeze_void_average_z
_platon_squeeze_void_volume
_platon_squeeze_void_count_electrons
_platon_squeeze_void_content
1 -0.035 0.024 0.458 1978 344 ' 6 DEF, 1 Cl^-^ '
