#------------------------------------------------------------------------------
#$Date: 2016-11-08 21:40:51 +0200 (Tue, 08 Nov 2016) $
#$Revision: 188131 $
#$URL: file:///home/coder/svn-repositories/cod/cif/7/04/05/7040511.cif $
#------------------------------------------------------------------------------
#
# This file is available in the Crystallography Open Database (COD),
# http://www.crystallography.net/
#
# All data on this site have been placed in the public domain by the
# contributors.
#
data_7040511
loop_
_publ_author_name
'Yan, Yang-Tian'
'Zhang, Wen-Yan'
'Wu, Yun-Long'
'Li, Jiang'
'Xi, Zheng-Ping'
'Wang, Yao-Yu'
'Hou, Lei'
_publ_section_title
;
 Four new 3D metal-organic frameworks constructed by the asymmetrical
 pentacarboxylate: gas sorption behaviour and magnetic properties.
;
_journal_issue                   39
_journal_name_full
'Dalton transactions (Cambridge, England : 2003)'
_journal_page_first              15473
_journal_page_last               15480
_journal_paper_doi               10.1039/c6dt02846b
_journal_volume                  45
_journal_year                    2016
_chemical_formula_moiety         'C23 H9 Cu2 O12'
_chemical_formula_sum            'C23 H9 Cu2 O12'
_chemical_formula_weight         604.38
_space_group_crystal_system      hexagonal
_space_group_IT_number           194
_space_group_name_Hall           '-P 6c 2c'
_space_group_name_H-M_alt        'P 63/m m c'
_symmetry_space_group_name_Hall  '-P 6c 2c'
_symmetry_space_group_name_H-M   'P 63/m m c'
_atom_sites_solution_hydrogens   mixed
_audit_block_doi                 10.5517/cc1knpyv
_audit_creation_date             2016-08-17
_audit_creation_method
;
Olex2 1.2-beta
(compiled 2016.07.26 svn.r3321 for OlexSys, GUI svn.r5206)
;
_audit_update_record
;
2016-08-23 deposited with the CCDC.
2016-08-26 downloaded from the CCDC.
;
_cell_angle_alpha                90
_cell_angle_beta                 90
_cell_angle_gamma                120
_cell_formula_units_Z            6
_cell_length_a                   18.5085(6)
_cell_length_b                   18.5085(6)
_cell_length_c                   22.9306(11)
_cell_measurement_reflns_used    5011
_cell_measurement_temperature    296
_cell_measurement_theta_max      52.800
_cell_measurement_theta_min      2.757
_cell_volume                     6802.8(5)
_computing_cell_refinement       'Bruker SAINT'
_computing_data_collection       'Bruker SAINT'
_computing_data_reduction        'Bruker SAINT'
_computing_molecular_graphics    'Olex2 (Dolomanov et al., 2009)'
_computing_publication_material  'Olex2 (Dolomanov et al., 2009)'
_computing_structure_refinement  'ShelXL (Sheldrick, 2015)'
_computing_structure_solution    'ShelXT (Sheldrick, 2015)'
_diffrn_ambient_temperature      296.0
_diffrn_measured_fraction_theta_full 0.972
_diffrn_measured_fraction_theta_max 0.972
_diffrn_measurement_device_type  'CCD Area Detector'
_diffrn_radiation_type           CuK\a
_diffrn_radiation_wavelength     1.54178
_diffrn_reflns_av_R_equivalents  0.0312
_diffrn_reflns_av_unetI/netI     0.0183
_diffrn_reflns_Laue_measured_fraction_full 0.972
_diffrn_reflns_Laue_measured_fraction_max 0.972
_diffrn_reflns_limit_h_max       20
_diffrn_reflns_limit_h_min       -14
_diffrn_reflns_limit_k_max       14
_diffrn_reflns_limit_k_min       -20
_diffrn_reflns_limit_l_max       24
_diffrn_reflns_limit_l_min       -25
_diffrn_reflns_number            19853
_diffrn_reflns_point_group_measured_fraction_full 0.972
_diffrn_reflns_point_group_measured_fraction_max 0.972
_diffrn_reflns_theta_full        60.190
_diffrn_reflns_theta_max         60.190
_diffrn_reflns_theta_min         2.757
_exptl_absorpt_coefficient_mu    1.470
_exptl_absorpt_correction_T_max  0.7518
_exptl_absorpt_correction_T_min  0.6039
_exptl_absorpt_correction_type   multi-scan
_exptl_absorpt_process_details
;
SADABS-2008/1 (Bruker,2008) was used for absorption correction.
wR2(int) was 0.1113 before and 0.0412 after correction.
The Ratio of minimum to maximum transmission is 0.8033.
The \l/2 correction factor is 0.0015.
;
_exptl_crystal_colour            colourless
_exptl_crystal_colour_primary    colourless
_exptl_crystal_density_diffrn    0.885
_exptl_crystal_description       block
_exptl_crystal_F_000             1806
_exptl_crystal_size_max          0.12
_exptl_crystal_size_mid          0.1
_exptl_crystal_size_min          0.1
_refine_diff_density_max         0.774
_refine_diff_density_min         -0.289
_refine_diff_density_rms         0.081
_refine_ls_extinction_method     none
_refine_ls_goodness_of_fit_ref   1.067
_refine_ls_hydrogen_treatment    constr
_refine_ls_matrix_type           full
_refine_ls_number_parameters     115
_refine_ls_number_reflns         1880
_refine_ls_number_restraints     112
_refine_ls_restrained_S_all      1.053
_refine_ls_R_factor_all          0.0901
_refine_ls_R_factor_gt           0.0688
_refine_ls_shift/su_max          0.004
_refine_ls_shift/su_mean         0.000
_refine_ls_structure_factor_coef Fsqd
_refine_ls_weighting_details
'w=1/[\s^2^(Fo^2^)+(0.1733P)^2^+2.8878P] where P=(Fo^2^+2Fc^2^)/3'
_refine_ls_weighting_scheme      calc
_refine_ls_wR_factor_gt          0.2346
_refine_ls_wR_factor_ref         0.2723
_reflns_Friedel_coverage         0.000
_reflns_number_gt                1284
_reflns_number_total             1880
_reflns_threshold_expression     'I > 2\s(I)'
_cod_data_source_file            c6dt02846b2.cif
_cod_data_source_block           1_sq
_cod_depositor_comments
;Adding full bibliography for 7040511--7040514.cif.

 Adding full bibliography for 7040511--7040514.cif.
;
_cod_database_code               7040511
_shelx_space_group_comment
;
The symmetry employed for this shelxl refinement is uniquely defined
by the following loop, which should always be used as a source of
symmetry information in preference to the above space-group names.
They are only intended as comments.
;
_shelx_estimated_absorpt_t_max   0.867
_shelx_estimated_absorpt_t_min   0.843
_olex2_refinement_description
;
1. Fixed Uiso
 At 1.2 times of:
  All C(H) groups
 At 1.5 times of:
  All O(H,H) groups
2. Restrained distances
 C8-C10
 1.5 with sigma of 0.01
 C10-O3 = C10-O4
 1.25 with sigma of 0.01
 O3-O4
 2.2 with sigma of 0.01
3. Rigid body (RIGU) restrains
 All non-hydrogen atoms
 with sigma for 1-2 distances of 0.004 and sigma for 1-3 distances of 0.004
4. Others
 Sof(O1WB)=Sof(H1WC)=Sof(H1WD)=0.5*(1-FVAR(2))
 Sof(O1WA)=Sof(H1WA)=Sof(H1WB)=0.5*FVAR(2)
 Fixed Sof: H8(0.25) O3(0.25) O4(0.25) C10(0.25)
5.a Riding coordinates:
 O1WA(H1WA,H1WB), C8(H8), O1WB(H1WC,H1WD)
5.b Aromatic/amide H refined with riding coordinates:
 C4(H4), C3(H3), C7(H7), C9(H9)
;
_shelx_res_file
;
    1_sq.res created by SHELXL-2014/7

TITL 2 in P63/mmc
CELL 1.54178 18.5085 18.5085 22.9306 90 90 120
ZERR 6 0.0006 0.0006 0.0011 0 0 0
LATT 1
SYMM -Y+X,+X,0.5+Z
SYMM -Y,+X-Y,+Z
SYMM -X,-Y,0.5+Z
SYMM +Y-X,-X,+Z
SYMM +Y,-X+Y,0.5+Z
SYMM -Y,-X,0.5-Z
SYMM -Y+X,-Y,-Z
SYMM +X,+X-Y,0.5-Z
SYMM +Y,+X,-Z
SYMM +Y-X,+Y,0.5-Z
SYMM -X,-X+Y,-Z
SFAC C H Cu O
UNIT 138 54 12 72
DFIX 1.5 0.01 C8 C10
DFIX 1.25 0.01 C10 O3 C10 O4
DFIX 2.2 0.01 O3 O4
RIGU

L.S. 5 0 38
PLAN  15
SIZE 0.12 0.1 0.1
TEMP 22.85
FREE O3 O4
BOND $H
ABIN
fmap 2
acta
REM <olex2.extras>
REM <HklSrc "%.\\1_sq.hkl">
REM </olex2.extras>

WGHT    0.173300    2.887800
FVAR       0.05958   0.59095
CU1   3    0.476476    0.523524    0.451883    10.50000    0.09079    0.09079 =
         0.14361    0.00377   -0.00377    0.06343
O1    4    0.518577    0.628371    0.493459    11.00000    0.13459    0.09894 =
         0.16549   -0.00546   -0.01045    0.07758
O2    4    0.560236    0.590066    0.573834    11.00000    0.12187    0.09453 =
         0.16614   -0.00092   -0.01066    0.06702
PART 1
O1WA  4    0.448951    0.551049    0.364281    20.50000    0.18212    0.18212 =
         0.15745    0.00995   -0.00995    0.12116
AFIX   3
H1WA  2    0.422791    0.577210    0.358241    20.50000   -1.50000
H1WB  2    0.461751    0.538250    0.331811    20.50000   -1.50000
AFIX   0
PART 0
C1    1    0.550638    0.641477    0.543504    11.00000    0.10529    0.09556 =
         0.14421   -0.00047    0.00645    0.06268
C2    1    0.580479    0.725731    0.569144    11.00000    0.10461    0.08996 =
         0.14582    0.00467    0.00634    0.05892
C4    1    0.630638    0.751406    0.617473    11.00000    0.11491    0.09957 =
         0.14127    0.00741    0.00727    0.06465
AFIX  43
H4    2    0.647632    0.716277    0.633715    11.00000   -1.20000
AFIX   0
C3    1    0.556992    0.778496    0.543845    10.50000    0.09476    0.08511 =
         0.15321    0.00156    0.00312    0.04738
AFIX  43
H3    2    0.525404    0.762702    0.509826    10.50000   -1.20000
AFIX   0
C5    1    0.656518    0.828259    0.642599    10.50000    0.10414    0.08926 =
         0.15075    0.00295    0.00590    0.05207
C6    1    0.707324    0.853662    0.698720    10.50000    0.10455    0.09075 =
         0.14424    0.00102    0.00204    0.05228
C7    1    0.664472    0.832236    0.750000    10.25000    0.10423    0.09224 =
         0.14016    0.00000    0.00000    0.05212
AFIX  43
H7    2    0.606451    0.803226    0.750001    10.25000   -1.20000
AFIX   0
C8    1    0.792984    0.896492    0.697562    10.50000    0.09511    0.17233 =
         0.18540    0.00043    0.00086    0.04756
PART 1
AFIX   3
H8    2    0.822114    0.911065    0.662512    10.25000   -1.20000
AFIX   0
PART 0
PART 2
O3    4    0.825459    0.912729    0.589002    10.25000    0.23059    0.57550 =
         0.24778    0.00977    0.01954    0.11529
O4    4    0.919435    0.959718    0.657832    10.25000    0.13131    1.01041 =
         0.29245    0.02051    0.04102    0.06566
C10   1    0.844616    0.922308    0.642260    10.25000    0.11849    0.22981 =
         0.22130    0.02093    0.04186    0.05925
PART 0
C9    1    0.832250    0.916125    0.750000    10.25000    0.10657    0.23748 =
         0.18256    0.00000    0.00000    0.05329
AFIX  43
H9    2    0.890271    0.945135    0.750000    10.25000   -1.20000
AFIX   0
PART 2
O1WB  4    0.431233    0.568767    0.382093   -20.50000    0.14328    0.14328 =
         0.16284    0.01054   -0.01054    0.10429
AFIX   3
H1WC  2    0.405033    0.594960    0.387793   -20.50000   -1.50000
H1WD  2    0.436123    0.563870    0.345663   -20.50000   -1.50000
AFIX   0
HKLF 4 1 -1 0 0 0 -1 0 0 0 1

REM  2 in P63/mmc
REM R1 =  0.0688 for    1284 Fo > 4sig(Fo)  and  0.0901 for all    1880 data
REM    115 parameters refined using    112 restraints

END

WGHT      0.1740      2.8123

REM Highest difference peak  0.774,  deepest hole -0.289,  1-sigma level  0.081
Q1    1   1.0000  1.0000  0.6118  10.16667  0.05    0.77
Q2    1   0.4760  0.5240  0.3113  10.50000  0.05    0.49
Q3    1   0.4542  0.5143  0.4978  11.00000  0.05    0.38
Q4    1   0.4762  0.5238  0.4085  10.50000  0.05    0.37
Q5    1   0.4283  0.5717  0.4216  10.50000  0.05    0.23
Q6    1   0.3494  0.6506  0.3651  10.50000  0.05    0.23
Q7    1   0.8358  0.9179  0.5316  10.50000  0.05    0.22
Q8    1   0.4870  0.5130  0.2500  10.25000  0.05    0.21
Q9    1   0.5549  0.5741  0.6023  11.00000  0.05    0.19
Q10   1   0.5108  0.6216  0.5266  11.00000  0.05    0.18
Q11   1   0.5203  0.5674  0.5748  11.00000  0.05    0.18
Q12   1   0.4260  0.5740  0.2500  10.25000  0.05    0.17
Q13   1   0.3578  0.5137  0.2500  10.50000  0.05    0.17
Q14   1   0.3231  0.5105  0.3539  11.00000  0.05    0.17
Q15   1   0.2908  0.5424  0.3801  11.00000  0.05    0.16
;
_shelx_res_checksum              14637
_shelx_fab_checksum              86891
_shelx_fab_file
;
    0    1    0     -1.73      0.00
   -1    2    0    122.54      0.00
    0    2    0    -52.16      0.00
   -1    3    0    -28.22      0.00
    0    3    0     27.28      0.00
   -1    4    0    -14.18      0.00
   -2    4    0    195.94      0.00
    0    4    0    -21.90      0.00
   -1    5    0     29.77      0.00
   -2    5    0     14.70      0.00
    0    5    0      9.45      0.00
   -1    6    0    -10.08      0.00
   -2    6    0     12.72      0.00
   -3    6    0     14.84      0.00
    0    6    0     16.80      0.00
   -1    7    0      7.15      0.00
   -2    7    0     13.11      0.00
   -3    7    0     -7.02      0.00
    0    7    0      1.42      0.00
   -1    8    0     -0.69      0.00
   -2    8    0     -1.29      0.00
   -3    8    0      1.52      0.00
   -4    8    0     11.91      0.00
    0    8    0      3.32      0.00
   -1    9    0     -0.39      0.00
   -2    9    0      6.65      0.00
   -3    9    0      4.74      0.00
   -4    9    0      0.11      0.00
    0    9    0      3.13      0.00
   -1   10    0      3.84      0.00
   -2   10    0      4.08      0.00
   -3   10    0     -0.75      0.00
   -4   10    0      1.84      0.00
   -5   10    0      2.17      0.00
    0   10    0      2.01      0.00
   -1   11    0     -1.35      0.00
   -2   11    0     -1.39      0.00
   -3   11    0      0.72      0.00
   -4   11    0      1.97      0.00
   -5   11    0      1.10      0.00
    0   11    0      3.29      0.00
   -1   12    0      0.97      0.00
   -2   12    0      1.00      0.00
   -4   12    0      0.55      0.00
   -5   12    0      0.92      0.00
   -6   12    0      3.25      0.00
   -3   12    0      2.46      0.00
    0   12    0      0.39      0.00
   -1   13    0      2.04      0.00
   -2   13    0     -2.67      0.00
   -3   13    0      2.25      0.00
   -4   13    0      2.12      0.00
   -5   13    0      0.73      0.00
   -6   13    0      0.14      0.00
    0   13    0      1.44      0.00
   -1   14    0     -0.31      0.00
   -2   14    0     -0.11      0.00
   -3   14    0      1.66      0.00
   -4   14    0      1.41      0.00
   -5   14    0     -0.16      0.00
   -6   14    0      0.14      0.00
   -7   14    0      1.30      0.00
    0   14    0     -0.21      0.00
   -1   15    0      0.12      0.00
   -2   15    0      0.62      0.00
   -3   15    0     -0.43      0.00
   -4   15    0      0.15      0.00
   -5   15    0     -1.75      0.00
   -6   15    0     -0.05      0.00
   -7   15    0      0.56      0.00
    0   15    0     -0.79      0.00
   -2   16    0      0.40      0.00
   -3   16    0     -0.37      0.00
   -4   16    0     -0.02      0.00
   -5   16    0     -0.54      0.00
   -6   16    0     -1.15      0.00
   -7   16    0      0.42      0.00
   -8   16    0      4.46      0.00
   -1   16    0      0.26      0.00
    0   16    0      0.77      0.00
   -2   17    0      1.38      0.00
   -3   17    0     -0.88      0.00
   -4   17    0     -0.70      0.00
   -5   17    0      1.00      0.00
   -6   17    0      1.50      0.00
   -7   17    0     -0.89      0.00
   -8   17    0     -1.23      0.00
   -1   17    0     -2.07      0.00
   -3   18    0      1.33      0.00
   -4   18    0     -0.41      0.00
   -5   18    0      0.06      0.00
   -6   18    0     -0.77      0.00
   -7   18    0      0.60      0.00
   -8   18    0      0.67      0.00
   -9   18    0     -1.71      0.00
   -2   18    0      1.32      0.00
   -4   19    0      0.18      0.00
   -5   19    0     -1.00      0.00
   -6   19    0     -0.78      0.00
   -7   19    0     -0.01      0.00
   -8   19    0     -0.93      0.00
   -9   19    0      1.44      0.00
   -3   19    0      0.33      0.00
   -7   20    0     -0.35      0.00
   -8   20    0     -0.46      0.00
   -9   20    0      1.12      0.00
  -10   20    0     -3.00      0.00
   -6   20    0      0.78      0.00
   -5   20    0     -0.59      0.00
   -1    3    1     18.75      0.00
    0    2    1    181.23      0.00
   -2    5    1     10.52      0.00
   -1    4    1     -8.53      0.00
    0    3    1    -21.84      0.00
   -3    7    1      7.89      0.00
   -2    6    1      9.62      0.00
   -1    5    1     -1.37      0.00
    0    4    1    -12.37      0.00
   -4    9    1     -2.48      0.00
   -3    8    1     -1.80      0.00
   -2    7    1      3.69      0.00
   -1    6    1      4.68      0.00
    0    5    1    -20.28      0.00
   -5   11    1     -2.37      0.00
   -4   10    1      1.34      0.00
   -3    9    1     -0.69      0.00
   -2    8    1      1.65      0.00
   -1    7    1      0.57      0.00
    0    6    1      3.68      0.00
   -6   13    1      2.25      0.00
   -5   12    1     -1.38      0.00
   -4   11    1      0.43      0.00
   -3   10    1     -1.54      0.00
   -2    9    1      2.17      0.00
   -1    8    1      1.31      0.00
    0    7    1     -5.97      0.00
   -7   15    1     -1.76      0.00
   -6   14    1      1.51      0.00
   -5   13    1     -0.55      0.00
   -4   12    1     -0.14      0.00
   -3   11    1     -2.38      0.00
   -2   10    1      3.43      0.00
   -1    9    1     -2.74      0.00
    0    8    1      2.87      0.00
   -8   17    1      0.88      0.00
   -7   16    1     -0.49      0.00
   -6   15    1     -0.15      0.00
   -5   14    1      0.56      0.00
   -4   13    1     -0.95      0.00
   -3   12    1      0.25      0.00
   -2   11    1     -0.77      0.00
   -1   10    1      2.00      0.00
    0    9    1      0.17      0.00
   -9   19    1     -0.30      0.00
   -8   18    1     -0.21      0.00
   -7   17    1      0.62      0.00
   -6   16    1     -1.01      0.00
   -5   15    1     -1.55      0.00
   -4   14    1     -0.14      0.00
   -3   13    1     -1.50      0.00
   -2   12    1      2.01      0.00
   -1   11    1      1.71      0.00
    0   10    1     -4.13      0.00
   -9   20    1     -0.58      0.00
   -8   19    1      0.40      0.00
   -7   18    1      0.20      0.00
   -6   17    1      1.53      0.00
   -5   16    1     -0.70      0.00
   -4   15    1      1.47      0.00
   -3   14    1      0.48      0.00
   -2   13    1     -0.25      0.00
   -1   12    1     -0.70      0.00
    0   11    1      0.22      0.00
   -8   20    1      0.52      0.00
   -7   19    1     -0.49      0.00
   -6   18    1      0.19      0.00
   -5   17    1     -1.58      0.00
   -4   16    1      0.73      0.00
   -3   15    1     -0.10      0.00
   -2   14    1     -1.26      0.00
   -1   13    1     -0.83      0.00
    0   12    1      1.61      0.00
   -7   20    1      0.62      0.00
   -6   19    1     -1.03      0.00
   -5   18    1      1.57      0.00
   -4   17    1      0.88      0.00
   -3   16    1     -1.43      0.00
   -2   15    1      0.40      0.00
   -1   14    1     -0.12      0.00
    0   13    1      0.01      0.00
   -6   20    1      1.65      0.00
   -5   19    1     -0.15      0.00
   -4   18    1     -0.68      0.00
   -3   17    1     -0.99      0.00
   -2   16    1      0.44      0.00
   -1   15    1     -0.17      0.00
    0   14    1      0.60      0.00
   -5   20    1     -1.15      0.00
   -4   19    1     -0.90      0.00
   -3   18    1      0.71      0.00
   -2   17    1      0.44      0.00
   -1   16    1      0.44      0.00
    0   15    1      0.37      0.00
   -3   19    1      0.87      0.00
   -2   18    1      0.43      0.00
   -1   17    1      0.15      0.00
    0   16    1     -0.72      0.00
    0    1    2    159.35      0.00
   -1    2    2     54.25      0.00
   -1    3    2     11.79      0.00
    0    2    2    -21.97      0.00
   -2    4    2    -24.72      0.00
   -2    5    2     10.42      0.00
   -1    4    2     18.01      0.00
    0    3    2     23.96      0.00
   -3    6    2     30.65      0.00
   -3    7    2     -0.92      0.00
   -2    6    2     -7.67      0.00
   -1    5    2     28.75      0.00
    0    4    2     -4.37      0.00
   -4    8    2      0.07      0.00
   -4    9    2      0.01      0.00
   -3    8    2      3.45      0.00
   -2    7    2      4.45      0.00
   -1    6    2      4.46      0.00
    0    5    2      8.48      0.00
   -5   10    2      1.07      0.00
   -5   11    2     -0.03      0.00
   -4   10    2      0.11      0.00
   -3    9    2      3.90      0.00
   -2    8    2      0.14      0.00
   -1    7    2      1.41      0.00
    0    6    2      3.60      0.00
   -6   12    2      2.10      0.00
   -6   13    2      1.10      0.00
   -5   12    2      0.25      0.00
   -4   11    2      0.21      0.00
   -3   10    2      1.43      0.00
   -2    9    2      1.60      0.00
   -1    8    2      2.91      0.00
    0    7    2     -9.86      0.00
   -7   14    2      1.71      0.00
   -7   15    2      1.30      0.00
   -6   14    2     -0.19      0.00
   -5   13    2      0.14      0.00
   -4   12    2     -0.07      0.00
   -3   11    2      1.37      0.00
   -2   10    2     -0.47      0.00
   -1    9    2      0.22      0.00
    0    8    2      2.63      0.00
   -8   16    2     -1.57      0.00
   -8   17    2      0.61      0.00
   -7   16    2      0.09      0.00
   -6   15    2     -1.01      0.00
   -5   14    2     -0.48      0.00
   -4   13    2      0.53      0.00
   -3   12    2      0.27      0.00
   -2   11    2      2.61      0.00
   -1   10    2      2.30      0.00
    0    9    2     -0.64      0.00
   -9   18    2      0.90      0.00
   -9   19    2     -0.15      0.00
   -8   18    2      0.61      0.00
   -7   17    2      0.60      0.00
   -6   16    2     -0.40      0.00
   -5   15    2     -0.20      0.00
   -4   14    2      0.05      0.00
   -3   13    2      0.19      0.00
   -2   12    2     -0.04      0.00
   -1   11    2     -0.14      0.00
    0   10    2      0.16      0.00
  -10   20    2      0.23      0.00
   -9   20    2     -0.56      0.00
   -8   19    2     -0.36      0.00
   -7   18    2     -0.65      0.00
   -6   17    2     -0.45      0.00
   -5   16    2     -0.15      0.00
   -4   15    2     -0.11      0.00
   -3   14    2     -0.34      0.00
   -2   13    2      0.63      0.00
   -1   12    2     -0.04      0.00
    0   11    2      0.59      0.00
   -8   20    2     -0.58      0.00
   -7   19    2     -0.13      0.00
   -6   18    2      0.01      0.00
   -5   17    2     -0.09      0.00
   -4   16    2      0.13      0.00
   -3   15    2     -0.53      0.00
   -2   14    2      0.50      0.00
   -1   13    2      0.43      0.00
    0   12    2      0.61      0.00
   -7   20    2     -0.91      0.00
   -6   19    2     -0.40      0.00
   -5   18    2     -0.08      0.00
   -4   17    2     -0.16      0.00
   -3   16    2     -0.14      0.00
   -2   15    2      0.84      0.00
   -1   14    2      0.03      0.00
    0   13    2      0.23      0.00
   -6   20    2      0.47      0.00
   -5   19    2      0.02      0.00
   -4   18    2     -0.58      0.00
   -3   17    2      0.52      0.00
   -2   16    2     -0.30      0.00
   -1   15    2     -0.51      0.00
    0   14    2      0.76      0.00
   -4   19    2      0.30      0.00
   -3   18    2     -0.28      0.00
   -2   17    2     -0.93      0.00
   -1   16    2     -0.22      0.00
    0   15    2     -0.32      0.00
   -3   19    2      0.94      0.00
   -2   18    2     -0.41      0.00
   -1   17    2      2.30      0.00
    0   16    2      0.07      0.00
   -1   18    2      1.69      0.00
    0    1    3     53.95      0.00
    0    2    3     29.00      0.00
   -2    5    3     13.00      0.00
   -1    4    3      8.04      0.00
    0    3    3     21.99      0.00
   -3    7    3     -2.52      0.00
   -2    6    3      2.63      0.00
   -1    5    3     -2.07      0.00
    0    4    3    -19.44      0.00
   -4    9    3     -2.66      0.00
   -3    8    3      0.18      0.00
   -2    7    3      1.69      0.00
   -1    6    3      2.55      0.00
    0    5    3      4.92      0.00
   -5   11    3      0.11      0.00
   -4   10    3      1.27      0.00
   -3    9    3      0.81      0.00
   -2    8    3     -3.18      0.00
   -1    7    3      6.70      0.00
    0    6    3      2.86      0.00
   -6   13    3     -0.45      0.00
   -5   12    3      1.22      0.00
   -4   11    3     -1.10      0.00
   -3   10    3     -0.94      0.00
   -2    9    3      0.61      0.00
   -1    8    3      1.41      0.00
    0    7    3      1.99      0.00
   -7   15    3      1.03      0.00
   -6   14    3      0.98      0.00
   -5   13    3      0.06      0.00
   -4   12    3     -3.46      0.00
   -3   11    3      0.79      0.00
   -2   10    3      1.14      0.00
   -1    9    3     -1.25      0.00
    0    8    3     -0.42      0.00
   -8   17    3     -0.76      0.00
   -7   16    3      1.07      0.00
   -6   15    3     -0.43      0.00
   -5   14    3     -1.41      0.00
   -4   13    3     -1.08      0.00
   -3   12    3     -0.32      0.00
   -2   11    3     -0.68      0.00
   -1   10    3      0.65      0.00
    0    9    3      2.13      0.00
   -9   19    3     -0.18      0.00
   -8   18    3      0.25      0.00
   -7   17    3      0.79      0.00
   -6   16    3     -1.14      0.00
   -5   15    3      1.38      0.00
   -4   14    3     -0.78      0.00
   -3   13    3      0.82      0.00
   -2   12    3      0.74      0.00
   -1   11    3      2.69      0.00
    0   10    3     -3.01      0.00
   -9   20    3      0.78      0.00
   -8   19    3     -0.45      0.00
   -7   18    3     -0.75      0.00
   -6   17    3     -0.14      0.00
   -5   16    3      0.08      0.00
   -4   15    3     -1.62      0.00
   -3   14    3      0.52      0.00
   -2   13    3     -0.01      0.00
   -1   12    3     -1.97      0.00
    0   11    3      0.37      0.00
   -8   20    3      0.69      0.00
   -7   19    3      1.16      0.00
   -6   18    3      0.18      0.00
   -5   17    3     -1.20      0.00
   -4   16    3      0.63      0.00
   -3   15    3     -0.20      0.00
   -2   14    3     -1.96      0.00
   -1   13    3      0.78      0.00
    0   12    3      1.36      0.00
   -7   20    3     -0.67      0.00
   -6   19    3     -0.03      0.00
   -5   18    3      0.22      0.00
   -4   17    3     -0.63      0.00
   -3   16    3     -1.03      0.00
   -2   15    3     -0.33      0.00
   -1   14    3      0.23      0.00
    0   13    3     -0.52      0.00
   -6   20    3      0.32      0.00
   -5   19    3      0.69      0.00
   -4   18    3     -0.68      0.00
   -3   17    3      0.36      0.00
   -2   16    3      1.55      0.00
   -1   15    3     -0.74      0.00
    0   14    3      0.81      0.00
   -4   19    3      0.18      0.00
   -3   18    3      0.49      0.00
   -2   17    3      0.07      0.00
   -1   16    3      0.57      0.00
    0   15    3      0.60      0.00
   -3   19    3     -0.60      0.00
   -2   18    3      0.07      0.00
   -1   17    3      0.49      0.00
    0   16    3     -1.06      0.00
   -1   18    3      0.84      0.00
    0   17    3     -1.30      0.00
    0    1    4     58.83      0.00
   -1    3    4    -14.76      0.00
    0    2    4    114.07      0.00
   -1    2    4    -45.02      0.00
   -2    4    4    -42.10      0.00
   -2    5    4     17.28      0.00
   -1    4    4      5.02      0.00
    0    3    4    -35.49      0.00
   -3    6    4    -24.56      0.00
   -3    7    4      1.11      0.00
   -2    6    4     16.51      0.00
   -1    5    4    -17.26      0.00
    0    4    4     37.63      0.00
   -4    8    4     -7.07      0.00
   -4    9    4     -0.47      0.00
   -3    8    4     -5.64      0.00
   -2    7    4     -5.77      0.00
   -1    6    4      3.84      0.00
    0    5    4     -2.28      0.00
   -5   10    4     -0.15      0.00
   -5   11    4     -1.24      0.00
   -4   10    4     -0.90      0.00
   -3    9    4     -1.27      0.00
   -2    8    4      1.35      0.00
   -1    7    4     -7.80      0.00
    0    6    4     -7.38      0.00
   -6   12    4     -1.97      0.00
   -6   13    4     -0.22      0.00
   -5   12    4     -0.35      0.00
   -4   11    4     -0.07      0.00
   -3   10    4     -1.76      0.00
   -2    9    4     -2.22      0.00
   -1    8    4     -0.58      0.00
    0    7    4     -0.72      0.00
   -7   14    4      0.02      0.00
   -7   15    4      0.80      0.00
   -6   14    4      0.53      0.00
   -5   13    4      0.98      0.00
   -4   12    4      0.38      0.00
   -3   11    4     -1.88      0.00
   -2   10    4      0.90      0.00
   -1    9    4     -0.13      0.00
    0    8    4     -5.43      0.00
   -8   16    4     -0.41      0.00
   -8   17    4      0.21      0.00
   -7   16    4      0.30      0.00
   -6   15    4     -0.17      0.00
   -5   14    4     -0.53      0.00
   -4   13    4     -1.33      0.00
   -3   12    4     -0.85      0.00
   -2   11    4     -1.62      0.00
   -1   10    4     -2.29      0.00
    0    9    4      3.07      0.00
   -9   18    4     -0.87      0.00
   -9   19    4     -0.57      0.00
   -8   18    4     -0.19      0.00
   -7   17    4     -1.39      0.00
   -6   16    4     -0.78      0.00
   -5   15    4     -0.66      0.00
   -4   14    4     -1.86      0.00
   -3   13    4      0.38      0.00
   -2   12    4      0.07      0.00
   -1   11    4      2.03      0.00
    0   10    4     -0.35      0.00
  -10   20    4      1.14      0.00
   -9   20    4     -0.81      0.00
   -8   19    4      1.00      0.00
   -7   18    4      0.20      0.00
   -6   17    4      0.24      0.00
   -5   16    4     -1.13      0.00
   -4   15    4     -1.34      0.00
   -3   14    4     -0.10      0.00
   -2   13    4      0.02      0.00
   -1   12    4      0.01      0.00
    0   11    4     -3.85      0.00
   -8   20    4     -0.90      0.00
   -7   19    4     -0.89      0.00
   -6   18    4      0.57      0.00
   -5   17    4     -0.45      0.00
   -4   16    4      0.94      0.00
   -3   15    4      0.31      0.00
   -2   14    4     -0.84      0.00
   -1   13    4     -1.29      0.00
    0   12    4     -1.41      0.00
   -7   20    4      0.29      0.00
   -6   19    4     -0.13      0.00
   -5   18    4      0.34      0.00
   -4   17    4      0.22      0.00
   -3   16    4     -0.50      0.00
   -2   15    4     -0.68      0.00
   -1   14    4      0.39      0.00
    0   13    4      0.21      0.00
   -6   20    4     -1.24      0.00
   -5   19    4     -0.09      0.00
   -4   18    4     -1.10      0.00
   -3   17    4     -0.74      0.00
   -2   16    4     -0.75      0.00
   -1   15    4      0.95      0.00
    0   14    4      0.48      0.00
   -4   19    4     -0.43      0.00
   -3   18    4      0.03      0.00
   -2   17    4      0.05      0.00
   -1   16    4      0.32      0.00
    0   15    4     -0.03      0.00
   -3   19    4     -0.26      0.00
   -2   18    4      1.04      0.00
   -1   17    4     -0.60      0.00
    0   16    4     -0.62      0.00
   -1   18    4      1.83      0.00
    0   17    4     -0.96      0.00
    0    1    5      5.75      0.00
   -1    3    5     28.49      0.00
    0    2    5    -15.03      0.00
   -2    5    5    -10.04      0.00
   -1    4    5     -3.90      0.00
    0    3    5     49.00      0.00
   -3    7    5     -0.62      0.00
   -2    6    5     -2.56      0.00
   -1    5    5     -0.83      0.00
    0    4    5     16.42      0.00
   -4    9    5      0.39      0.00
   -3    8    5      0.06      0.00
   -2    7    5      4.21      0.00
   -1    6    5     -2.89      0.00
    0    5    5     -5.31      0.00
   -5   11    5      0.10      0.00
   -4   10    5     -1.99      0.00
   -3    9    5     -0.40      0.00
   -2    8    5     -1.01      0.00
   -1    7    5      0.37      0.00
    0    6    5     13.72      0.00
   -6   13    5      0.43      0.00
   -5   12    5     -0.94      0.00
   -4   11    5      0.43      0.00
   -3   10    5      0.29      0.00
   -2    9    5      1.73      0.00
   -1    8    5      3.82      0.00
    0    7    5      0.03      0.00
   -7   15    5     -0.49      0.00
   -6   14    5      0.85      0.00
   -5   13    5     -0.55      0.00
   -4   12    5      0.29      0.00
   -3   11    5     -0.10      0.00
   -2   10    5     -0.55      0.00
   -1    9    5     -3.17      0.00
    0    8    5     -2.30      0.00
   -8   17    5     -0.47      0.00
   -7   16    5      0.82      0.00
   -6   15    5     -0.01      0.00
   -5   14    5      0.18      0.00
   -4   13    5     -0.21      0.00
   -3   12    5     -2.35      0.00
   -2   11    5      0.48      0.00
   -1   10    5      0.75      0.00
    0    9    5     -1.42      0.00
   -9   19    5     -0.36      0.00
   -8   18    5      0.35      0.00
   -7   17    5     -0.18      0.00
   -6   16    5      0.00      0.00
   -5   15    5     -1.17      0.00
   -4   14    5     -1.27      0.00
   -3   13    5     -2.17      0.00
   -2   12    5      1.54      0.00
   -1   11    5     -2.47      0.00
    0   10    5      2.71      0.00
   -9   20    5     -0.15      0.00
   -8   19    5      0.72      0.00
   -7   18    5      1.31      0.00
   -6   17    5      1.02      0.00
   -5   16    5     -1.55      0.00
   -4   15    5      0.18      0.00
   -3   14    5      0.92      0.00
   -2   13    5     -0.70      0.00
   -1   12    5      1.53      0.00
    0   11    5      1.04      0.00
   -8   20    5      0.15      0.00
   -7   19    5     -0.29      0.00
   -6   18    5     -0.64      0.00
   -5   17    5      0.20      0.00
   -4   16    5      0.33      0.00
   -3   15    5     -0.03      0.00
   -2   14    5     -0.29      0.00
   -1   13    5      0.65      0.00
    0   12    5     -2.43      0.00
   -7   20    5      0.85      0.00
   -6   19    5     -0.34      0.00
   -5   18    5     -0.46      0.00
   -4   17    5     -0.07      0.00
   -3   16    5      0.32      0.00
   -2   15    5      0.73      0.00
   -1   14    5     -0.19      0.00
    0   13    5      0.19      0.00
   -5   19    5     -0.03      0.00
   -4   18    5     -0.18      0.00
   -3   17    5     -0.01      0.00
   -2   16    5     -1.24      0.00
   -1   15    5     -0.36      0.00
    0   14    5      1.11      0.00
   -4   19    5      0.54      0.00
   -3   18    5     -0.12      0.00
   -2   17    5     -0.07      0.00
   -1   16    5     -0.05      0.00
    0   15    5     -0.70      0.00
   -2   18    5      0.08      0.00
   -1   17    5      0.68      0.00
    0   16    5      0.18      0.00
   -1   18    5     -0.36      0.00
    0   17    5     -0.07      0.00
    0    0    6     -8.21      0.00
    0    1    6     14.88      0.00
   -1    2    6     18.27      0.00
   -1    3    6      4.80      0.00
    0    2    6    -35.81      0.00
   -2    4    6    -38.89      0.00
   -2    5    6    -11.56      0.00
   -1    4    6     -8.68      0.00
    0    3    6    -15.19      0.00
   -3    6    6     -4.25      0.00
   -3    7    6     -3.61      0.00
   -2    6    6     -3.59      0.00
   -1    5    6     -2.82      0.00
    0    4    6    -12.86      0.00
   -4    8    6     -4.99      0.00
   -4    9    6     -3.04      0.00
   -3    8    6     -1.95      0.00
   -2    7    6     -9.50      0.00
   -1    6    6     -2.65      0.00
    0    5    6      3.52      0.00
   -5   10    6     -0.34      0.00
   -5   11    6     -0.86      0.00
   -4   10    6     -1.67      0.00
   -3    9    6     -3.89      0.00
   -2    8    6     -5.37      0.00
   -1    7    6     -2.37      0.00
    0    6    6    -10.23      0.00
   -6   12    6     -0.89      0.00
   -6   13    6     -0.42      0.00
   -5   12    6     -1.52      0.00
   -4   11    6     -0.88      0.00
   -3   10    6     -1.16      0.00
   -2    9    6     -2.09      0.00
   -1    8    6     -5.75      0.00
    0    7    6      0.23      0.00
   -7   14    6     -0.82      0.00
   -7   15    6     -0.43      0.00
   -6   14    6      1.68      0.00
   -5   13    6     -0.74      0.00
   -4   12    6     -0.46      0.00
   -3   11    6     -1.42      0.00
   -2   10    6     -1.34      0.00
   -1    9    6     -0.18      0.00
    0    8    6     -2.25      0.00
   -8   16    6     -0.84      0.00
   -8   17    6     -0.70      0.00
   -7   16    6     -0.47      0.00
   -6   15    6     -0.33      0.00
   -5   14    6      0.41      0.00
   -4   13    6      0.22      0.00
   -3   12    6      0.38      0.00
   -2   11    6     -0.71      0.00
   -1   10    6     -2.85      0.00
    0    9    6     -0.91      0.00
   -9   18    6      0.94      0.00
   -9   19    6     -0.03      0.00
   -8   18    6     -0.37      0.00
   -7   17    6      0.23      0.00
   -6   16    6      0.18      0.00
   -5   15    6     -0.73      0.00
   -4   14    6     -1.37      0.00
   -3   13    6     -2.50      0.00
   -2   12    6     -0.20      0.00
   -1   11    6     -1.95      0.00
    0   10    6     -0.26      0.00
  -10   20    6      0.66      0.00
   -9   20    6     -0.66      0.00
   -8   19    6     -1.42      0.00
   -7   18    6      0.00      0.00
   -6   17    6      0.41      0.00
   -5   16    6      0.17      0.00
   -4   15    6     -0.83      0.00
   -3   14    6     -1.61      0.00
   -2   13    6      0.62      0.00
   -1   12    6     -1.10      0.00
    0   11    6     -0.30      0.00
   -8   20    6     -1.78      0.00
   -7   19    6      0.43      0.00
   -6   18    6      0.10      0.00
   -5   17    6     -0.20      0.00
   -4   16    6     -0.82      0.00
   -3   15    6      0.16      0.00
   -2   14    6      0.75      0.00
   -1   13    6     -0.81      0.00
    0   12    6     -2.34      0.00
   -6   19    6     -0.26      0.00
   -5   18    6     -1.17      0.00
   -4   17    6     -0.29      0.00
   -3   16    6     -0.08      0.00
   -2   15    6     -0.44      0.00
   -1   14    6     -0.60      0.00
    0   13    6      0.05      0.00
   -5   19    6      0.92      0.00
   -4   18    6      0.64      0.00
   -3   17    6     -0.47      0.00
   -2   16    6      0.03      0.00
   -1   15    6     -0.18      0.00
    0   14    6      0.97      0.00
   -4   19    6      0.09      0.00
   -3   18    6     -0.52      0.00
   -2   17    6      0.75      0.00
   -1   16    6     -0.69      0.00
    0   15    6      0.58      0.00
   -2   18    6      0.19      0.00
   -1   17    6     -0.05      0.00
    0   16    6      0.74      0.00
    0   17    6     -0.76      0.00
    0    1    7     -2.40      0.00
   -1    3    7     -0.13      0.00
    0    2    7      9.22      0.00
   -2    5    7     -5.63      0.00
   -1    4    7     13.82      0.00
    0    3    7      9.83      0.00
   -3    7    7     -2.28      0.00
   -2    6    7     -3.16      0.00
   -1    5    7     -2.62      0.00
    0    4    7     -0.33      0.00
   -4    9    7     -0.21      0.00
   -3    8    7     -1.01      0.00
   -2    7    7      0.27      0.00
   -1    6    7      0.52      0.00
    0    5    7     -5.44      0.00
   -5   11    7      1.53      0.00
   -4   10    7     -0.87      0.00
   -3    9    7      1.19      0.00
   -2    8    7      1.03      0.00
   -1    7    7      1.45      0.00
    0    6    7     -0.41      0.00
   -6   13    7      0.79      0.00
   -5   12    7     -0.09      0.00
   -4   11    7     -0.96      0.00
   -3   10    7     -0.46      0.00
   -2    9    7     -4.69      0.00
   -1    8    7     -0.84      0.00
    0    7    7      2.45      0.00
   -7   15    7      0.16      0.00
   -6   14    7     -0.85      0.00
   -5   13    7     -0.10      0.00
   -4   12    7      0.63      0.00
   -3   11    7     -0.74      0.00
   -2   10    7     -0.57      0.00
   -1    9    7     -0.29      0.00
    0    8    7     -2.35      0.00
   -8   17    7      0.44      0.00
   -7   16    7     -0.56      0.00
   -6   15    7      0.14      0.00
   -5   14    7     -0.17      0.00
   -4   13    7     -0.22      0.00
   -3   12    7     -0.48      0.00
   -2   11    7      0.18      0.00
   -1   10    7     -1.35      0.00
    0    9    7     -2.98      0.00
   -9   19    7      0.00      0.00
   -8   18    7      0.10      0.00
   -7   17    7      0.23      0.00
   -6   16    7      1.15      0.00
   -5   15    7      0.46      0.00
   -4   14    7     -0.22      0.00
   -3   13    7      0.53      0.00
   -2   12    7     -1.05      0.00
   -1   11    7     -1.02      0.00
    0   10    7      1.32      0.00
   -8   19    7      0.21      0.00
   -7   18    7      0.36      0.00
   -6   17    7     -0.35      0.00
   -5   16    7      1.05      0.00
   -4   15    7     -0.36      0.00
   -3   14    7     -0.94      0.00
   -2   13    7     -0.59      0.00
   -1   12    7      0.49      0.00
    0   11    7      1.02      0.00
   -7   19    7      0.33      0.00
   -6   18    7     -0.31      0.00
   -5   17    7      0.31      0.00
   -4   16    7     -0.51      0.00
   -3   15    7      1.10      0.00
   -2   14    7      1.51      0.00
   -1   13    7      0.94      0.00
    0   12    7     -1.31      0.00
   -6   19    7      0.84      0.00
   -5   18    7     -0.19      0.00
   -4   17    7     -0.68      0.00
   -3   16    7     -0.14      0.00
   -2   15    7      0.67      0.00
   -1   14    7     -0.19      0.00
    0   13    7     -0.35      0.00
   -5   19    7     -0.34      0.00
   -4   18    7      0.98      0.00
   -3   17    7      0.30      0.00
   -2   16    7     -1.28      0.00
   -1   15    7     -0.08      0.00
    0   14    7     -0.88      0.00
   -4   19    7     -0.62      0.00
   -3   18    7     -1.07      0.00
   -2   17    7      0.04      0.00
   -1   16    7     -0.30      0.00
    0   15    7     -0.37      0.00
   -2   18    7      2.06      0.00
   -1   17    7     -1.98      0.00
    0   16    7      0.85      0.00
    0   17    7      1.24      0.00
    0    0    8     15.67      0.00
    0    1    8     -7.43      0.00
   -1    2    8    -14.56      0.00
   -1    3    8    -11.13      0.00
    0    2    8      4.74      0.00
   -2    4    8     -8.06      0.00
   -2    5    8    -14.05      0.00
   -1    4    8    -17.56      0.00
    0    3    8    -13.57      0.00
   -3    6    8     -0.97      0.00
   -3    7    8     -0.54      0.00
   -2    6    8     -4.20      0.00
   -1    5    8     -9.23      0.00
    0    4    8     -1.14      0.00
   -4    8    8     -2.08      0.00
   -4    9    8     -0.14      0.00
   -3    8    8     -3.41      0.00
   -2    7    8      0.36      0.00
   -1    6    8      2.14      0.00
    0    5    8     -0.91      0.00
   -5   10    8     -1.64      0.00
   -5   11    8     -0.43      0.00
   -4   10    8     -0.15      0.00
   -3    9    8     -1.90      0.00
   -2    8    8     -2.89      0.00
   -1    7    8     -4.31      0.00
    0    6    8     -3.18      0.00
   -6   12    8     -1.86      0.00
   -6   13    8      0.05      0.00
   -5   12    8      1.43      0.00
   -4   11    8     -1.27      0.00
   -3   10    8      1.08      0.00
   -2    9    8     -1.94      0.00
   -1    8    8     -1.39      0.00
    0    7    8     -4.47      0.00
   -7   14    8     -0.26      0.00
   -7   15    8      0.92      0.00
   -6   14    8     -0.09      0.00
   -5   13    8     -0.10      0.00
   -4   12    8     -0.07      0.00
   -3   11    8      1.55      0.00
   -2   10    8     -1.86      0.00
   -1    9    8     -0.44      0.00
    0    8    8      2.37      0.00
   -8   16    8     -0.77      0.00
   -8   17    8     -0.37      0.00
   -7   16    8     -0.52      0.00
   -6   15    8     -0.12      0.00
   -5   14    8      0.27      0.00
   -4   13    8      1.14      0.00
   -3   12    8      0.17      0.00
   -2   11    8     -0.22      0.00
   -1   10    8      1.06      0.00
    0    9    8     -3.86      0.00
   -9   18    8      0.11      0.00
   -9   19    8      0.47      0.00
   -8   18    8     -0.63      0.00
   -7   17    8     -0.44      0.00
   -6   16    8      0.12      0.00
   -5   15    8      0.90      0.00
   -4   14    8     -0.76      0.00
   -3   13    8      0.18      0.00
   -2   12    8      0.22      0.00
   -1   11    8     -1.42      0.00
    0   10    8     -2.46      0.00
   -8   19    8     -1.43      0.00
   -7   18    8      0.06      0.00
   -6   17    8      0.31      0.00
   -5   16    8      0.32      0.00
   -4   15    8     -0.82      0.00
   -3   14    8      0.97      0.00
   -2   13    8     -0.95      0.00
   -1   12    8     -0.97      0.00
    0   11    8     -0.35      0.00
   -7   19    8     -0.57      0.00
   -6   18    8     -0.25      0.00
   -5   17    8     -0.13      0.00
   -4   16    8      0.07      0.00
   -3   15    8     -1.07      0.00
   -2   14    8     -0.68      0.00
   -1   13    8      1.16      0.00
    0   12    8      0.00      0.00
   -6   19    8      1.52      0.00
   -5   18    8      0.16      0.00
   -4   17    8     -0.78      0.00
   -3   16    8      0.34      0.00
   -2   15    8      0.86      0.00
   -1   14    8      0.69      0.00
    0   13    8     -2.53      0.00
   -5   19    8     -1.26      0.00
   -4   18    8      1.49      0.00
   -3   17    8      0.29      0.00
   -2   16    8      0.65      0.00
   -1   15    8     -0.33      0.00
    0   14    8     -1.76      0.00
   -3   18    8      0.75      0.00
   -2   17    8      0.95      0.00
   -1   16    8     -0.19      0.00
    0   15    8      0.47      0.00
   -2   18    8     -0.95      0.00
   -1   17    8      0.60      0.00
    0   16    8      0.99      0.00
    0   17    8      1.30      0.00
    0    1    9     -7.13      0.00
   -1    3    9     -3.31      0.00
    0    2    9      8.50      0.00
   -2    5    9      1.36      0.00
   -1    4    9     -1.50      0.00
    0    3    9     -1.88      0.00
   -3    7    9     -0.95      0.00
   -2    6    9     -4.77      0.00
   -1    5    9     -1.54      0.00
    0    4    9      4.38      0.00
   -4    9    9      0.62      0.00
   -3    8    9     -1.79      0.00
   -2    7    9     -3.46      0.00
   -1    6    9     -4.44      0.00
    0    5    9      2.66      0.00
   -5   11    9     -0.95      0.00
   -4   10    9      0.49      0.00
   -3    9    9     -3.57      0.00
   -2    8    9     -0.37      0.00
   -1    7    9      1.28      0.00
    0    6    9     -6.16      0.00
   -6   13    9     -0.24      0.00
   -5   12    9      1.25      0.00
   -4   11    9     -0.39      0.00
   -3   10    9     -1.79      0.00
   -2    9    9     -0.81      0.00
   -1    8    9     -3.13      0.00
    0    7    9      0.71      0.00
   -7   15    9      0.17      0.00
   -6   14    9      0.08      0.00
   -5   13    9      0.60      0.00
   -4   12    9      0.27      0.00
   -3   11    9     -0.57      0.00
   -2   10    9     -3.44      0.00
   -1    9    9     -0.26      0.00
    0    8    9     -1.96      0.00
   -8   17    9      0.35      0.00
   -7   16    9     -0.07      0.00
   -6   15    9     -0.02      0.00
   -5   14    9     -0.68      0.00
   -4   13    9      0.57      0.00
   -3   12    9      1.58      0.00
   -2   11    9     -0.65      0.00
   -1   10    9     -1.40      0.00
    0    9    9     -1.16      0.00
   -9   19    9      1.22      0.00
   -8   18    9      0.19      0.00
   -7   17    9      0.98      0.00
   -6   16    9      0.04      0.00
   -5   15    9     -0.05      0.00
   -4   14    9      0.80      0.00
   -3   13    9      0.20      0.00
   -2   12    9     -0.49      0.00
   -1   11    9      2.07      0.00
    0   10    9     -1.10      0.00
   -8   19    9     -0.02      0.00
   -7   18    9     -1.02      0.00
   -6   17    9      0.15      0.00
   -5   16    9      1.01      0.00
   -4   15    9      0.98      0.00
   -3   14    9      0.60      0.00
   -2   13    9      0.48      0.00
   -1   12    9     -1.66      0.00
    0   11    9      0.25      0.00
   -7   19    9     -0.60      0.00
   -6   18    9      1.03      0.00
   -5   17    9      0.44      0.00
   -4   16    9      0.26      0.00
   -3   15    9     -0.41      0.00
   -2   14    9      0.98      0.00
   -1   13    9     -0.98      0.00
    0   12    9      1.50      0.00
   -6   19    9      0.91      0.00
   -5   18    9     -0.14      0.00
   -4   17    9     -0.22      0.00
   -3   16    9      2.12      0.00
   -2   15    9     -0.86      0.00
   -1   14    9      0.29      0.00
    0   13    9      0.37      0.00
   -4   18    9      0.75      0.00
   -3   17    9     -0.47      0.00
   -2   16    9      1.03      0.00
   -1   15    9      0.24      0.00
    0   14    9     -1.05      0.00
   -3   18    9     -0.88      0.00
   -2   17    9      0.94      0.00
   -1   16    9     -0.54      0.00
    0   15    9     -1.83      0.00
   -1   17    9     -1.49      0.00
    0   16    9     -1.63      0.00
    0    0   10      1.35      0.00
    0    1   10      2.93      0.00
   -1    2   10      2.19      0.00
   -1    3   10     -5.13      0.00
    0    2   10     -3.52      0.00
   -2    4   10     -5.20      0.00
   -2    5   10     -0.83      0.00
   -1    4   10     -3.66      0.00
    0    3   10     -8.00      0.00
   -3    6   10      2.85      0.00
   -3    7   10      4.93      0.00
   -2    6   10      2.77      0.00
   -1    5   10     -0.35      0.00
    0    4   10     -6.58      0.00
   -4    8   10      4.21      0.00
   -4    9   10      1.66      0.00
   -3    8   10      1.33      0.00
   -2    7   10      1.20      0.00
   -1    6   10     -0.14      0.00
    0    5   10      0.48      0.00
   -5   10   10     -1.48      0.00
   -5   11   10      0.97      0.00
   -4   10   10      1.51      0.00
   -3    9   10      0.89      0.00
   -2    8   10      3.29      0.00
   -1    7   10      0.40      0.00
    0    6   10      3.76      0.00
   -6   12   10      1.57      0.00
   -6   13   10      0.47      0.00
   -5   12   10      0.72      0.00
   -4   11   10      1.67      0.00
   -3   10   10     -0.06      0.00
   -2    9   10      1.20      0.00
   -1    8   10      0.73      0.00
    0    7   10      2.00      0.00
   -7   14   10      1.14      0.00
   -7   15   10     -1.44      0.00
   -6   14   10      1.08      0.00
   -5   13   10      1.71      0.00
   -4   12   10      1.30      0.00
   -3   11   10      0.82      0.00
   -2   10   10      1.86      0.00
   -1    9   10      0.77      0.00
    0    8   10     -0.45      0.00
   -8   16   10      0.69      0.00
   -8   17   10     -0.89      0.00
   -7   16   10     -0.24      0.00
   -6   15   10      1.01      0.00
   -5   14   10     -0.04      0.00
   -4   13   10      0.09      0.00
   -3   12   10     -1.19      0.00
   -2   11   10      0.59      0.00
   -1   10   10      1.31      0.00
    0    9   10      2.12      0.00
   -9   18   10     -1.00      0.00
   -9   19   10     -0.97      0.00
   -8   18   10     -0.13      0.00
   -7   17   10     -0.07      0.00
   -6   16   10      0.24      0.00
   -5   15   10      0.61      0.00
   -4   14   10      0.03      0.00
   -3   13   10      0.88      0.00
   -2   12   10      1.25      0.00
   -1   11   10      0.14      0.00
    0   10   10     -0.44      0.00
   -8   19   10     -1.05      0.00
   -7   18   10     -0.36      0.00
   -6   17   10      0.84      0.00
   -5   16   10     -0.17      0.00
   -4   15   10      0.62      0.00
   -3   14   10     -0.38      0.00
   -2   13   10      0.05      0.00
   -1   12   10     -0.54      0.00
    0   11   10      0.19      0.00
   -6   18   10     -0.74      0.00
   -5   17   10      0.09      0.00
   -4   16   10      0.31      0.00
   -3   15   10      0.33      0.00
   -2   14   10      0.15      0.00
   -1   13   10      0.51      0.00
    0   12   10      0.57      0.00
   -5   18   10      0.78      0.00
   -4   17   10     -0.66      0.00
   -3   16   10      0.47      0.00
   -2   15   10     -0.04      0.00
   -1   14   10      0.04      0.00
    0   13   10      0.69      0.00
   -4   18   10     -0.26      0.00
   -3   17   10      2.12      0.00
   -2   16   10     -0.01      0.00
   -1   15   10      0.17      0.00
    0   14   10      0.39      0.00
   -2   17   10      0.19      0.00
   -1   16   10      1.26      0.00
    0   15   10     -1.39      0.00
   -1   17   10      1.03      0.00
    0   16   10     -0.65      0.00
    0    1   11      0.64      0.00
   -1    3   11      1.03      0.00
    0    2   11      0.99      0.00
   -2    5   11     -0.53      0.00
   -1    4   11      5.15      0.00
    0    3   11      0.61      0.00
   -3    7   11     -1.45      0.00
   -2    6   11     -1.66      0.00
   -1    5   11     -2.19      0.00
    0    4   11     -2.90      0.00
   -4    9   11     -0.86      0.00
   -3    8   11     -0.02      0.00
   -2    7   11     -3.39      0.00
   -1    6   11     -5.70      0.00
    0    5   11     -4.41      0.00
   -5   11   11      0.67      0.00
   -4   10   11     -0.61      0.00
   -3    9   11     -0.41      0.00
   -2    8   11     -1.07      0.00
   -1    7   11     -4.06      0.00
    0    6   11      0.49      0.00
   -6   13   11      0.15      0.00
   -5   12   11     -1.88      0.00
   -4   11   11      1.18      0.00
   -3   10   11      0.40      0.00
   -2    9   11     -0.92      0.00
   -1    8   11     -0.56      0.00
    0    7   11     -3.15      0.00
   -7   15   11     -0.94      0.00
   -6   14   11      0.27      0.00
   -5   13   11      0.77      0.00
   -4   12   11      0.88      0.00
   -3   11   11     -0.88      0.00
   -2   10   11     -0.97      0.00
   -1    9   11     -4.11      0.00
    0    8   11      0.32      0.00
   -8   17   11      0.39      0.00
   -7   16   11      0.59      0.00
   -6   15   11     -0.20      0.00
   -5   14   11      1.06      0.00
   -4   13   11     -0.01      0.00
   -3   12   11      0.83      0.00
   -2   11   11      0.26      0.00
   -1   10   11     -0.27      0.00
    0    9   11     -0.90      0.00
   -8   18   11     -0.95      0.00
   -7   17   11     -0.83      0.00
   -6   16   11      0.74      0.00
   -5   15   11      0.00      0.00
   -4   14   11      0.11      0.00
   -3   13   11      0.03      0.00
   -2   12   11      0.78      0.00
   -1   11   11     -0.33      0.00
    0   10   11      1.57      0.00
   -7   18   11      0.19      0.00
   -6   17   11      0.48      0.00
   -5   16   11      1.29      0.00
   -4   15   11      0.65      0.00
   -3   14   11     -0.20      0.00
   -2   13   11      0.97      0.00
   -1   12   11      1.01      0.00
    0   11   11     -0.74      0.00
   -6   18   11      0.08      0.00
   -5   17   11      1.39      0.00
   -4   16   11     -0.55      0.00
   -3   15   11     -0.09      0.00
   -2   14   11     -0.25      0.00
   -1   13   11     -0.02      0.00
    0   12   11      0.78      0.00
   -5   18   11      1.10      0.00
   -4   17   11      1.09      0.00
   -3   16   11     -0.54      0.00
   -2   15   11      0.74      0.00
   -1   14   11     -0.76      0.00
    0   13   11      0.05      0.00
   -3   17   11      1.33      0.00
   -2   16   11     -0.40      0.00
   -1   15   11      1.40      0.00
    0   14   11      0.20      0.00
   -2   17   11      1.69      0.00
   -1   16   11     -0.12      0.00
    0   15   11     -1.19      0.00
    0   16   11     -0.38      0.00
    0    0   12      4.83      0.00
    0    1   12      5.93      0.00
   -1    2   12     11.33      0.00
   -1    3   12      5.09      0.00
    0    2   12      0.01      0.00
   -2    4   12      5.76      0.00
   -2    5   12      3.89      0.00
   -1    4   12      1.16      0.00
    0    3   12     10.75      0.00
   -3    6   12      4.33      0.00
   -3    7   12      4.92      0.00
   -2    6   12      3.07      0.00
   -1    5   12      4.49      0.00
    0    4   12      0.54      0.00
   -4    8   12      3.81      0.00
   -4    9   12      2.24      0.00
   -3    8   12      6.53      0.00
   -2    7   12      5.15      0.00
   -1    6   12      5.02      0.00
    0    5   12      2.60      0.00
   -5   10   12      3.96      0.00
   -5   11   12      0.12      0.00
   -4   10   12      1.17      0.00
   -3    9   12      2.57      0.00
   -2    8   12      1.70      0.00
   -1    7   12      4.90      0.00
    0    6   12      3.59      0.00
   -6   12   12     -0.40      0.00
   -6   13   12      1.24      0.00
   -5   12   12      0.57      0.00
   -4   11   12      1.14      0.00
   -3   10   12      1.48      0.00
   -2    9   12      2.86      0.00
   -1    8   12      1.94      0.00
    0    7   12      3.99      0.00
   -7   14   12      0.90      0.00
   -7   15   12      0.30      0.00
   -6   14   12     -0.58      0.00
   -5   13   12     -0.05      0.00
   -4   12   12      0.48      0.00
   -3   11   12      0.73      0.00
   -2   10   12      1.38      0.00
   -1    9   12      1.63      0.00
    0    8   12      1.23      0.00
   -8   16   12     -0.94      0.00
   -8   17   12     -0.85      0.00
   -7   16   12     -0.16      0.00
   -6   15   12     -0.11      0.00
   -5   14   12     -0.73      0.00
   -4   13   12     -0.26      0.00
   -3   12   12      2.18      0.00
   -2   11   12      0.73      0.00
   -1   10   12     -0.13      0.00
    0    9   12      2.47      0.00
   -9   18   12     -0.84      0.00
   -8   18   12     -1.09      0.00
   -7   17   12      0.26      0.00
   -6   16   12     -0.13      0.00
   -5   15   12     -0.52      0.00
   -4   14   12      0.57      0.00
   -3   13   12     -0.88      0.00
   -2   12   12     -0.52      0.00
   -1   11   12     -0.22      0.00
    0   10   12      0.62      0.00
   -7   18   12     -0.73      0.00
   -6   17   12      0.28      0.00
   -5   16   12      0.07      0.00
   -4   15   12      0.01      0.00
   -3   14   12      0.19      0.00
   -2   13   12      0.85      0.00
   -1   12   12      0.60      0.00
    0   11   12      0.44      0.00
   -6   18   12      2.19      0.00
   -5   17   12      0.53      0.00
   -4   16   12     -0.07      0.00
   -3   15   12     -0.12      0.00
   -2   14   12      0.28      0.00
   -1   13   12     -0.04      0.00
    0   12   12     -0.85      0.00
   -4   17   12      1.30      0.00
   -3   16   12     -0.32      0.00
   -2   15   12      1.53      0.00
   -1   14   12      0.07      0.00
    0   13   12      1.81      0.00
   -3   17   12     -0.20      0.00
   -2   16   12     -0.02      0.00
   -1   15   12     -0.48      0.00
    0   14   12      1.48      0.00
   -1   16   12      0.86      0.00
    0   15   12      0.56      0.00
    0    1   13      3.33      0.00
   -1    3   13      0.22      0.00
    0    2   13      0.77      0.00
   -2    5   13      0.19      0.00
   -1    4   13     -1.23      0.00
    0    3   13     -1.88      0.00
   -3    7   13     -0.56      0.00
   -2    6   13     -0.86      0.00
   -1    5   13     -1.79      0.00
    0    4   13     -1.20      0.00
   -4    9   13      0.25      0.00
   -3    8   13     -1.86      0.00
   -2    7   13     -1.29      0.00
   -1    6   13     -1.17      0.00
    0    5   13     -2.83      0.00
   -5   11   13      0.97      0.00
   -4   10   13     -0.83      0.00
   -3    9   13      0.90      0.00
   -2    8   13     -0.96      0.00
   -1    7   13     -0.50      0.00
    0    6   13     -3.49      0.00
   -6   13   13      0.18      0.00
   -5   12   13      0.57      0.00
   -4   11   13      0.03      0.00
   -3   10   13      0.16      0.00
   -2    9   13     -1.49      0.00
   -1    8   13      0.57      0.00
    0    7   13     -1.03      0.00
   -7   15   13      0.92      0.00
   -6   14   13     -0.19      0.00
   -5   13   13      0.44      0.00
   -4   12   13      0.63      0.00
   -3   11   13      0.54      0.00
   -2   10   13     -0.10      0.00
   -1    9   13     -0.81      0.00
    0    8   13     -2.58      0.00
   -8   17   13     -0.86      0.00
   -7   16   13     -0.37      0.00
   -6   15   13     -0.32      0.00
   -5   14   13     -0.66      0.00
   -4   13   13      0.25      0.00
   -3   12   13     -0.51      0.00
   -2   11   13     -0.36      0.00
   -1   10   13     -0.37      0.00
    0    9   13     -0.91      0.00
   -7   17   13      1.12      0.00
   -6   16   13     -0.49      0.00
   -5   15   13      0.13      0.00
   -4   14   13     -0.43      0.00
   -3   13   13      2.78      0.00
   -2   12   13      0.06      0.00
   -1   11   13      1.21      0.00
    0   10   13     -1.01      0.00
   -6   17   13     -0.12      0.00
   -5   16   13      0.15      0.00
   -4   15   13     -0.25      0.00
   -3   14   13      0.62      0.00
   -2   13   13     -0.33      0.00
   -1   12   13      1.50      0.00
    0   11   13      1.28      0.00
   -5   17   13      0.29      0.00
   -4   16   13      1.07      0.00
   -3   15   13     -0.47      0.00
   -2   14   13      0.31      0.00
   -1   13   13      1.10      0.00
    0   12   13     -1.17      0.00
   -4   17   13      0.19      0.00
   -3   16   13     -0.59      0.00
   -2   15   13      0.21      0.00
   -1   14   13     -0.20      0.00
    0   13   13      0.69      0.00
   -2   16   13      0.23      0.00
   -1   15   13     -0.75      0.00
    0   14   13      0.89      0.00
    0   15   13      0.24      0.00
   -1   16   13      2.66      0.00
    0    1   14      4.38      0.00
   -1    2   14      4.62      0.00
   -1    3   14      4.32      0.00
    0    2   14     15.82      0.00
   -2    4   14      5.32      0.00
   -2    5   14      3.28      0.00
   -1    4   14      5.61      0.00
    0    3   14      4.95      0.00
   -3    6   14      2.41      0.00
   -3    7   14      3.60      0.00
   -2    6   14      5.58      0.00
   -1    5   14      2.79      0.00
    0    4   14      5.19      0.00
   -4    8   14      3.67      0.00
   -4    9   14      2.22      0.00
   -3    8   14      1.48      0.00
   -2    7   14      2.60      0.00
   -1    6   14      2.91      0.00
    0    5   14      2.32      0.00
   -5   10   14      0.13      0.00
   -5   11   14     -0.64      0.00
   -4   10   14     -0.36      0.00
   -3    9   14      1.47      0.00
   -2    8   14      2.65      0.00
   -1    7   14      4.01      0.00
    0    6   14      3.74      0.00
   -6   12   14     -0.04      0.00
   -6   13   14     -0.86      0.00
   -5   12   14     -1.37      0.00
   -4   11   14     -1.00      0.00
   -3   10   14      0.56      0.00
   -2    9   14     -0.57      0.00
   -1    8   14      0.88      0.00
    0    7   14      1.97      0.00
   -7   14   14      0.62      0.00
   -7   15   14     -1.03      0.00
   -6   14   14     -0.02      0.00
   -5   13   14     -0.01      0.00
   -4   12   14     -0.69      0.00
   -3   11   14      0.21      0.00
   -2   10   14      0.77      0.00
   -1    9   14      1.50      0.00
    0    8   14      0.92      0.00
   -8   16   14     -1.74      0.00
   -8   17   14      0.20      0.00
   -7   16   14      0.31      0.00
   -6   15   14     -0.83      0.00
   -5   14   14     -0.76      0.00
   -4   13   14     -0.56      0.00
   -3   12   14     -0.28      0.00
   -2   11   14     -0.49      0.00
   -1   10   14      0.46      0.00
    0    9   14     -3.09      0.00
   -7   17   14     -0.27      0.00
   -6   16   14     -0.52      0.00
   -5   15   14     -1.22      0.00
   -4   14   14     -1.07      0.00
   -3   13   14     -0.29      0.00
   -2   12   14     -0.04      0.00
   -1   11   14      0.57      0.00
    0   10   14     -0.43      0.00
   -6   17   14     -0.14      0.00
   -5   16   14      0.60      0.00
   -4   15   14     -1.78      0.00
   -3   14   14      0.69      0.00
   -2   13   14     -0.21      0.00
   -1   12   14      0.55      0.00
    0   11   14     -3.20      0.00
   -5   17   14     -0.42      0.00
   -4   16   14      0.30      0.00
   -3   15   14      0.40      0.00
   -2   14   14      1.34      0.00
   -1   13   14     -0.48      0.00
    0   12   14      0.64      0.00
   -3   16   14     -0.56      0.00
   -2   15   14     -0.47      0.00
   -1   14   14      0.13      0.00
    0   13   14     -1.35      0.00
   -1   15   14      0.90      0.00
    0   14   14      0.09      0.00
    0   15   14      0.73      0.00
   -2   16   14      2.29      0.00
    0    1   15     -2.91      0.00
   -1    3   15     -2.56      0.00
    0    2   15     -2.92      0.00
   -2    5   15     -0.06      0.00
   -1    4   15     -1.26      0.00
    0    3   15      0.17      0.00
   -3    7   15     -0.81      0.00
   -2    6   15     -1.18      0.00
   -1    5   15     -0.61      0.00
    0    4   15     -0.71      0.00
   -4    9   15     -0.92      0.00
   -3    8   15     -0.46      0.00
   -2    7   15      1.52      0.00
   -1    6   15     -0.36      0.00
    0    5   15     -1.41      0.00
   -5   11   15     -0.53      0.00
   -4   10   15      1.67      0.00
   -3    9   15     -0.87      0.00
   -2    8   15     -1.66      0.00
   -1    7   15      0.31      0.00
    0    6   15     -0.75      0.00
   -6   13   15      1.57      0.00
   -5   12   15      0.75      0.00
   -4   11   15      0.77      0.00
   -3   10   15     -0.16      0.00
   -2    9   15      0.10      0.00
   -1    8   15     -0.01      0.00
    0    7   15      1.85      0.00
   -7   15   15     -0.85      0.00
   -6   14   15     -0.55      0.00
   -5   13   15     -0.95      0.00
   -4   12   15      0.22      0.00
   -3   11   15     -0.15      0.00
   -2   10   15     -0.99      0.00
   -1    9   15      0.02      0.00
    0    8   15      1.17      0.00
   -7   16   15      1.98      0.00
   -6   15   15     -0.09      0.00
   -5   14   15      0.13      0.00
   -4   13   15      0.00      0.00
   -3   12   15      0.09      0.00
   -2   11   15      0.26      0.00
   -1   10   15     -1.49      0.00
    0    9   15      0.13      0.00
   -6   16   15     -0.96      0.00
   -5   15   15     -1.60      0.00
   -4   14   15      0.24      0.00
   -3   13   15     -1.43      0.00
   -2   12   15      1.43      0.00
   -1   11   15     -0.07      0.00
    0   10   15      1.14      0.00
   -5   16   15     -1.46      0.00
   -4   15   15     -0.14      0.00
   -3   14   15      0.47      0.00
   -2   13   15      0.97      0.00
   -1   12   15      0.67      0.00
    0   11   15      2.32      0.00
   -4   16   15      0.06      0.00
   -3   15   15     -0.32      0.00
   -2   14   15     -0.38      0.00
   -1   13   15      0.22      0.00
    0   12   15      1.10      0.00
   -2   15   15     -0.38      0.00
   -1   14   15      0.58      0.00
    0   13   15     -0.97      0.00
   -1   15   15      0.69      0.00
    0   14   15     -0.58      0.00
   -1    3   16      3.08      0.00
    0    2   16     -2.92      0.00
   -1    2   16      0.49      0.00
   -2    4   16     -1.99      0.00
   -2    5   16      0.89      0.00
   -1    4   16      2.25      0.00
    0    3   16      2.01      0.00
   -3    6   16      1.05      0.00
   -3    7   16      1.00      0.00
   -2    6   16     -1.31      0.00
   -1    5   16      0.26      0.00
    0    4   16     -1.23      0.00
   -4    8   16     -1.75      0.00
   -4    9   16     -1.48      0.00
   -3    8   16     -0.14      0.00
   -2    7   16      1.07      0.00
   -1    6   16      0.35      0.00
    0    5   16     -1.85      0.00
   -5   10   16     -0.77      0.00
   -5   11   16     -1.16      0.00
   -4   10   16     -0.87      0.00
   -3    9   16     -3.72      0.00
   -2    8   16      0.20      0.00
   -1    7   16     -0.94      0.00
    0    6   16      1.52      0.00
   -6   12   16     -2.72      0.00
   -6   13   16     -1.00      0.00
   -5   12   16     -2.31      0.00
   -4   11   16     -0.74      0.00
   -3   10   16     -1.26      0.00
   -2    9   16     -0.01      0.00
   -1    8   16     -0.03      0.00
    0    7   16     -0.06      0.00
   -7   14   16     -1.54      0.00
   -7   15   16     -1.62      0.00
   -6   14   16     -0.07      0.00
   -5   13   16      0.42      0.00
   -4   12   16      0.04      0.00
   -3   11   16     -1.44      0.00
   -2   10   16     -3.10      0.00
   -1    9   16     -1.50      0.00
    0    8   16     -1.39      0.00
   -8   16   16      0.44      0.00
   -7   16   16     -1.40      0.00
   -6   15   16      1.14      0.00
   -5   14   16      0.10      0.00
   -4   13   16     -1.36      0.00
   -3   12   16     -0.57      0.00
   -2   11   16      1.57      0.00
   -1   10   16     -2.40      0.00
    0    9   16     -0.10      0.00
   -6   16   16      0.13      0.00
   -5   15   16     -0.27      0.00
   -4   14   16     -1.27      0.00
   -3   13   16      0.25      0.00
   -2   12   16     -0.61      0.00
   -1   11   16     -1.00      0.00
    0   10   16      0.01      0.00
   -4   15   16     -0.24      0.00
   -3   14   16     -2.41      0.00
   -2   13   16      0.51      0.00
   -1   12   16     -1.11      0.00
    0   11   16      1.38      0.00
   -3   15   16      1.49      0.00
   -2   14   16     -2.84      0.00
   -1   13   16      0.14      0.00
    0   12   16     -0.66      0.00
   -1   14   16      0.58      0.00
    0   13   16     -0.03      0.00
    0   14   16      0.12      0.00
   -2   15   16      1.36      0.00
   -1    3   17     -0.36      0.00
    0    3   17     -2.03      0.00
   -3    7   17      1.64      0.00
   -2    6   17      1.65      0.00
   -1    5   17      0.59      0.00
    0    4   17     -0.97      0.00
   -4    9   17      0.20      0.00
   -3    8   17     -0.19      0.00
   -2    7   17     -1.38      0.00
   -1    6   17      0.49      0.00
    0    5   17     -1.14      0.00
   -5   11   17     -0.64      0.00
   -4   10   17     -1.31      0.00
   -3    9   17      0.43      0.00
   -2    8   17      1.84      0.00
   -1    7   17     -0.70      0.00
    0    6   17      0.92      0.00
   -6   13   17     -2.85      0.00
   -5   12   17      0.68      0.00
   -4   11   17     -2.03      0.00
   -3   10   17     -0.09      0.00
   -2    9   17     -0.27      0.00
   -1    8   17     -0.69      0.00
    0    7   17     -0.94      0.00
   -7   15   17      1.30      0.00
   -6   14   17     -1.18      0.00
   -5   13   17     -0.26      0.00
   -4   12   17      0.04      0.00
   -3   11   17     -0.65      0.00
   -2   10   17     -0.28      0.00
   -1    9   17      0.75      0.00
    0    8   17      1.08      0.00
   -6   15   17      0.27      0.00
   -5   14   17     -2.71      0.00
   -4   13   17     -0.06      0.00
   -3   12   17      0.33      0.00
   -2   11   17     -0.88      0.00
   -1   10   17      0.65      0.00
    0    9   17      0.21      0.00
   -5   15   17      0.69      0.00
   -4   14   17     -0.01      0.00
   -3   13   17     -0.57      0.00
   -2   12   17      0.40      0.00
   -1   11   17      0.38      0.00
    0   10   17      0.68      0.00
   -4   15   17     -2.13      0.00
   -3   14   17     -1.59      0.00
   -2   13   17     -0.37      0.00
   -1   12   17     -1.02      0.00
    0   11   17     -0.13      0.00
   -1   13   17     -0.66      0.00
    0   12   17     -0.60      0.00
    0   13   17      0.30      0.00
   -1   14   17      0.17      0.00
   -2   14   17      0.30      0.00
   -2    5   18     -3.44      0.00
    0    3   18     -2.84      0.00
   -3    6   18     -0.17      0.00
   -3    7   18     -3.46      0.00
   -2    6   18     -2.89      0.00
   -1    5   18     -1.33      0.00
    0    4   18      0.60      0.00
   -4    8   18     -1.67      0.00
   -4    9   18     -0.79      0.00
   -3    8   18     -4.29      0.00
   -2    7   18     -1.47      0.00
   -1    6   18     -0.86      0.00
    0    5   18     -2.56      0.00
   -5   10   18     -1.81      0.00
   -5   11   18     -0.69      0.00
   -4   10   18     -0.92      0.00
   -3    9   18     -0.15      0.00
   -2    8   18     -1.45      0.00
   -1    7   18     -3.29      0.00
    0    6   18     -4.17      0.00
   -6   12   18     -1.87      0.00
   -6   13   18      1.28      0.00
   -5   12   18      0.30      0.00
   -4   11   18     -2.97      0.00
   -3   10   18     -1.42      0.00
   -2    9   18     -1.76      0.00
   -1    8   18      0.00      0.00
    0    7   18     -0.45      0.00
   -7   14   18     -0.44      0.00
   -6   14   18      0.48      0.00
   -5   13   18     -1.74      0.00
   -4   12   18     -0.29      0.00
   -3   11   18      0.49      0.00
   -2   10   18     -0.27      0.00
   -1    9   18     -2.60      0.00
    0    8   18     -1.43      0.00
   -5   14   18      1.51      0.00
   -4   13   18     -0.90      0.00
   -3   12   18      0.06      0.00
   -2   11   18     -0.79      0.00
   -1   10   18      0.17      0.00
    0    9   18     -2.68      0.00
   -4   14   18      0.45      0.00
   -3   13   18     -1.31      0.00
   -2   12   18      1.69      0.00
   -1   11   18     -0.42      0.00
    0   10   18     -0.42      0.00
   -2   13   18      0.09      0.00
   -1   12   18      0.40      0.00
    0   11   18      0.06      0.00
    0   12   18      0.53      0.00
   -1   13   18     -1.65      0.00
   -1    3   19     -1.27      0.00
   -2    5   19      0.42      0.00
   -1    4   19     -1.94      0.00
   -3    7   19     -0.84      0.00
   -2    6   19     -2.19      0.00
   -1    5   19     -1.49      0.00
    0    4   19      0.79      0.00
   -4    9   19      1.80      0.00
   -3    8   19     -0.01      0.00
   -2    7   19      0.17      0.00
   -1    6   19     -0.59      0.00
    0    5   19      0.52      0.00
   -5   11   19      1.09      0.00
   -4   10   19     -1.63      0.00
   -3    9   19     -1.53      0.00
   -2    8   19     -0.01      0.00
   -1    7   19      0.23      0.00
    0    6   19     -2.36      0.00
   -6   13   19     -0.48      0.00
   -5   12   19     -2.54      0.00
   -4   11   19      1.20      0.00
   -3   10   19     -2.29      0.00
   -2    9   19      0.27      0.00
   -1    8   19      0.32      0.00
    0    7   19      2.23      0.00
   -6   14   19      0.07      0.00
   -5   13   19     -1.67      0.00
   -4   12   19     -0.07      0.00
   -3   11   19     -0.31      0.00
   -2   10   19     -2.90      0.00
   -1    9   19      0.38      0.00
    0    8   19      0.03      0.00
   -4   13   19     -0.66      0.00
   -3   12   19     -1.19      0.00
   -2   11   19     -0.95      0.00
   -1   10   19      1.79      0.00
    0    9   19     -1.10      0.00
   -3   13   19     -0.77      0.00
   -2   12   19     -2.11      0.00
   -1   11   19     -1.30      0.00
    0   10   19      1.44      0.00
    0   11   19      0.04      0.00
   -1   12   19      0.76      0.00
   -2    4   20     -2.11      0.00
   -2    5   20     -1.15      0.00
   -1    4   20     -1.38      0.00
   -3    6   20     -2.09      0.00
   -3    7   20     -2.03      0.00
   -2    6   20     -3.00      0.00
   -1    5   20     -0.96      0.00
    0    4   20     -3.26      0.00
   -4    8   20     -1.79      0.00
   -4    9   20     -0.22      0.00
   -3    8   20     -1.18      0.00
   -2    7   20     -1.63      0.00
   -1    6   20     -3.44      0.00
    0    5   20     -0.64      0.00
   -5   10   20      0.69      0.00
   -5   11   20      0.91      0.00
   -4   10   20      1.13      0.00
   -3    9   20     -0.76      0.00
   -2    8   20      0.39      0.00
   -1    7   20     -0.99      0.00
    0    6   20      0.28      0.00
   -6   12   20      1.27      0.00
   -6   13   20     -1.35      0.00
   -5   12   20      1.84      0.00
   -4   11   20      0.01      0.00
   -3   10   20      0.69      0.00
   -2    9   20      0.04      0.00
   -1    8   20     -0.71      0.00
    0    7   20     -1.19      0.00
   -4   12   20     -0.09      0.00
   -3   11   20      1.63      0.00
   -2   10   20      0.48      0.00
   -1    9   20      0.77      0.00
    0    8   20     -1.22      0.00
   -5   13   20      1.48      0.00
   -3   12   20      1.32      0.00
   -2   11   20      0.14      0.00
   -1   10   20     -0.71      0.00
    0    9   20     -0.31      0.00
   -1   11   20      4.04      0.00
    0   10   20      0.14      0.00
   -2   12   20     -2.59      0.00
   -2    5   21     -0.53      0.00
   -1    4   21     -0.63      0.00
   -3    7   21     -0.62      0.00
   -2    6   21     -0.85      0.00
   -1    5   21     -2.05      0.00
    0    4   21     -2.05      0.00
   -4    9   21     -0.42      0.00
   -3    8   21      0.87      0.00
   -2    7   21     -0.96      0.00
   -1    6   21     -2.20      0.00
    0    5   21     -2.60      0.00
   -5   11   21      0.35      0.00
   -4   10   21     -1.61      0.00
   -3    9   21     -0.28      0.00
   -2    8   21      1.48      0.00
   -1    7   21     -0.40      0.00
    0    6   21      0.40      0.00
   -4   11   21     -3.23      0.00
   -3   10   21     -0.15      0.00
   -2    9   21     -1.56      0.00
   -1    8   21      1.22      0.00
    0    7   21      0.00      0.00
   -5   12   21     -1.23      0.00
   -3   11   21     -1.51      0.00
   -2   10   21      1.14      0.00
   -1    9   21     -1.24      0.00
    0    8   21     -0.13      0.00
   -1   10   21     -0.67      0.00
    0    9   21     -0.59      0.00
   -2   11   21      1.67      0.00
    0   10   21     -1.39      0.00
   -1    3   22     -2.50      0.00
   -2    4   22      1.87      0.00
   -2    5   22     -1.10      0.00
   -1    4   22     -0.54      0.00
    0    3   22      2.34      0.00
   -3    6   22     -0.99      0.00
   -3    7   22     -0.75      0.00
   -2    6   22     -0.42      0.00
   -1    5   22      1.71      0.00
    0    4   22      2.74      0.00
   -4    8   22     -0.09      0.00
   -4    9   22      2.11      0.00
   -3    8   22      2.03      0.00
   -2    7   22     -0.19      0.00
   -1    6   22      0.66      0.00
    0    5   22      0.15      0.00
   -5   10   22      2.72      0.00
   -4   10   22      0.94      0.00
   -3    9   22      1.67      0.00
   -2    8   22     -0.82      0.00
   -1    7   22      1.33      0.00
    0    6   22      2.57      0.00
   -3   10   22      1.86      0.00
   -2    9   22      0.28      0.00
   -1    8   22      1.36      0.00
    0    7   22      1.02      0.00
    0    8   22      0.45      0.00
   -1    9   22      0.94      0.00
   -2   10   22      3.26      0.00
    0    9   22      2.83      0.00
   -1    3   23     -3.62      0.00
   -2    5   23     -0.40      0.00
   -1    4   23     -0.77      0.00
    0    3   23     -2.51      0.00
   -3    7   23      0.79      0.00
   -2    6   23     -2.33      0.00
   -1    5   23     -1.53      0.00
    0    4   23     -4.13      0.00
   -4    9   23     -0.56      0.00
   -3    8   23     -0.34      0.00
   -2    7   23     -2.44      0.00
   -1    6   23     -0.54      0.00
    0    5   23      0.60      0.00
   -2    8   23     -0.26      0.00
   -1    7   23      0.24      0.00
    0    6   23     -0.92      0.00
   -3    9   23      1.36      0.00
    0    7   23      0.07      0.00
   -1    8   23      0.62      0.00
    0    8   23      0.98      0.00
   -1    2   24     -3.87      0.00
   -1    3   24      1.85      0.00
    0    2   24      2.50      0.00
   -2    4   24      2.38      0.00
   -2    5   24      5.13      0.00
   -1    4   24      3.67      0.00
    0    3   24      0.46      0.00
   -3    6   24     -0.31      0.00
   -3    7   24     -1.49      0.00
   -2    6   24      0.88      0.00
   -1    5   24      1.45      0.00
    0    4   24      1.65      0.00
   -1    6   24      1.59      0.00
    0    5   24      2.60      0.00
   -2    7   24     -1.20      0.00
    0    6   24      0.91      0.00
    0    1   25      2.41      0.00
   -1    3   25     -0.89      0.00
    0    2   25     -0.52      0.00
   -1    4   25     -2.38      0.00
    0    3   25     -1.45      0.00
    0    4   25     -0.96      0.00
    0   17    0      4.12      0.00
   -1   18    0     -0.69      0.00
    0   18    0      4.27      0.00
   -2   19    0      0.54      0.00
   -1   19    0      0.87      0.00
    0   19    0     -0.61      0.00
   -4   20    0      2.16      0.00
   -3   20    0     -1.05      0.00
   -2   20    0      0.52      0.00
   -1   20    0      0.23      0.00
    0   20    0      0.27      0.00
    0    1    1    -17.99      0.00
    0   17    1      1.25      0.00
   -1   18    1     -0.96      0.00
    0   18    1     -0.18      0.00
   -2   19    1      0.54      0.00
   -1   19    1      0.61      0.00
    0   19    1      1.24      0.00
   -4   20    1     -0.15      0.00
   -3   20    1      0.02      0.00
   -2   20    1     -1.75      0.00
   -1   20    1     -0.13      0.00
    0   20    1     -0.58      0.00
    0    0    2   -112.91      0.00
    0   17    2     -0.01      0.00
    0   18    2     -0.92      0.00
   -2   19    2     -0.10      0.00
   -1   19    2      1.39      0.00
    0   19    2      1.63      0.00
   -5   20    2     -0.06      0.00
   -4   20    2     -0.57      0.00
   -3   20    2      0.48      0.00
   -2   20    2      0.08      0.00
   -1   20    2      0.39      0.00
    0   20    2     -0.37      0.00
   -1    3    3     27.50      0.00
    0   18    3      1.79      0.00
   -2   19    3     -0.66      0.00
   -1   19    3     -0.68      0.00
    0   19    3      1.47      0.00
   -5   20    3     -0.92      0.00
   -4   20    3     -0.12      0.00
   -3   20    3      0.40      0.00
   -2   20    3      0.72      0.00
   -1   20    3      0.78      0.00
    0   20    3     -0.91      0.00
    0    0    4     38.66      0.00
    0   18    4      1.28      0.00
   -2   19    4      0.81      0.00
   -1   19    4     -0.67      0.00
    0   19    4      2.92      0.00
   -5   20    4      1.09      0.00
   -4   20    4     -0.28      0.00
   -3   20    4      0.71      0.00
   -2   20    4      0.72      0.00
   -1   20    4     -0.26      0.00
    0   20    4      0.80      0.00
    0   18    5     -0.10      0.00
   -3   19    5      0.16      0.00
   -2   19    5      1.04      0.00
   -1   19    5      0.95      0.00
    0   19    5      0.31      0.00
   -6   20    5     -0.49      0.00
   -5   20    5      0.88      0.00
   -4   20    5     -1.48      0.00
   -3   20    5     -0.64      0.00
   -2   20    5      0.50      0.00
   -1   20    5     -0.14      0.00
    0   20    5      1.16      0.00
   -1   18    6      0.33      0.00
    0   18    6      1.39      0.00
   -3   19    6      1.52      0.00
   -2   19    6      0.62      0.00
   -1   19    6      1.30      0.00
    0   19    6      0.13      0.00
   -7   20    6      0.33      0.00
   -6   20    6      0.38      0.00
   -5   20    6     -0.38      0.00
   -4   20    6      0.45      0.00
   -3   20    6     -0.52      0.00
   -2   20    6      0.08      0.00
   -1   20    6      1.23      0.00
    0   20    6      1.32      0.00
   -1   18    7      0.21      0.00
    0   18    7     -3.02      0.00
   -3   19    7     -0.22      0.00
   -2   19    7     -0.54      0.00
   -1   19    7      1.62      0.00
    0   19    7     -1.08      0.00
   -9   20    7     -0.09      0.00
   -8   20    7      0.59      0.00
   -7   20    7     -0.17      0.00
   -6   20    7      1.02      0.00
   -5   20    7      0.10      0.00
   -4   20    7     -0.33      0.00
   -3   20    7      0.84      0.00
   -2   20    7      0.76      0.00
   -1   20    7     -0.46      0.00
    0   20    7      2.35      0.00
   -1   18    8      0.76      0.00
    0   18    8      0.50      0.00
   -4   19    8      1.41      0.00
   -3   19    8      0.46      0.00
   -2   19    8      0.82      0.00
   -1   19    8      0.95      0.00
    0   19    8      1.63      0.00
  -10   20    8     -0.41      0.00
   -9   20    8     -1.25      0.00
   -8   20    8      0.57      0.00
   -7   20    8     -0.86      0.00
   -6   20    8      0.91      0.00
   -5   20    8      0.83      0.00
   -4   20    8      0.35      0.00
   -3   20    8      0.99      0.00
   -2   20    8      1.84      0.00
   -1   20    8      0.42      0.00
    0   20    8     -0.57      0.00
    0   17    9     -1.49      0.00
   -2   18    9     -0.96      0.00
   -1   18    9      2.00      0.00
    0   18    9     -1.66      0.00
   -5   19    9     -0.59      0.00
   -4   19    9      0.06      0.00
   -3   19    9      2.01      0.00
   -2   19    9     -1.39      0.00
   -1   19    9      0.41      0.00
    0   19    9      1.02      0.00
   -9   20    9      0.45      0.00
   -8   20    9      0.41      0.00
   -7   20    9      0.49      0.00
   -6   20    9     -0.37      0.00
   -5   20    9      0.30      0.00
   -4   20    9     -0.97      0.00
   -3   20    9      0.92      0.00
   -2   20    9     -0.43      0.00
   -1   20    9     -0.65      0.00
    0   17   10      1.24      0.00
   -3   18   10      1.80      0.00
   -2   18   10      1.80      0.00
   -1   18   10      0.41      0.00
    0   18   10      0.38      0.00
   -7   19   10      0.59      0.00
   -6   19   10     -0.57      0.00
   -5   19   10      2.11      0.00
   -4   19   10      0.89      0.00
   -3   19   10      1.16      0.00
   -2   19   10      0.75      0.00
   -1   19   10      0.35      0.00
    0   19   10     -1.28      0.00
  -10   20   10     -0.84      0.00
   -9   20   10      0.83      0.00
   -8   20   10     -0.81      0.00
   -7   20   10      0.34      0.00
   -6   20   10     -0.34      0.00
   -5   20   10      0.61      0.00
   -4   20   10      1.23      0.00
   -3   20   10      0.61      0.00
   -2   20   10     -0.12      0.00
   -1   20   10      1.14      0.00
   -1   17   11     -1.52      0.00
    0   17   11     -0.20      0.00
   -4   18   11     -0.31      0.00
   -3   18   11      0.03      0.00
   -2   18   11      1.45      0.00
   -1   18   11     -2.23      0.00
    0   18   11     -0.29      0.00
   -9   19   11     -0.71      0.00
   -8   19   11      0.40      0.00
   -7   19   11      1.07      0.00
   -6   19   11      0.22      0.00
   -5   19   11     -0.64      0.00
   -4   19   11     -0.52      0.00
   -3   19   11     -1.33      0.00
   -2   19   11     -0.37      0.00
   -1   19   11     -0.74      0.00
    0   19   11      0.42      0.00
   -9   20   11      0.55      0.00
   -8   20   11     -0.71      0.00
   -7   20   11      0.01      0.00
   -6   20   11     -0.65      0.00
   -5   20   11     -0.66      0.00
   -4   20   11      0.60      0.00
   -3   20   11     -0.20      0.00
   -2   20   11      0.30      0.00
    0   16   12      0.66      0.00
   -2   17   12      0.20      0.00
   -1   17   12      0.22      0.00
    0   17   12      0.71      0.00
   -5   18   12      0.02      0.00
   -4   18   12     -0.18      0.00
   -3   18   12      0.51      0.00
   -2   18   12      3.19      0.00
   -1   18   12     -1.21      0.00
    0   18   12     -1.79      0.00
   -9   19   12     -0.34      0.00
   -8   19   12      0.40      0.00
   -7   19   12     -0.91      0.00
   -6   19   12     -0.53      0.00
   -5   19   12     -0.39      0.00
   -4   19   12      1.60      0.00
   -3   19   12     -0.61      0.00
   -2   19   12      1.24      0.00
   -1   19   12      0.76      0.00
    0   19   12     -0.52      0.00
  -10   20   12     -0.01      0.00
   -9   20   12     -1.33      0.00
   -8   20   12     -1.06      0.00
   -7   20   12     -0.68      0.00
   -6   20   12      1.15      0.00
   -5   20   12      0.60      0.00
   -4   20   12      1.11      0.00
   -3   20   12      1.29      0.00
   -2   20   12      0.10      0.00
    0   16   13      1.90      0.00
   -3   17   13      1.36      0.00
   -2   17   13     -0.16      0.00
   -1   17   13     -0.45      0.00
    0   17   13     -1.28      0.00
   -8   18   13      0.67      0.00
   -7   18   13     -1.00      0.00
   -6   18   13      1.49      0.00
   -5   18   13     -1.03      0.00
   -4   18   13     -0.28      0.00
   -3   18   13      0.70      0.00
   -2   18   13     -1.85      0.00
   -1   18   13     -0.58      0.00
    0   18   13     -0.49      0.00
   -9   19   13     -0.36      0.00
   -8   19   13     -1.29      0.00
   -7   19   13     -0.46      0.00
   -6   19   13     -0.60      0.00
   -5   19   13      0.11      0.00
   -4   19   13     -0.23      0.00
   -3   19   13     -0.94      0.00
   -2   19   13     -0.33      0.00
   -1   19   13      0.19      0.00
   -9   20   13     -0.02      0.00
   -8   20   13     -0.23      0.00
   -7   20   13      0.31      0.00
   -6   20   13      0.81      0.00
   -5   20   13     -1.28      0.00
   -4   20   13     -0.58      0.00
   -3   20   13     -0.38      0.00
    0    0   14      4.50      0.00
   -1   16   14     -0.04      0.00
    0   16   14     -1.74      0.00
   -4   17   14     -0.21      0.00
   -3   17   14      0.29      0.00
   -2   17   14     -1.03      0.00
   -1   17   14      1.07      0.00
    0   17   14     -0.78      0.00
   -9   18   14     -0.76      0.00
   -8   18   14      0.01      0.00
   -7   18   14     -0.42      0.00
   -6   18   14     -0.06      0.00
   -5   18   14      1.48      0.00
   -4   18   14     -1.70      0.00
   -3   18   14      0.77      0.00
   -2   18   14     -1.17      0.00
   -1   18   14     -0.98      0.00
    0   18   14      1.03      0.00
   -9   19   14     -2.10      0.00
   -8   19   14     -0.89      0.00
   -7   19   14     -0.52      0.00
   -6   19   14     -0.20      0.00
   -5   19   14      1.03      0.00
   -4   19   14      0.31      0.00
   -3   19   14      1.25      0.00
   -2   19   14      0.46      0.00
   -1   19   14     -0.16      0.00
  -10   20   14      0.49      0.00
   -9   20   14      0.77      0.00
   -8   20   14     -1.06      0.00
   -7   20   14      0.00      0.00
   -6   20   14     -0.89      0.00
   -5   20   14     -0.73      0.00
   -4   20   14      0.57      0.00
    0   15   15      2.67      0.00
   -3   16   15      0.44      0.00
   -2   16   15      2.34      0.00
   -1   16   15      0.79      0.00
    0   16   15     -1.12      0.00
   -8   17   15     -0.47      0.00
   -7   17   15     -1.58      0.00
   -6   17   15      0.33      0.00
   -5   17   15     -1.15      0.00
   -4   17   15     -1.01      0.00
   -3   17   15     -0.27      0.00
   -2   17   15      0.64      0.00
   -1   17   15      2.36      0.00
    0   17   15     -1.05      0.00
   -8   18   15      0.12      0.00
   -7   18   15      0.46      0.00
   -6   18   15     -1.34      0.00
   -5   18   15      0.93      0.00
   -4   18   15     -1.57      0.00
   -3   18   15      0.66      0.00
   -2   18   15     -0.38      0.00
   -1   18   15     -1.35      0.00
    0   18   15      0.43      0.00
   -9   19   15     -0.58      0.00
   -8   19   15      0.96      0.00
   -7   19   15      0.23      0.00
   -6   19   15      0.17      0.00
   -5   19   15     -0.12      0.00
   -4   19   15     -1.76      0.00
   -3   19   15     -0.79      0.00
   -2   19   15      0.22      0.00
   -9   20   15     -0.45      0.00
   -8   20   15     -0.97      0.00
   -7   20   15     -0.40      0.00
   -6   20   15     -0.62      0.00
   -5   20   15     -0.14      0.00
    0    0   16    -10.44      0.00
    0    1   16      0.55      0.00
   -1   15   16      0.84      0.00
    0   15   16      1.46      0.00
   -5   16   16     -1.46      0.00
   -4   16   16     -0.52      0.00
   -3   16   16      0.48      0.00
   -2   16   16     -0.53      0.00
   -1   16   16      0.52      0.00
    0   16   16     -1.32      0.00
   -8   17   16     -0.11      0.00
   -7   17   16      0.21      0.00
   -6   17   16     -0.67      0.00
   -5   17   16      0.61      0.00
   -4   17   16      1.72      0.00
   -3   17   16     -1.22      0.00
   -2   17   16      0.40      0.00
   -1   17   16     -1.64      0.00
    0   17   16     -1.47      0.00
   -9   18   16     -1.58      0.00
   -8   18   16     -0.54      0.00
   -7   18   16      0.67      0.00
   -6   18   16      0.15      0.00
   -5   18   16     -1.36      0.00
   -4   18   16      0.56      0.00
   -3   18   16     -0.86      0.00
   -2   18   16     -0.55      0.00
   -1   18   16      0.24      0.00
   -9   19   16      0.86      0.00
   -8   19   16      0.19      0.00
   -7   19   16     -1.08      0.00
   -6   19   16     -0.47      0.00
   -5   19   16     -1.63      0.00
   -4   19   16     -1.61      0.00
   -3   19   16     -0.15      0.00
  -10   20   16     -0.24      0.00
   -9   20   16     -1.61      0.00
   -8   20   16      0.18      0.00
   -7   20   16     -0.29      0.00
    0    1   17     -2.39      0.00
    0    2   17     -5.12      0.00
   -1    4   17     -1.89      0.00
   -2    5   17     -1.70      0.00
    0   14   17      1.66      0.00
   -3   15   17      1.31      0.00
   -2   15   17      0.38      0.00
   -1   15   17      1.05      0.00
    0   15   17      3.01      0.00
   -7   16   17     -2.65      0.00
   -6   16   17     -0.60      0.00
   -5   16   17      0.16      0.00
   -4   16   17     -1.04      0.00
   -3   16   17     -1.16      0.00
   -2   16   17      1.17      0.00
   -1   16   17     -0.56      0.00
    0   16   17      1.55      0.00
   -8   17   17      0.03      0.00
   -7   17   17      0.50      0.00
   -6   17   17     -0.37      0.00
   -5   17   17     -0.99      0.00
   -4   17   17      0.81      0.00
   -3   17   17     -1.64      0.00
   -2   17   17      0.19      0.00
   -1   17   17      1.28      0.00
    0   17   17     -0.05      0.00
   -8   18   17     -0.90      0.00
   -7   18   17     -0.73      0.00
   -6   18   17      0.48      0.00
   -5   18   17     -2.10      0.00
   -4   18   17     -0.76      0.00
   -3   18   17     -0.59      0.00
   -2   18   17      0.42      0.00
   -9   19   17      0.57      0.00
   -8   19   17     -0.11      0.00
   -7   19   17     -0.87      0.00
   -6   19   17     -0.87      0.00
   -5   19   17     -0.34      0.00
    0    0   18     -5.37      0.00
    0    1   18     -8.43      0.00
   -1    2   18     -9.02      0.00
    0    2   18     -6.17      0.00
   -1    3   18     -5.49      0.00
   -2    4   18      0.68      0.00
   -1    4   18     -5.00      0.00
    0   13   18     -0.86      0.00
   -3   14   18      0.77      0.00
   -2   14   18      2.32      0.00
   -1   14   18      1.69      0.00
    0   14   18      0.29      0.00
   -7   15   18      1.10      0.00
   -6   15   18      0.84      0.00
   -5   15   18     -1.47      0.00
   -4   15   18      0.19      0.00
   -3   15   18     -0.05      0.00
   -2   15   18     -1.14      0.00
   -1   15   18     -0.28      0.00
    0   15   18      0.09      0.00
   -8   16   18      2.10      0.00
   -7   16   18      1.02      0.00
   -6   16   18     -1.36      0.00
   -5   16   18      0.64      0.00
   -4   16   18      1.10      0.00
   -3   16   18      1.38      0.00
   -2   16   18      0.73      0.00
   -1   16   18     -0.83      0.00
    0   16   18      1.64      0.00
   -8   17   18     -1.13      0.00
   -7   17   18      1.62      0.00
   -6   17   18     -0.70      0.00
   -5   17   18      0.33      0.00
   -4   17   18     -1.55      0.00
   -3   17   18     -0.30      0.00
   -2   17   18     -1.00      0.00
   -1   17   18      0.33      0.00
   -9   18   18      2.60      0.00
   -8   18   18     -0.60      0.00
   -7   18   18      0.00      0.00
   -6   18   18     -1.16      0.00
   -5   18   18     -0.48      0.00
   -4   18   18     -0.17      0.00
   -3   18   18     -1.29      0.00
   -9   19   18     -0.48      0.00
   -8   19   18     -0.13      0.00
   -7   19   18     -0.32      0.00
    0    1   19      2.16      0.00
    0    2   19     -3.80      0.00
    0    3   19     -0.08      0.00
    0   12   19     -3.37      0.00
   -2   13   19     -0.20      0.00
   -1   13   19     -0.36      0.00
    0   13   19     -2.33      0.00
   -5   14   19      0.77      0.00
   -4   14   19     -3.89      0.00
   -3   14   19      0.15      0.00
   -2   14   19     -0.74      0.00
   -1   14   19      1.22      0.00
    0   14   19     -1.39      0.00
   -7   15   19     -0.92      0.00
   -6   15   19      1.48      0.00
   -5   15   19     -1.06      0.00
   -4   15   19     -2.31      0.00
   -3   15   19     -0.26      0.00
   -2   15   19      0.83      0.00
   -1   15   19     -0.38      0.00
    0   15   19     -0.25      0.00
   -7   16   19      0.42      0.00
   -6   16   19      0.54      0.00
   -5   16   19      0.23      0.00
   -4   16   19     -1.05      0.00
   -3   16   19      0.93      0.00
   -2   16   19      0.02      0.00
   -1   16   19      1.73      0.00
    0   16   19      0.91      0.00
   -8   17   19     -0.90      0.00
   -7   17   19     -0.92      0.00
   -6   17   19     -1.70      0.00
   -5   17   19     -1.31      0.00
   -4   17   19     -1.12      0.00
   -3   17   19      0.81      0.00
   -2   17   19      0.93      0.00
   -8   18   19      0.45      0.00
   -7   18   19      0.31      0.00
   -6   18   19     -1.12      0.00
   -5   18   19     -0.31      0.00
    0    0   20     -1.42      0.00
    0    1   20    -12.63      0.00
   -1    2   20     -8.76      0.00
    0    2   20    -10.91      0.00
   -1    3   20     -4.42      0.00
    0    3   20     -6.12      0.00
    0   11   20      3.17      0.00
   -1   12   20      0.34      0.00
    0   12   20      3.16      0.00
   -4   13   20      4.41      0.00
   -3   13   20      0.94      0.00
   -2   13   20     -1.45      0.00
   -1   13   20      1.60      0.00
    0   13   20      2.29      0.00
   -7   14   20      2.10      0.00
   -6   14   20      1.70      0.00
   -5   14   20     -0.02      0.00
   -4   14   20      0.82      0.00
   -3   14   20     -1.48      0.00
   -2   14   20      0.34      0.00
   -1   14   20      0.67      0.00
    0   14   20     -1.63      0.00
   -7   15   20      4.63      0.00
   -6   15   20      0.93      0.00
   -5   15   20      0.82      0.00
   -4   15   20      0.38      0.00
   -3   15   20      0.49      0.00
   -2   15   20      1.03      0.00
   -1   15   20      1.62      0.00
    0   15   20      1.06      0.00
   -8   16   20      1.26      0.00
   -7   16   20      0.62      0.00
   -6   16   20      2.81      0.00
   -5   16   20     -0.12      0.00
   -4   16   20     -1.68      0.00
   -3   16   20      0.74      0.00
   -2   16   20      0.27      0.00
   -1   16   20     -0.32      0.00
   -8   17   20      0.50      0.00
   -7   17   20     -0.39      0.00
   -6   17   20      0.58      0.00
   -5   17   20      0.42      0.00
   -4   17   20      1.02      0.00
   -9   18   20     -0.96      0.00
    0    1   21      0.48      0.00
    0    2   21      2.80      0.00
   -1    3   21      1.42      0.00
    0    3   21     -3.74      0.00
   -1   11   21     -1.72      0.00
    0   11   21     -2.73      0.00
   -4   12   21      0.35      0.00
   -3   12   21     -0.29      0.00
   -2   12   21      0.41      0.00
   -1   12   21     -4.21      0.00
    0   12   21      1.14      0.00
   -6   13   21      2.05      0.00
   -5   13   21     -0.34      0.00
   -4   13   21     -1.96      0.00
   -3   13   21     -0.69      0.00
   -2   13   21     -2.93      0.00
   -1   13   21     -1.16      0.00
    0   13   21      1.61      0.00
   -6   14   21     -0.57      0.00
   -5   14   21      0.32      0.00
   -4   14   21      0.31      0.00
   -3   14   21     -2.50      0.00
   -2   14   21      0.16      0.00
   -1   14   21     -1.53      0.00
    0   14   21      1.53      0.00
   -7   15   21      0.29      0.00
   -6   15   21     -1.56      0.00
   -5   15   21     -1.25      0.00
   -4   15   21      0.96      0.00
   -3   15   21     -1.34      0.00
   -2   15   21     -0.26      0.00
   -1   15   21      1.45      0.00
   -7   16   21     -0.46      0.00
   -6   16   21     -0.28      0.00
   -5   16   21     -1.97      0.00
   -4   16   21     -0.19      0.00
   -3   16   21     -0.29      0.00
   -8   17   21      0.71      0.00
   -7   17   21      0.56      0.00
   -6   17   21      0.96      0.00
    0    0   22    -14.42      0.00
    0    1   22     -8.36      0.00
   -1    2   22     -2.59      0.00
    0    2   22     -6.23      0.00
   -1   10   22      2.68      0.00
    0   10   22      1.18      0.00
   -5   11   22      3.09      0.00
   -4   11   22      3.44      0.00
   -3   11   22      0.71      0.00
   -2   11   22      2.09      0.00
   -1   11   22     -0.82      0.00
    0   11   22      0.18      0.00
   -6   12   22      1.16      0.00
   -5   12   22     -0.21      0.00
   -4   12   22      2.86      0.00
   -3   12   22      0.98      0.00
   -2   12   22      2.12      0.00
   -1   12   22      1.17      0.00
    0   12   22      1.33      0.00
   -6   13   22      1.91      0.00
   -5   13   22      1.01      0.00
   -4   13   22     -0.13      0.00
   -3   13   22      0.03      0.00
   -2   13   22      1.01      0.00
   -1   13   22      0.79      0.00
    0   13   22      1.58      0.00
   -7   14   22      3.24      0.00
   -6   14   22      1.53      0.00
   -5   14   22      2.02      0.00
   -4   14   22      0.64      0.00
   -3   14   22      0.83      0.00
   -2   14   22      0.45      0.00
   -1   14   22      0.77      0.00
    0   14   22      2.28      0.00
   -7   15   22      2.81      0.00
   -6   15   22      1.81      0.00
   -5   15   22      0.58      0.00
   -4   15   22      0.13      0.00
   -3   15   22      0.41      0.00
   -2   15   22      0.50      0.00
   -8   16   22      1.41      0.00
   -7   16   22      1.96      0.00
   -6   16   22      0.29      0.00
   -5   16   22      1.17      0.00
    0    1   23     -4.26      0.00
    0    2   23      0.84      0.00
   -2    9   23      1.32      0.00
   -1    9   23      2.22      0.00
    0    9   23      1.69      0.00
   -4   10   23      0.02      0.00
   -3   10   23     -1.52      0.00
   -2   10   23     -0.93      0.00
   -1   10   23     -2.35      0.00
    0   10   23     -3.15      0.00
   -5   11   23     -1.65      0.00
   -4   11   23     -0.18      0.00
   -3   11   23     -1.00      0.00
   -2   11   23     -0.76      0.00
   -1   11   23     -0.29      0.00
    0   11   23     -4.09      0.00
   -5   12   23      0.46      0.00
   -4   12   23     -1.54      0.00
   -3   12   23      0.10      0.00
   -2   12   23     -2.63      0.00
   -1   12   23     -0.34      0.00
    0   12   23     -2.27      0.00
   -6   13   23     -0.26      0.00
   -5   13   23      1.53      0.00
   -4   13   23      0.24      0.00
   -3   13   23      0.12      0.00
   -2   13   23     -0.10      0.00
   -1   13   23     -0.94      0.00
    0   13   23      0.79      0.00
   -6   14   23      0.61      0.00
   -5   14   23     -0.44      0.00
   -4   14   23     -0.19      0.00
   -3   14   23     -0.23      0.00
   -2   14   23     -0.84      0.00
   -7   15   23      0.26      0.00
   -6   15   23     -1.04      0.00
   -5   15   23     -0.78      0.00
    0    0   24     -2.77      0.00
    0    1   24     -1.72      0.00
   -1    7   24      2.90      0.00
    0    7   24      5.33      0.00
   -4    8   24      3.36      0.00
   -3    8   24      0.55      0.00
   -2    8   24      1.95      0.00
   -1    8   24      1.58      0.00
    0    8   24      3.00      0.00
   -4    9   24      3.57      0.00
   -3    9   24      1.82      0.00
   -2    9   24      2.08      0.00
   -1    9   24      0.06      0.00
    0    9   24      0.41      0.00
   -5   10   24      1.76      0.00
   -4   10   24      2.90      0.00
   -3   10   24      1.39      0.00
   -2   10   24      0.34      0.00
   -1   10   24      0.71      0.00
    0   10   24      1.02      0.00
   -5   11   24      0.67      0.00
   -4   11   24      0.43      0.00
   -3   11   24      1.89      0.00
   -2   11   24      0.84      0.00
   -1   11   24      1.42      0.00
    0   11   24      0.96      0.00
   -6   12   24      0.23      0.00
   -5   12   24      1.61      0.00
   -4   12   24      1.05      0.00
   -3   12   24      0.59      0.00
   -2   12   24      0.18      0.00
   -1   12   24      0.90      0.00
    0   12   24      0.21      0.00
   -6   13   24      1.49      0.00
   -5   13   24      1.07      0.00
   -4   13   24      0.09      0.00
   -3   13   24      0.95      0.00
   -2   13   24      0.39      0.00
   -1   13   24      1.00      0.00
   -7   14   24      1.46      0.00
   -6   14   24      1.52      0.00
   -5   14   24      0.87      0.00
   -4   14   24      0.13      0.00
   -2    5   25     -0.33      0.00
   -1    5   25     -3.22      0.00
    0    5   25     -5.20      0.00
   -2    6   25     -0.06      0.00
   -1    6   25      0.55      0.00
    0    6   25     -0.20      0.00
   -3    7   25      0.52      0.00
   -2    7   25      2.79      0.00
   -1    7   25      0.98      0.00
    0    7   25      4.14      0.00
   -3    8   25      0.35      0.00
   -2    8   25      1.39      0.00
   -1    8   25      0.54      0.00
    0    8   25      1.86      0.00
   -4    9   25      0.39      0.00
   -3    9   25     -2.32      0.00
   -2    9   25     -1.19      0.00
   -1    9   25      0.02      0.00
    0    9   25      0.13      0.00
   -4   10   25      0.05      0.00
   -3   10   25     -0.48      0.00
   -2   10   25      0.67      0.00
   -1   10   25     -0.31      0.00
    0   10   25      0.42      0.00
   -5   11   25     -0.60      0.00
   -4   11   25     -0.51      0.00
   -3   11   25     -0.35      0.00
   -2   11   25     -0.76      0.00
   -1   11   25     -1.55      0.00
    0   11   25     -1.60      0.00
   -5   12   25      1.04      0.00
   -4   12   25      0.01      0.00
   -3   12   25      0.61      0.00
   -2   12   25      0.07      0.00
   -1   12   25     -0.63      0.00
   -6   13   25      0.17      0.00
   -5   13   25      0.10      0.00
   -4   13   25      1.04      0.00
    0    0    0      0.00      0.00
loop_
  _platon_squeeze_void_nr
  _platon_squeeze_void_average_x
  _platon_squeeze_void_average_y
  _platon_squeeze_void_average_z
  _platon_squeeze_void_volume
  _platon_squeeze_void_count_electrons
  _platon_squeeze_void_content
   1 -0.035 -0.025  0.002      3866       813 ' '
loop_
  _platon_missing_refln_index_h
  _platon_missing_refln_index_k
  _platon_missing_refln_index_l
  _platon_missing_refln_theta
    0    1    1     3.364
    0    0    2     3.855
   -1    3    3     9.344
    0    0    4     7.728
_platon_squeeze_void_probe_radius                  1.20
_platon_squeeze_details
)
TITL 2 in P63/mmc
CELL   18.5085   18.5085   22.9306     90.00     90.00    120.00
SPGR P63/mmc
Q101 1.000 1.003 0.414 !       2.70 eA-3
C102 0.660 0.319 0.357 !       1.35 eA-3
C103 0.664 0.327 0.399 !       1.32 eA-3
C104 0.300 0.655 0.403 !       1.23 eA-3
C105 0.521 0.999 0.248 !       1.14 eA-3
C106 1.000 1.000 0.500 !       1.14 eA-3
C107 0.493 0.500 0.230 !       1.10 eA-3
C108 1.001 1.002 0.046 !       1.06 eA-3
C109 0.178 0.827 0.146 !       1.01 eA-3
C110 0.952 0.485 0.247 !       0.98 eA-3
C111 0.172 0.830 0.101 !       0.97 eA-3
C112 0.993 0.956 0.478 !       0.96 eA-3
C113 0.956 1.003 0.973 !       0.95 eA-3
C114 0.730 0.863 0.445 !       0.73 eA-3
C115 0.113 0.884 0.029 !       0.73 eA-3
C116 0.049 0.093 0.044 !       0.69 eA-3
C117 0.699 0.852 0.169 !       0.68 eA-3
C118 0.658 0.830 0.306 !       0.66 eA-3
C119 0.131 0.784 0.369 !       0.65 eA-3
C120 0.148 0.799 0.320 !       0.65 eA-3
Q121 0.383 0.766 0.096 !       0.64 eA-3
C122 0.558 0.438 0.252 !       0.62 eA-3
C123 0.063 0.188 0.475 !       0.61 eA-3
C124 0.058 0.847 0.018 !       0.61 eA-3
C125 0.752 0.811 0.472 !       0.58 eA-3
Q126 0.907 0.842 0.013 !       0.57 eA-3
C127 0.554 0.769 0.352 !       0.57 eA-3
C128 0.661 0.235 0.249 !       0.57 eA-3
C129 0.721 0.281 0.249 !       0.57 eA-3
C130 0.252 0.689 0.785 !       0.57 eA-3
C131 0.748 0.311 0.215 !       0.57 eA-3
C132 0.844 0.417 0.297 !       0.57 eA-3
Q133 0.889 0.979 0.024 !       0.56 eA-3
C134 0.720 0.888 0.294 !       0.56 eA-3
C135 0.607 0.735 0.350 !       0.55 eA-3
C136 0.661 0.828 0.248 !       0.54 eA-3
Q137 1.000 1.008 0.375 !       0.54 eA-3
C138 0.729 0.860 0.250 !       0.54 eA-3
C139 0.450 0.782 0.723 !       0.52 eA-3
C140 0.770 0.888 0.062 !       0.52 eA-3
Q141 0.893 0.789 0.016 !       0.51 eA-3
)
;
_shelx_shelxl_version_number     2014/7
_olex2_submission_special_instructions 'No special instructions were received'
loop_
_space_group_symop_operation_xyz
'x, y, z'
'x-y, x, z+1/2'
'-y, x-y, z'
'-x, -y, z+1/2'
'-x+y, -x, z'
'y, -x+y, z+1/2'
'-y, -x, -z+1/2'
'x-y, -y, -z'
'x, x-y, -z+1/2'
'y, x, -z'
'-x+y, y, -z+1/2'
'-x, -x+y, -z'
'-x, -y, -z'
'-x+y, -x, -z-1/2'
'y, -x+y, -z'
'x, y, -z-1/2'
'x-y, x, -z'
'-y, x-y, -z-1/2'
'y, x, z-1/2'
'-x+y, y, z'
'-x, -x+y, z-1/2'
'-y, -x, z'
'x-y, -y, z-1/2'
'x, x-y, z'
loop_
_atom_site_label
_atom_site_type_symbol
_atom_site_fract_x
_atom_site_fract_y
_atom_site_fract_z
_atom_site_U_iso_or_equiv
_atom_site_adp_type
_atom_site_occupancy
_atom_site_site_symmetry_order
_atom_site_calc_flag
_atom_site_refinement_flags_posn
_atom_site_refinement_flags_adp
_atom_site_refinement_flags_occupancy
_atom_site_disorder_assembly
_atom_site_disorder_group
Cu1 Cu 0.47648(3) 0.52352(3) 0.45188(5) 0.1004(6) Uani 1 2 d S TU P . .
O1 O 0.5186(2) 0.6284(2) 0.4935(2) 0.1245(14) Uani 1 1 d . U . . .
O2 O 0.5602(3) 0.5901(2) 0.5738(2) 0.1218(13) Uani 1 1 d . U . . .
O1WA O 0.449(2) 0.551(2) 0.3643(16) 0.161(9) Uani 0.59(11) 2 d S TU P A 1
H1WA H 0.4228 0.5772 0.3582 0.241 Uiso 0.59(11) 2 d RS T P A 1
H1WB H 0.4618 0.5382 0.3318 0.241 Uiso 0.59(11) 2 d RS T P A 1
C1 C 0.5506(4) 0.6415(4) 0.5435(3) 0.1095(16) Uani 1 1 d . U . . .
C2 C 0.5805(3) 0.7257(3) 0.5691(3) 0.1089(15) Uani 1 1 d . U . . .
C4 C 0.6306(4) 0.7514(4) 0.6175(3) 0.1137(16) Uani 1 1 d . U . . .
H4 H 0.6476 0.7163 0.6337 0.136 Uiso 1 1 calc R . . . .
C3 C 0.5570(5) 0.7785(2) 0.5438(4) 0.110(2) Uani 1 2 d S TU P . .
H3 H 0.5254 0.7627 0.5098 0.132 Uiso 1 2 calc RS T P . .
C5 C 0.6565(5) 0.8283(2) 0.6426(4) 0.113(2) Uani 1 2 d S TU P . .
C6 C 0.7073(5) 0.8537(2) 0.6987(4) 0.112(2) Uani 1 2 d S TU P . .
C7 C 0.6645(8) 0.8322(4) 0.7500 0.111(3) Uani 1 4 d S TU P . .
H7 H 0.6065 0.8032 0.7500 0.133 Uiso 1 4 calc RS T P . .
C8 C 0.7930(6) 0.8965(3) 0.6976(5) 0.160(4) Uani 1 2 d DS TU P . .
H8 H 0.8221 0.9111 0.6625 0.191 Uiso 0.5 2 d RS T P B 1
O3 O 0.8255(15) 0.9127(7) 0.5890(10) 0.39(2) Uani 0.5 2 d DS TU P C 2
O4 O 0.9194(13) 0.9597(6) 0.6578(12) 0.58(4) Uani 0.5 2 d DS TU P C 2
C10 C 0.8446(12) 0.9223(6) 0.6423(8) 0.202(10) Uani 0.5 2 d DS TU P C 2
C9 C 0.8323(10) 0.9161(5) 0.7500 0.190(7) Uani 1 4 d S TU P C .
H9 H 0.8903 0.9451 0.7500 0.228 Uiso 1 4 calc RS T P . .
O1WB O 0.4312(17) 0.5688(17) 0.382(3) 0.135(11) Uani 0.41(11) 2 d S TU P A 2
H1WC H 0.4050 0.5950 0.3878 0.203 Uiso 0.41(11) 2 d RS T P A 2
H1WD H 0.4361 0.5639 0.3457 0.203 Uiso 0.41(11) 2 d RS T P A 2
loop_
_atom_site_aniso_label
_atom_site_aniso_U_11
_atom_site_aniso_U_22
_atom_site_aniso_U_33
_atom_site_aniso_U_23
_atom_site_aniso_U_13
_atom_site_aniso_U_12
Cu1 0.0908(7) 0.0908(7) 0.1436(13) 0.0038(2) -0.0038(2) 0.0634(6)
O1 0.135(3) 0.099(2) 0.165(4) -0.005(2) -0.010(3) 0.078(2)
O2 0.122(3) 0.095(2) 0.166(3) -0.001(2) -0.011(3) 0.067(2)
O1WA 0.182(10) 0.182(10) 0.157(10) 0.010(6) -0.010(6) 0.121(14)
C1 0.105(4) 0.096(3) 0.144(4) 0.000(3) 0.006(3) 0.063(3)
C2 0.105(3) 0.090(3) 0.146(4) 0.005(3) 0.006(3) 0.059(3)
C4 0.115(4) 0.100(3) 0.141(4) 0.007(3) 0.007(3) 0.065(3)
C3 0.095(5) 0.085(3) 0.153(6) 0.002(2) 0.003(4) 0.047(2)
C5 0.104(5) 0.089(3) 0.151(6) 0.003(2) 0.006(4) 0.052(2)
C6 0.105(4) 0.091(3) 0.144(6) 0.0010(17) 0.002(3) 0.052(2)
C7 0.104(7) 0.092(5) 0.140(7) 0.000 0.000 0.052(3)
C8 0.095(5) 0.172(7) 0.185(9) 0.000(2) 0.001(4) 0.048(2)
O3 0.23(2) 0.58(5) 0.248(14) 0.010(6) 0.020(12) 0.115(10)
O4 0.131(11) 1.01(9) 0.29(2) 0.021(6) 0.041(11) 0.066(5)
C10 0.118(11) 0.23(2) 0.221(12) 0.021(4) 0.042(9) 0.059(5)
C9 0.107(9) 0.237(15) 0.183(11) 0.000 0.000 0.053(4)
O1WB 0.143(13) 0.143(13) 0.163(15) 0.011(6) -0.011(6) 0.104(11)
loop_
_atom_type_symbol
_atom_type_description
_atom_type_scat_dispersion_real
_atom_type_scat_dispersion_imag
_atom_type_scat_source
C C 0.0181 0.0091 'International Tables Vol C Tables 4.2.6.8 and 6.1.1.4'
H H 0.0000 0.0000 'International Tables Vol C Tables 4.2.6.8 and 6.1.1.4'
Cu Cu -1.9646 0.5888 'International Tables Vol C Tables 4.2.6.8 and 6.1.1.4'
O O 0.0492 0.0322 'International Tables Vol C Tables 4.2.6.8 and 6.1.1.4'
loop_
_geom_angle_atom_site_label_1
_geom_angle_atom_site_label_2
_geom_angle_atom_site_label_3
_geom_angle
_geom_angle_site_symmetry_1
_geom_angle_site_symmetry_3
O1 Cu1 Cu1 83.51(14) . 13_666
O1 Cu1 Cu1 83.51(14) 22_665 13_666
O1 Cu1 O1 88.9(2) . 22_665
O1 Cu1 O2 88.64(18) . 10_556
O1 Cu1 O2 167.33(19) . 13_666
O1 Cu1 O2 88.64(18) 22_665 13_666
O1 Cu1 O2 167.33(19) 22_665 10_556
O1 Cu1 O1WA 104.0(14) 22_665 .
O1 Cu1 O1WA 104.0(14) . .
O1 Cu1 O1WB 90.9(16) . .
O1 Cu1 O1WB 90.9(16) 22_665 .
O2 Cu1 Cu1 83.86(13) 13_666 13_666
O2 Cu1 Cu1 83.86(13) 10_556 13_666
O2 Cu1 O2 91.0(2) 13_666 10_556
O2 Cu1 O1WA 88.7(15) 13_666 .
O2 Cu1 O1WA 88.7(15) 10_556 .
O2 Cu1 O1WB 101.6(15) 10_556 .
O2 Cu1 O1WB 101.6(15) 13_666 .
O1WA Cu1 Cu1 169(2) . 13_666
O1WB Cu1 Cu1 172(2) . 13_666
C1 O1 Cu1 123.7(4) . .
C1 O2 Cu1 122.8(4) . 13_666
Cu1 O1WA H1WA 123.1 . .
Cu1 O1WA H1WB 127.4 . .
H1WA O1WA H1WB 109.5 . .
O1 C1 O2 126.0(6) . .
O1 C1 C2 117.0(5) . .
O2 C1 C2 117.0(6) . .
C4 C2 C1 121.0(5) . .
C4 C2 C3 119.6(6) . .
C3 C2 C1 119.4(6) . .
C2 C4 H4 119.3 . .
C2 C4 C5 121.4(6) . .
C5 C4 H4 119.3 . .
C2 C3 C2 119.8(8) . 24_565
C2 C3 H3 120.1 . .
C2 C3 H3 120.1 24_565 .
C4 C5 C4 118.1(8) 24_565 .
C4 C5 C6 120.9(4) . .
C4 C5 C6 120.9(4) 24_565 .
C7 C6 C5 117.4(7) . .
C7 C6 C8 121.4(10) . .
C8 C6 C5 121.2(9) . .
C6 C7 C6 119.4(12) 16_557 .
C6 C7 H7 120.3 . .
C6 C7 H7 120.3 16_557 .
C6 C8 H8 121.3 . .
C6 C8 C10 124.2(12) . .
C9 C8 C6 116.5(13) . .
C9 C8 H8 122.2 . .
C9 C8 C10 119.2(13) . .
O3 C10 C8 133(2) . .
O4 C10 C8 106.5(18) . .
O4 C10 O3 120.7(13) . .
C8 C9 C8 124.7(16) . 16_557
C8 C9 H9 117.6 . .
C8 C9 H9 117.6 16_557 .
Cu1 O1WB H1WC 123.3 . .
Cu1 O1WB H1WD 127.2 . .
H1WC O1WB H1WD 109.5 . .
loop_
_geom_bond_atom_site_label_1
_geom_bond_atom_site_label_2
_geom_bond_distance
_geom_bond_site_symmetry_2
Cu1 Cu1 2.673(2) 13_666
Cu1 O1 1.942(4) .
Cu1 O1 1.942(4) 22_665
Cu1 O2 1.950(4) 13_666
Cu1 O2 1.950(4) 10_556
Cu1 O1WA 2.194(18) .
Cu1 O1WB 2.16(3) .
O1 C1 1.259(7) .
O2 Cu1 1.950(4) 13_666
O2 C1 1.261(7) .
O1WA H1WA 0.8500 .
O1WA H1WB 0.8501 .
C1 C2 1.490(8) .
C2 C4 1.369(8) .
C2 C3 1.380(7) .
C4 H4 0.9300 .
C4 C5 1.380(7) .
C3 C2 1.380(7) 24_565
C3 H3 0.9300 .
C5 C4 1.380(7) 24_565
C5 C6 1.523(11) .
C6 C7 1.362(10) .
C6 C8 1.373(11) .
C7 C6 1.362(10) 16_557
C7 H7 0.9300 .
C8 H8 0.9295 .
C8 C10 1.514(10) .
C8 C9 1.357(12) .
O3 C10 1.259(10) .
O4 C10 1.251(10) .
C9 C8 1.357(12) 16_557
C9 H9 0.9300 .
O1WB H1WC 0.8499 .
O1WB H1WD 0.8500 .
