#------------------------------------------------------------------------------
#$Date: 2016-11-08 21:39:40 +0200 (Tue, 08 Nov 2016) $
#$Revision: 188124 $
#$URL: file:///home/coder/svn-repositories/cod/cif/7/04/03/7040334.cif $
#------------------------------------------------------------------------------
#
# This file is available in the Crystallography Open Database (COD),
# http://www.crystallography.net/
#
# All data on this site have been placed in the public domain by the
# contributors.
#
data_7040334
loop_
_publ_author_name
'Li, Ke'
'Lv, Xiu-Xiu'
'Shi, Lu-Lu'
'Liu, Lu'
'Li, Bao-Long'
'Wu, Bing'
_publ_section_title
;
 A new strategy to obtain tetranuclear cobalt(ii) metal-organic frameworks
 based on the [Co4(\m3-OH)2] cluster: synthesis, structures and
 properties.
;
_journal_issue                   38
_journal_name_full
'Dalton transactions (Cambridge, England : 2003)'
_journal_page_first              15078
_journal_page_last               15088
_journal_paper_doi               10.1039/c6dt02895k
_journal_volume                  45
_journal_year                    2016
_chemical_formula_moiety         '0.5(C60 H48 Co8 N12 O32)'
_chemical_formula_sum            'C30 H24 Co4 N6 O16'
_chemical_formula_weight         960.27
_space_group_crystal_system      monoclinic
_space_group_IT_number           14
_space_group_name_Hall           '-P 2yn'
_space_group_name_H-M_alt        'P 1 21/n 1'
_symmetry_space_group_name_Hall  '-P 2yn'
_symmetry_space_group_name_H-M   'P 1 21/n 1'
_atom_sites_solution_hydrogens   mixed
_audit_creation_date             2016-06-27
_audit_creation_method
;
Olex2 1.2-alpha
(compiled 2016.02.24 svn.r3266 for OlexSys, GUI svn.r5155)
;
_audit_update_record
;
2016-06-27 deposited with the CCDC.
2016-08-16 downloaded from the CCDC.
;
_cell_angle_alpha                90
_cell_angle_beta                 101.876(5)
_cell_angle_gamma                90
_cell_formula_units_Z            2
_cell_length_a                   10.1845(4)
_cell_length_b                   20.8747(8)
_cell_length_c                   10.7070(6)
_cell_measurement_reflns_used    3279
_cell_measurement_temperature    223.01(10)
_cell_measurement_theta_max      28.4120
_cell_measurement_theta_min      3.5220
_cell_volume                     2227.57(18)
_computing_cell_refinement
;
CrysAlisPro, Agilent Technologies,
Version 1.171.36.32 (release 02-08-2013 CrysAlis171 .NET)
(compiled Aug  2 2013,16:46:58)
;
_computing_data_collection
;
CrysAlisPro, Agilent Technologies,
Version 1.171.36.32 (release 02-08-2013 CrysAlis171 .NET)
(compiled Aug  2 2013,16:46:58)
;
_computing_data_reduction
;
CrysAlisPro, Agilent Technologies,
Version 1.171.36.32 (release 02-08-2013 CrysAlis171 .NET)
(compiled Aug  2 2013,16:46:58)
;
_computing_molecular_graphics    'Olex2 (Dolomanov et al., 2009)'
_computing_publication_material  'Olex2 (Dolomanov et al., 2009)'
_computing_structure_refinement  'ShelXL (Sheldrick, 2015)'
_diffrn_ambient_temperature      223.01(10)
_diffrn_detector_area_resol_mean 10.4471
_diffrn_measured_fraction_theta_full 0.999
_diffrn_measured_fraction_theta_max 0.999
_diffrn_measurement_details
;
  1 omega  -24.00   92.00   1.0000    8.0000
omega____ theta____ kappa____ phi______ frames
    -       13.6514   19.0000  150.0000 116

  2 omega  -15.00   88.00   1.0000    8.0000
omega____ theta____ kappa____ phi______ frames
    -       13.6514   57.0000 -180.0000 103

  3 omega  -38.00  -13.00   1.0000    8.0000
omega____ theta____ kappa____ phi______ frames
    -      -14.4327  -37.0000 -150.0000 25
;
_diffrn_measurement_device_type  'Xcalibur, Atlas, Gemini'
_diffrn_measurement_method       '\w scans'
_diffrn_orient_matrix_UB_11      0.0091647000
_diffrn_orient_matrix_UB_12      0.0078026000
_diffrn_orient_matrix_UB_13      -0.0621156000
_diffrn_orient_matrix_UB_21      -0.0669523000
_diffrn_orient_matrix_UB_22      0.0114327000
_diffrn_orient_matrix_UB_23      -0.0160906000
_diffrn_orient_matrix_UB_31      0.0223681000
_diffrn_orient_matrix_UB_32      0.0310225000
_diffrn_orient_matrix_UB_33      0.0215768000
_diffrn_radiation_monochromator  graphite
_diffrn_radiation_type           MoK\a
_diffrn_radiation_wavelength     0.71073
_diffrn_reflns_av_R_equivalents  0.0504
_diffrn_reflns_av_unetI/netI     0.0636
_diffrn_reflns_Laue_measured_fraction_full 0.999
_diffrn_reflns_Laue_measured_fraction_max 0.999
_diffrn_reflns_limit_h_max       12
_diffrn_reflns_limit_h_min       -12
_diffrn_reflns_limit_k_max       19
_diffrn_reflns_limit_k_min       -26
_diffrn_reflns_limit_l_max       12
_diffrn_reflns_limit_l_min       -13
_diffrn_reflns_number            12768
_diffrn_reflns_point_group_measured_fraction_full 0.999
_diffrn_reflns_point_group_measured_fraction_max 0.999
_diffrn_reflns_theta_full        25.242
_diffrn_reflns_theta_max         26.599
_diffrn_reflns_theta_min         2.826
_diffrn_source                   'Enhance (Mo) X-ray Source'
_exptl_absorpt_coefficient_mu    1.530
_exptl_absorpt_correction_T_max  1.00000
_exptl_absorpt_correction_T_min  0.91169
_exptl_absorpt_correction_type   multi-scan
_exptl_absorpt_process_details
;
CrysAlisPro, Agilent Technologies,
Version 1.171.36.32 (release 02-08-2013 CrysAlis171 .NET)
(compiled Aug  2 2013,16:46:58)
Empirical absorption correction using spherical harmonics,
 implemented in SCALE3 ABSPACK scaling algorithm.
;
_exptl_crystal_colour            'clear dark red'
_exptl_crystal_density_diffrn    1.432
_exptl_crystal_description       block
_exptl_crystal_F_000             964
_exptl_crystal_size_max          0.5
_exptl_crystal_size_mid          0.2
_exptl_crystal_size_min          0.2
_refine_diff_density_max         0.464
_refine_diff_density_min         -0.577
_refine_diff_density_rms         0.084
_refine_ls_extinction_method     none
_refine_ls_goodness_of_fit_ref   0.973
_refine_ls_hydrogen_treatment    mixed
_refine_ls_matrix_type           full
_refine_ls_number_parameters     262
_refine_ls_number_reflns         4668
_refine_ls_number_restraints     4
_refine_ls_restrained_S_all      0.974
_refine_ls_R_factor_all          0.0573
_refine_ls_R_factor_gt           0.0378
_refine_ls_shift/su_max          0.000
_refine_ls_shift/su_mean         0.000
_refine_ls_structure_factor_coef Fsqd
_refine_ls_weighting_details
'w=1/[\s^2^(Fo^2^)+(0.0393P)^2^] where P=(Fo^2^+2Fc^2^)/3'
_refine_ls_weighting_scheme      calc
_refine_ls_wR_factor_gt          0.0828
_refine_ls_wR_factor_ref         0.0904
_reflns_Friedel_coverage         0.000
_reflns_number_gt                3519
_reflns_number_total             4668
_reflns_threshold_expression     'I > 2\s(I)'
_cod_data_source_file            c6dt02895k2.cif
_cod_data_source_block           3_sq
_cod_depositor_comments
;Adding full bibliography for 7040332--7040334.cif.

 Adding full bibliography for 7040332--7040334.cif.
;
_cod_original_cell_volume        2227.56(18)
_cod_database_code               7040334
_shelx_space_group_comment
;
The symmetry employed for this shelxl refinement is uniquely defined
by the following loop, which should always be used as a source of
symmetry information in preference to the above space-group names.
They are only intended as comments.
;
_shelx_estimated_absorpt_t_max   0.750
_shelx_estimated_absorpt_t_min   0.515
_reflns_odcompleteness_completeness 99.83
_reflns_odcompleteness_iscentric 1
_reflns_odcompleteness_theta     27.42
_olex2_refinement_description
;
1. Fixed Uiso
 At 1.2 times of:
  All C(H) groups, All C(H,H) groups, All O(H) groups, All O(H,H) groups
2. Restrained distances
 H7-O7
 0.9 with sigma of 0.02
 H8A-O8
 0.9 with sigma of 0.02
 H8B-O8
 0.9 with sigma of 0.02
 H8A-H8B
 1.4 with sigma of 0.02
3.a Secondary CH2 refined with riding coordinates:
 C4(H4A,H4B)
3.b Aromatic/amide H refined with riding coordinates:
 C2(H2), C3(H3), C5(H5), C6(H6), C8(H8), C10(H10), C12(H12)
;
_shelx_res_file
;
    cobtrbbtc_sq.res created by SHELXL-2014/7

TITL g141114c1 in P2(1)/n
CELL 0.71073 10.184467 20.874741 10.70697 90 101.8762 90
ZERR 2 0.000388 0.000781 0.000601 0 0.0045 0
LATT 1
SYMM 0.5-X,0.5+Y,0.5-Z
SFAC C H Co N O
UNIT 60 48 8 12 32
EQIV $1 0.5-X,0.5+Y,1.5-Z
EQIV $2 -0.5-X,0.5+Y,1.5-Z
DFIX 0.9 H7 O7
DFIX 0.9 H8a O8
DFIX 0.9 H8b O8
DFIX 1.4 H8a H8b

L.S. 25 0 60
PLAN  20
SIZE 0.5 0.2 0.2
TEMP -50
HTAB O7 O5_$1
HTAB O8 O4_$2
MORE -1
BOND $H
HTAB
CONF
ABIN
fmap 2
acta
OMIT 0 53.2
REM <olex2.extras>
REM <HklSrc "%.\\Cobtrbbtc.hkl">
REM </olex2.extras>

WGHT    0.039300
FVAR       2.57056
CO1   3   -0.085379    0.449348    0.559775    11.00000    0.01546    0.01451 =
         0.02171    0.00018    0.00509   -0.00016
CO2   3    0.077064    0.385942    0.364175    11.00000    0.01397    0.01617 =
         0.02504   -0.00255    0.00602   -0.00048
O1    5   -0.052913    0.354483    0.613071    11.00000    0.02205    0.01654 =
         0.03797    0.00398    0.01012    0.00585
O2    5    0.109126    0.318660    0.514875    11.00000    0.02220    0.02269 =
         0.03556    0.01101    0.01277    0.00397
O3    5   -0.316545    0.167201    0.748250    11.00000    0.01337    0.03741 =
         0.03432    0.00912    0.00679   -0.00094
O4    5   -0.194612    0.099669    0.877631    11.00000    0.02465    0.03641 =
         0.04462    0.02059    0.01082   -0.00109
O5    5    0.292047    0.079017    0.882346    11.00000    0.01918    0.02180 =
         0.03120    0.00861    0.00031    0.00248
O6    5    0.396385    0.159085    0.805023    11.00000    0.01442    0.02257 =
         0.04069    0.00726    0.00454    0.00348
O7    5    0.093790    0.456029    0.492897    11.00000    0.01286    0.01634 =
         0.01797   -0.00030    0.00144    0.00064
H7    2    0.160713    0.453822    0.557524    11.00000   -1.20000
O8    5   -0.267647    0.457501    0.628190    11.00000    0.02245    0.04363 =
         0.04553   -0.00303    0.01394    0.00030
H8A   2   -0.327397    0.423959    0.621721    11.00000   -1.20000
H8B   2   -0.314894    0.491801    0.615375    11.00000   -1.20000
N1    4    0.010580    0.480156    0.745423    11.00000    0.02165    0.02225 =
         0.02404    0.00463    0.00412    0.00371
N2    4   -0.001229    0.543605    0.779700    11.00000    0.01820    0.02275 =
         0.02437   -0.00518    0.00623   -0.00114
N3    4    0.133871    0.494837    0.935460    11.00000    0.01785    0.04644 =
         0.01887    0.00390    0.00264    0.00221
C1    1    0.374186    0.491937    1.029011    11.00000    0.02102    0.06181 =
         0.02009    0.00755   -0.00015    0.00332
C2    1    0.426871    0.552208    1.023688    11.00000    0.03074    0.06011 =
         0.03578   -0.00187    0.00284    0.00965
AFIX  43
H2    2    0.377341    0.588129    1.040016    11.00000   -1.20000
AFIX   0
C3    1    0.448140    0.439302    1.005389    11.00000    0.03157    0.05132 =
         0.04296    0.00874   -0.00323   -0.00096
AFIX  43
H3    2    0.413377    0.397792    1.009117    11.00000   -1.20000
AFIX   0
C4    1    0.234874    0.483431    1.053859    11.00000    0.02352    0.08305 =
         0.01618    0.00880   -0.00097    0.00097
AFIX  23
H4A   2    0.224845    0.439865    1.084699    11.00000   -1.20000
H4B   2    0.220686    0.513583    1.119982    11.00000   -1.20000
AFIX   0
C5    1    0.091515    0.452513    0.840367    11.00000    0.02553    0.03391 =
         0.02844    0.00652    0.00429    0.00812
AFIX  43
H5    2    0.116829    0.409162    0.842315    11.00000   -1.20000
AFIX   0
C6    1    0.074438    0.550833    0.893573    11.00000    0.02042    0.03611 =
         0.02577   -0.00300    0.00604   -0.00283
AFIX  43
H6    2    0.085730    0.589496    0.939546    11.00000   -1.20000
AFIX   0
C7    1    0.032588    0.250891    0.661103    11.00000    0.01733    0.01889 =
         0.02231    0.00012    0.00619   -0.00036
C8    1   -0.083462    0.226385    0.693134    11.00000    0.01384    0.02242 =
         0.02586    0.00197    0.00301    0.00228
AFIX  43
H8    2   -0.165381    0.248178    0.667740    11.00000   -1.20000
AFIX   0
C9    1   -0.078490    0.170012    0.762273    11.00000    0.01752    0.02108 =
         0.01851    0.00096    0.00460   -0.00509
C10   1    0.042736    0.139114    0.803145    11.00000    0.02112    0.01948 =
         0.02285    0.00509    0.00602    0.00278
AFIX  43
H10   2    0.046286    0.101704    0.852594    11.00000   -1.20000
AFIX   0
C11   1    0.160163    0.162874    0.771771    11.00000    0.01472    0.01958 =
         0.02616    0.00084    0.00380   -0.00002
C12   1    0.153258    0.217919    0.698551    11.00000    0.01436    0.02279 =
         0.02831    0.00454    0.00763   -0.00089
AFIX  43
H12   2    0.230887    0.233229    0.673808    11.00000   -1.20000
AFIX   0
C13   1    0.029537    0.312790    0.589605    11.00000    0.01610    0.02135 =
         0.02498    0.00277    0.00178   -0.00219
C14   1   -0.203597    0.143965    0.798206    11.00000    0.01864    0.02280 =
         0.02366   -0.00294    0.00660   -0.00071
C15   1    0.292231    0.131131    0.823281    11.00000    0.01849    0.01991 =
         0.02397   -0.00070    0.00401    0.00095
HKLF 4

REM  g141114c1 in P2(1)/n
REM R1 =  0.0378 for    3519 Fo > 4sig(Fo)  and  0.0573 for all    4668 data
REM    262 parameters refined using      4 restraints

END

WGHT      0.0389      0.0000

REM Instructions for potential hydrogen bonds
HTAB O8 O4_$2

REM Highest difference peak  0.464,  deepest hole -0.577,  1-sigma level  0.084
Q1    1   0.0021  0.4539  0.6540  11.00000  0.05    0.46
Q2    1  -0.0783  0.4885  0.6291  11.00000  0.05    0.42
Q3    1   0.0040  0.4536  0.5972  11.00000  0.05    0.41
Q4    1   0.2751  0.1127  1.0266  11.00000  0.05    0.39
Q5    1  -0.0826  0.3234  0.5638  11.00000  0.05    0.38
Q6    1  -0.0616  0.2034  0.7980  11.00000  0.05    0.38
Q7    1  -0.4345  0.4029  0.5390  11.00000  0.05    0.37
Q8    1  -0.2451  0.2149  0.8384  11.00000  0.05    0.36
Q9    1  -0.1503  0.3611  0.5955  11.00000  0.05    0.36
Q10   1   0.2322  0.1600  0.8192  11.00000  0.05    0.35
Q11   1   0.0882  0.2237  0.6543  11.00000  0.05    0.35
Q12   1   0.0950  0.5024  0.4707  11.00000  0.05    0.35
Q13   1  -0.1206  0.1597  0.7858  11.00000  0.05    0.35
Q14   1   0.1171  0.3423  0.3662  11.00000  0.05    0.33
Q15   1   0.0597  0.3473  0.4559  11.00000  0.05    0.33
Q16   1   0.1062  0.5230  0.9251  11.00000  0.05    0.32
Q17   1  -0.0187  0.3833  0.3128  11.00000  0.05    0.32
Q18   1  -0.0674  0.4517  0.7185  11.00000  0.05    0.32
Q19   1   0.1748  0.3817  0.4073  11.00000  0.05    0.31
Q20   1   0.0976  0.4332  0.3320  11.00000  0.05    0.31
;
_shelx_res_checksum              68985
_shelx_fab_checksum              7946
_shelx_fab_file
;
    2    0    0     34.09      0.00
    4    0    0     -4.80      0.00
    6    0    0      8.42      0.00
    8    0    0      1.79      0.00
   10    0    0     -0.18      0.00
   12    0    0     -0.31      0.00
    2    1    0    -11.39      0.00
    3    1    0      4.99      0.00
    4    1    0    -41.24      0.00
    5    1    0     13.00      0.00
    6    1    0    -12.06      0.00
    7    1    0      4.19      0.00
    8    1    0     -2.47      0.00
    9    1    0     -0.59      0.00
   10    1    0     -0.33      0.00
   11    1    0      0.53      0.00
   12    1    0      0.15      0.00
    1    2    0     -8.60      0.00
    2    2    0    -27.90      0.00
    3    2    0    -21.77      0.00
    4    2    0     -4.76      0.00
    5    2    0     -1.12      0.00
    6    2    0     13.50      0.00
    7    2    0     -6.10      0.00
    8    2    0     -1.03      0.00
    9    2    0     -4.53      0.00
   10    2    0     -0.12      0.00
   11    2    0     -1.84      0.00
   12    2    0      0.35      0.00
    1    3    0     -6.75      0.00
    2    3    0     42.44      0.00
    3    3    0    -43.19      0.00
    4    3    0      3.31      0.00
    5    3    0     -6.39      0.00
    6    3    0     -1.81      0.00
    7    3    0      1.27      0.00
    8    3    0     -1.79      0.00
    9    3    0     -2.24      0.00
   10    3    0     -2.97      0.00
   11    3    0      0.45      0.00
   12    3    0     -1.23      0.00
    0    4    0     -2.01      0.00
    1    4    0     28.77      0.00
    2    4    0      0.05      0.00
    3    4    0     17.68      0.00
    4    4    0    -13.87      0.00
    5    4    0    -15.01      0.00
    6    4    0     -6.51      0.00
    7    4    0      5.55      0.00
    8    4    0     -4.67      0.00
    9    4    0      0.31      0.00
   10    4    0      0.58      0.00
   11    4    0      1.41      0.00
   12    4    0      0.54      0.00
    1    5    0      1.42      0.00
    2    5    0     -7.85      0.00
    3    5    0    -16.96      0.00
    4    5    0     -3.80      0.00
    5    5    0     -5.11      0.00
    6    5    0      5.08      0.00
    7    5    0      1.89      0.00
    8    5    0      5.47      0.00
    9    5    0      0.68      0.00
   10    5    0      2.06      0.00
   11    5    0     -0.21      0.00
   12    5    0      1.59      0.00
    0    6    0     40.73      0.00
    1    6    0     27.45      0.00
    2    6    0    -14.29      0.00
    3    6    0      9.05      0.00
    4    6    0     -9.11      0.00
    5    6    0     -1.00      0.00
    6    6    0      1.51      0.00
    7    6    0      8.07      0.00
    8    6    0      3.51      0.00
    9    6    0      3.34      0.00
   10    6    0     -0.89      0.00
   11    6    0      1.25      0.00
   12    6    0     -0.52      0.00
    1    7    0      2.04      0.00
    2    7    0     21.01      0.00
    3    7    0     24.01      0.00
    4    7    0     -6.99      0.00
    5    7    0      3.48      0.00
    6    7    0      3.67      0.00
    7    7    0     -3.55      0.00
    8    7    0      2.91      0.00
    9    7    0     -2.52      0.00
   10    7    0      0.78      0.00
   11    7    0     -0.58      0.00
   12    7    0      0.85      0.00
    0    8    0     -5.98      0.00
    1    8    0      1.05      0.00
    2    8    0     18.48      0.00
    3    8    0    -11.22      0.00
    4    8    0      8.44      0.00
    5    8    0     -5.09      0.00
    6    8    0      5.92      0.00
    7    8    0     -1.10      0.00
    8    8    0     -1.36      0.00
    9    8    0      0.31      0.00
   10    8    0      0.16      0.00
   11    8    0     -0.88      0.00
    1    9    0      7.56      0.00
    2    9    0     24.08      0.00
    3    9    0      1.04      0.00
    4    9    0    -10.27      0.00
    5    9    0      2.47      0.00
    6    9    0    -10.46      0.00
    7    9    0      6.02      0.00
    8    9    0     -0.35      0.00
    9    9    0      2.70      0.00
   10    9    0     -1.30      0.00
   11    9    0      2.24      0.00
    0   10    0    -13.16      0.00
    1   10    0      4.27      0.00
    2   10    0      8.21      0.00
    3   10    0      9.69      0.00
    4   10    0      6.08      0.00
    5   10    0     -7.93      0.00
    6   10    0     -4.28      0.00
    7   10    0     -0.36      0.00
    8   10    0      2.70      0.00
    9   10    0     -3.33      0.00
   10   10    0      2.12      0.00
   11   10    0     -0.90      0.00
    1   11    0     -1.85      0.00
    2   11    0    -12.22      0.00
    3   11    0     -0.13      0.00
    4   11    0     -2.95      0.00
    5   11    0     -4.92      0.00
    6   11    0      2.23      0.00
    7   11    0     -0.92      0.00
    8   11    0     -0.61      0.00
    9   11    0      1.84      0.00
   10   11    0     -1.61      0.00
   11   11    0      0.08      0.00
    0   12    0    -11.43      0.00
    1   12    0      8.76      0.00
    2   12    0    -10.42      0.00
    3   12    0     -2.31      0.00
    4   12    0     -1.44      0.00
    5   12    0     -4.25      0.00
    6   12    0     -5.39      0.00
    7   12    0      1.86      0.00
    8   12    0      2.05      0.00
    9   12    0      1.85      0.00
   10   12    0     -0.90      0.00
   11   12    0      1.71      0.00
    1   13    0    -21.04      0.00
    2   13    0      5.70      0.00
    3   13    0      9.15      0.00
    4   13    0      5.55      0.00
    5   13    0     -3.40      0.00
    6   13    0      1.36      0.00
    7   13    0     -3.56      0.00
    8   13    0      1.51      0.00
    9   13    0     -0.01      0.00
   10   13    0      2.54      0.00
    0   14    0     -0.89      0.00
    1   14    0     -0.12      0.00
    2   14    0      7.95      0.00
    3   14    0      5.00      0.00
    4   14    0     -0.77      0.00
    5   14    0      5.05      0.00
    6   14    0     -0.24      0.00
    7   14    0     -1.24      0.00
    8   14    0     -1.12      0.00
    9   14    0      0.35      0.00
   10   14    0      1.55      0.00
    1   15    0     11.35      0.00
    2   15    0      4.22      0.00
    3   15    0      6.14      0.00
    4   15    0     -0.58      0.00
    5   15    0      0.24      0.00
    6   15    0     -5.18      0.00
    7   15    0     -0.02      0.00
    8   15    0     -0.45      0.00
    9   15    0      1.09      0.00
   10   15    0     -1.17      0.00
    0   16    0     -5.82      0.00
    1   16    0    -10.64      0.00
    2   16    0      3.28      0.00
    3   16    0     -3.52      0.00
    4   16    0      5.75      0.00
    5   16    0     -0.81      0.00
    6   16    0     -2.63      0.00
    7   16    0     -1.66      0.00
    8   16    0      0.32      0.00
    9   16    0     -0.22      0.00
    1   17    0     -6.98      0.00
    2   17    0     -7.74      0.00
    3   17    0     -3.16      0.00
    4   17    0      1.84      0.00
    5   17    0      0.94      0.00
    6   17    0      1.14      0.00
    7   17    0     -0.72      0.00
    8   17    0      0.17      0.00
    9   17    0      0.18      0.00
    0   18    0     -5.96      0.00
    1   18    0      4.75      0.00
    2   18    0     -3.83      0.00
    3   18    0      4.22      0.00
    4   18    0      3.75      0.00
    5   18    0      0.72      0.00
    6   18    0      0.84      0.00
    7   18    0     -1.41      0.00
    8   18    0     -0.76      0.00
    9   18    0      0.19      0.00
    1   19    0     -0.70      0.00
    2   19    0     -1.33      0.00
    3   19    0      5.51      0.00
    4   19    0      3.59      0.00
    5   19    0      2.47      0.00
    6   19    0     -0.77      0.00
    7   19    0     -0.75      0.00
    8   19    0     -2.65      0.00
    0   20    0      4.81      0.00
    1   20    0     -3.92      0.00
    2   20    0      0.93      0.00
    3   20    0     -0.65      0.00
    4   20    0     -2.11      0.00
    5   20    0      2.12      0.00
    6   20    0     -0.01      0.00
    7   20    0     -1.49      0.00
    8   20    0      1.90      0.00
    1   21    0     -1.61      0.00
    2   21    0      0.27      0.00
    3   21    0     -2.35      0.00
    4   21    0      1.23      0.00
    5   21    0     -0.01      0.00
    6   21    0      1.79      0.00
    7   21    0      1.18      0.00
    0   22    0     -3.90      0.00
    1   22    0     -3.92      0.00
    2   22    0     -1.53      0.00
    3   22    0     -1.29      0.00
    4   22    0      2.39      0.00
    5   22    0      1.12      0.00
    6   22    0      0.46      0.00
    1   23    0     -0.38      0.00
    2   23    0     -2.33      0.00
    3   23    0     -0.30      0.00
    4   23    0     -1.47      0.00
    5   23    0      2.13      0.00
    6   23    0     -2.91      0.00
    0   24    0     -0.78      0.00
    1   24    0      2.04      0.00
    2   24    0     -1.27      0.00
    3   24    0     -0.47      0.00
    4   24    0      1.82      0.00
    5   24    0     -0.73      0.00
    1   25    0     -0.42      0.00
    2   25    0     -1.83      0.00
    3   25    0      0.44      0.00
    0   26    0      0.58      0.00
    1   26    0     -0.96      0.00
  -11    0    1      1.68      0.00
   -9    0    1      1.54      0.00
   -7    0    1      4.23      0.00
   -5    0    1     16.23      0.00
   -3    0    1     31.44      0.00
    1    0    1     66.92      0.00
    3    0    1    -21.46      0.00
    5    0    1     -5.92      0.00
    7    0    1      0.52      0.00
    9    0    1     -4.91      0.00
   11    0    1     -0.59      0.00
  -12    1    1     -0.15      0.00
  -11    1    1      0.20      0.00
  -10    1    1      1.98      0.00
   -9    1    1      1.87      0.00
   -8    1    1      0.18      0.00
   -7    1    1      3.30      0.00
   -6    1    1     13.94      0.00
   -5    1    1     17.58      0.00
   -4    1    1     30.22      0.00
   -3    1    1    -11.14      0.00
   -2    1    1    -10.39      0.00
    1    1    1    -39.18      0.00
    2    1    1     41.75      0.00
    3    1    1    -25.84      0.00
    4    1    1    -12.37      0.00
    5    1    1    -26.21      0.00
    6    1    1      1.50      0.00
    7    1    1     -3.71      0.00
    8    1    1     -0.47      0.00
    9    1    1     -2.40      0.00
   10    1    1     -0.56      0.00
   11    1    1     -0.86      0.00
   12    1    1     -0.24      0.00
  -12    2    1      1.74      0.00
  -11    2    1     -0.70      0.00
  -10    2    1      3.20      0.00
   -9    2    1      1.51      0.00
   -8    2    1      2.19      0.00
   -7    2    1      1.25      0.00
   -6    2    1     -3.36      0.00
   -5    2    1     13.45      0.00
   -4    2    1     -2.64      0.00
   -3    2    1    -29.11      0.00
   -2    2    1     -2.50      0.00
   -1    2    1    -52.21      0.00
    1    2    1     12.95      0.00
    2    2    1    -11.06      0.00
    3    2    1     10.24      0.00
    4    2    1      2.48      0.00
    5    2    1     -3.76      0.00
    6    2    1    -10.81      0.00
    7    2    1      8.00      0.00
    8    2    1     -6.46      0.00
    9    2    1      0.52      0.00
   10    2    1     -2.84      0.00
   11    2    1      0.07      0.00
   12    2    1      0.44      0.00
  -12    3    1     -0.24      0.00
  -11    3    1      1.42      0.00
  -10    3    1     -1.30      0.00
   -9    3    1      3.43      0.00
   -8    3    1     -3.24      0.00
   -7    3    1     -1.44      0.00
   -6    3    1     -8.66      0.00
   -5    3    1    -10.03      0.00
   -4    3    1    -26.01      0.00
   -3    3    1     -7.11      0.00
   -2    3    1    -31.77      0.00
   -1    3    1    -12.64      0.00
    0    3    1     53.89      0.00
    1    3    1     14.73      0.00
    2    3    1     -7.85      0.00
    3    3    1     12.77      0.00
    4    3    1     -9.58      0.00
    5    3    1     -7.24      0.00
    6    3    1      0.49      0.00
    7    3    1     -2.10      0.00
    8    3    1      4.02      0.00
    9    3    1     -1.42      0.00
   10    3    1     -1.70      0.00
   11    3    1     -1.46      0.00
   12    3    1      0.92      0.00
  -12    4    1     -1.87      0.00
  -11    4    1     -1.25      0.00
  -10    4    1     -1.23      0.00
   -9    4    1     -5.00      0.00
   -8    4    1      0.93      0.00
   -7    4    1    -11.75      0.00
   -6    4    1     -6.23      0.00
   -5    4    1     -0.14      0.00
   -4    4    1     15.61      0.00
   -3    4    1    -11.70      0.00
   -2    4    1      7.04      0.00
   -1    4    1    -28.06      0.00
    0    4    1     34.23      0.00
    1    4    1      8.98      0.00
    2    4    1      9.39      0.00
    3    4    1      3.12      0.00
    4    4    1    -11.93      0.00
    5    4    1    -14.95      0.00
    6    4    1     -5.76      0.00
    7    4    1     -0.63      0.00
    8    4    1      4.94      0.00
    9    4    1      0.01      0.00
   10    4    1      1.40      0.00
   11    4    1      1.59      0.00
   12    4    1     -0.58      0.00
  -12    5    1     -1.03      0.00
  -11    5    1     -2.35      0.00
  -10    5    1     -0.78      0.00
   -9    5    1     -3.33      0.00
   -8    5    1     -2.88      0.00
   -7    5    1     -5.41      0.00
   -6    5    1      1.83      0.00
   -5    5    1     -2.66      0.00
   -4    5    1      0.13      0.00
   -3    5    1     40.24      0.00
   -2    5    1    -14.56      0.00
   -1    5    1     -8.02      0.00
    0    5    1    -52.14      0.00
    1    5    1    -16.12      0.00
    2    5    1    -14.95      0.00
    3    5    1     17.82      0.00
    4    5    1    -12.34      0.00
    5    5    1      4.26      0.00
    6    5    1      4.81      0.00
    7    5    1      0.17      0.00
    8    5    1      0.09      0.00
    9    5    1      4.16      0.00
   10    5    1      1.26      0.00
   11    5    1      1.07      0.00
   12    5    1      1.06      0.00
  -12    6    1     -0.46      0.00
  -11    6    1      1.55      0.00
  -10    6    1     -2.27      0.00
   -9    6    1      0.95      0.00
   -8    6    1     -3.44      0.00
   -7    6    1      5.24      0.00
   -6    6    1     -3.48      0.00
   -5    6    1     -3.31      0.00
   -4    6    1     -0.47      0.00
   -3    6    1     -2.69      0.00
   -2    6    1    -24.39      0.00
   -1    6    1      9.48      0.00
    0    6    1    -19.70      0.00
    1    6    1     -3.29      0.00
    2    6    1     39.37      0.00
    3    6    1    -18.87      0.00
    4    6    1     20.73      0.00
    5    6    1      2.69      0.00
    6    6    1      2.74      0.00
    7    6    1      2.14      0.00
    8    6    1      4.89      0.00
    9    6    1      0.36      0.00
   10    6    1      1.08      0.00
   11    6    1     -1.05      0.00
  -12    7    1      0.68      0.00
  -11    7    1     -0.05      0.00
  -10    7    1      0.10      0.00
   -9    7    1      0.31      0.00
   -8    7    1      0.10      0.00
   -7    7    1     -3.82      0.00
   -6    7    1      4.96      0.00
   -5    7    1      3.10      0.00
   -4    7    1     11.11      0.00
   -3    7    1     -2.41      0.00
   -2    7    1      9.72      0.00
   -1    7    1    -14.85      0.00
    0    7    1     26.49      0.00
    1    7    1      3.15      0.00
    2    7    1     39.69      0.00
    3    7    1     29.13      0.00
    4    7    1      4.02      0.00
    5    7    1     -0.86      0.00
    6    7    1     -9.65      0.00
    7    7    1      4.12      0.00
    8    7    1     -2.36      0.00
    9    7    1      1.00      0.00
   10    7    1     -1.35      0.00
   11    7    1      1.58      0.00
  -12    8    1      1.32      0.00
  -11    8    1     -0.47      0.00
  -10    8    1      1.79      0.00
   -9    8    1      1.58      0.00
   -8    8    1      1.20      0.00
   -7    8    1      5.44      0.00
   -6    8    1     -1.81      0.00
   -5    8    1      6.43      0.00
   -4    8    1     19.64      0.00
   -3    8    1      5.19      0.00
   -2    8    1     31.25      0.00
   -1    8    1     27.54      0.00
    0    8    1    -24.22      0.00
    1    8    1     15.23      0.00
    2    8    1     -6.29      0.00
    3    8    1     15.16      0.00
    4    8    1     -0.81      0.00
    5    8    1     -0.22      0.00
    6    8    1     -5.87      0.00
    7    8    1     -2.07      0.00
    8    8    1      0.75      0.00
    9    8    1     -2.29      0.00
   10    8    1      0.41      0.00
   11    8    1     -0.36      0.00
  -11    9    1      1.78      0.00
  -10    9    1      1.54      0.00
   -9    9    1      3.49      0.00
   -8    9    1      5.79      0.00
   -7    9    1      2.66      0.00
   -6    9    1      3.32      0.00
   -5    9    1      5.82      0.00
   -4    9    1     -0.80      0.00
   -3    9    1      6.23      0.00
   -2    9    1      6.21      0.00
   -1    9    1     -5.47      0.00
    0    9    1      2.55      0.00
    1    9    1      7.05      0.00
    2    9    1    -22.08      0.00
    3    9    1     -8.73      0.00
    4    9    1      6.94      0.00
    5    9    1    -13.64      0.00
    6    9    1      2.00      0.00
    7    9    1     -2.69      0.00
    8    9    1      2.06      0.00
    9    9    1      1.05      0.00
   10    9    1     -0.94      0.00
   11    9    1     -1.34      0.00
  -11   10    1      0.21      0.00
  -10   10    1      1.91      0.00
   -9   10    1      1.19      0.00
   -8   10    1      2.74      0.00
   -7   10    1     -1.81      0.00
   -6   10    1     -4.75      0.00
   -5   10    1      1.75      0.00
   -4   10    1     -0.02      0.00
   -3   10    1      7.50      0.00
   -2   10    1    -15.53      0.00
   -1   10    1    -17.44      0.00
    0   10    1     -7.63      0.00
    1   10    1    -20.81      0.00
    2   10    1      1.89      0.00
    3   10    1      4.71      0.00
    4   10    1      0.50      0.00
    5   10    1      1.27      0.00
    6   10    1     -7.96      0.00
    7   10    1     -1.65      0.00
    8   10    1     -1.29      0.00
    9   10    1      1.15      0.00
   10   10    1     -2.17      0.00
   11   10    1      1.28      0.00
  -11   11    1     -1.12      0.00
  -10   11    1      0.30      0.00
   -9   11    1     -0.34      0.00
   -8   11    1     -1.76      0.00
   -7   11    1     -3.02      0.00
   -6   11    1     -2.87      0.00
   -5   11    1     -3.79      0.00
   -4   11    1     -9.29      0.00
   -3   11    1      4.90      0.00
   -2   11    1     12.09      0.00
   -1   11    1    -19.04      0.00
    0   11    1     -7.59      0.00
    1   11    1    -15.90      0.00
    2   11    1     -7.30      0.00
    3   11    1      6.90      0.00
    4   11    1      2.08      0.00
    5   11    1      0.45      0.00
    6   11    1      3.32      0.00
    7   11    1     -5.01      0.00
    8   11    1     -1.86      0.00
    9   11    1     -1.23      0.00
   10   11    1      3.31      0.00
   11   11    1     -1.51      0.00
  -11   12    1      0.31      0.00
  -10   12    1     -3.01      0.00
   -9   12    1     -0.70      0.00
   -8   12    1     -3.01      0.00
   -7   12    1      2.50      0.00
   -6   12    1      3.62      0.00
   -5   12    1    -10.97      0.00
   -4   12    1      0.32      0.00
   -3   12    1     -4.93      0.00
   -2   12    1     -9.44      0.00
   -1   12    1      6.10      0.00
    0   12    1     -1.40      0.00
    1   12    1     -1.68      0.00
    2   12    1      6.60      0.00
    3   12    1     -2.56      0.00
    4   12    1     -3.13      0.00
    5   12    1      2.88      0.00
    6   12    1     -0.94      0.00
    7   12    1     -0.84      0.00
    8   12    1      0.99      0.00
    9   12    1      1.13      0.00
   10   12    1      1.20      0.00
  -11   13    1     -0.68      0.00
  -10   13    1     -0.57      0.00
   -9   13    1     -2.20      0.00
   -8   13    1      2.22      0.00
   -7   13    1     -3.32      0.00
   -6   13    1     -1.37      0.00
   -5   13    1      0.46      0.00
   -4   13    1     -2.63      0.00
   -3   13    1      0.65      0.00
   -2   13    1     -5.41      0.00
   -1   13    1     10.19      0.00
    0   13    1     -9.08      0.00
    1   13    1      2.10      0.00
    2   13    1      4.18      0.00
    3   13    1      6.68      0.00
    4   13    1      5.06      0.00
    5   13    1      3.36      0.00
    6   13    1     -8.41      0.00
    7   13    1      2.29      0.00
    8   13    1     -0.11      0.00
    9   13    1      0.98      0.00
   10   13    1     -1.42      0.00
  -10   14    1      1.87      0.00
   -9   14    1      1.49      0.00
   -8   14    1     -2.26      0.00
   -7   14    1      1.01      0.00
   -6   14    1     -2.46      0.00
   -5   14    1     -3.26      0.00
   -4   14    1      0.35      0.00
   -3   14    1      3.05      0.00
   -2   14    1     10.81      0.00
   -1   14    1     10.51      0.00
    0   14    1      4.62      0.00
    1   14    1     -9.85      0.00
    2   14    1      0.72      0.00
    3   14    1     -1.54      0.00
    4   14    1      6.62      0.00
    5   14    1      1.03      0.00
    6   14    1      3.49      0.00
    7   14    1     -3.95      0.00
    8   14    1     -1.18      0.00
    9   14    1     -0.09      0.00
   10   14    1     -0.21      0.00
  -10   15    1      0.64      0.00
   -9   15    1      0.33      0.00
   -8   15    1     -0.49      0.00
   -7   15    1      3.09      0.00
   -6   15    1     -1.13      0.00
   -5   15    1      3.93      0.00
   -4   15    1      4.70      0.00
   -3   15    1     -6.60      0.00
   -2   15    1     12.04      0.00
   -1   15    1     -1.15      0.00
    0   15    1      2.89      0.00
    1   15    1      7.84      0.00
    2   15    1     -8.54      0.00
    3   15    1     -5.96      0.00
    4   15    1      2.91      0.00
    5   15    1     -0.06      0.00
    6   15    1      1.30      0.00
    7   15    1     -1.56      0.00
    8   15    1     -1.22      0.00
    9   15    1     -0.32      0.00
   10   15    1      0.50      0.00
  -10   16    1     -2.77      0.00
   -9   16    1     -0.43      0.00
   -8   16    1      2.10      0.00
   -7   16    1     -0.98      0.00
   -6   16    1      3.46      0.00
   -5   16    1      1.60      0.00
   -4   16    1      1.68      0.00
   -3   16    1      6.61      0.00
   -2   16    1     -5.42      0.00
   -1   16    1     -2.87      0.00
    0   16    1     -4.19      0.00
    1   16    1     -3.35      0.00
    2   16    1     -8.20      0.00
    3   16    1      4.79      0.00
    4   16    1      0.98      0.00
    5   16    1      2.08      0.00
    6   16    1     -1.94      0.00
    7   16    1     -0.72      0.00
    8   16    1     -1.52      0.00
    9   16    1     -0.37      0.00
   -9   17    1     -0.92      0.00
   -8   17    1      2.22      0.00
   -7   17    1      0.65      0.00
   -6   17    1     -0.98      0.00
   -5   17    1      1.86      0.00
   -4   17    1     -4.29      0.00
   -3   17    1     -0.17      0.00
   -2   17    1      2.24      0.00
   -1   17    1     -1.76      0.00
    0   17    1     -0.74      0.00
    1   17    1     -4.87      0.00
    2   17    1     -1.98      0.00
    3   17    1     -0.53      0.00
    4   17    1      0.51      0.00
    5   17    1      3.68      0.00
    6   17    1      2.58      0.00
    7   17    1     -1.41      0.00
    8   17    1     -0.92      0.00
    9   17    1     -1.04      0.00
   -9   18    1      1.84      0.00
   -8   18    1     -0.20      0.00
   -7   18    1      1.50      0.00
   -6   18    1      1.90      0.00
   -5   18    1     -0.86      0.00
   -4   18    1     -3.34      0.00
   -3   18    1     -0.14      0.00
   -2   18    1     -2.30      0.00
   -1   18    1     -0.15      0.00
    0   18    1      8.74      0.00
    1   18    1      1.37      0.00
    2   18    1      2.68      0.00
    3   18    1     -0.44      0.00
    4   18    1     -1.06      0.00
    5   18    1      1.24      0.00
    6   18    1      2.18      0.00
    7   18    1     -0.58      0.00
    8   18    1      0.71      0.00
   -8   19    1      2.21      0.00
   -7   19    1      1.35      0.00
   -6   19    1     -1.22      0.00
   -5   19    1     -1.08      0.00
   -4   19    1      3.31      0.00
   -3   19    1     -0.78      0.00
   -2   19    1      0.58      0.00
   -1   19    1      8.26      0.00
    0   19    1     -2.21      0.00
    1   19    1     -1.00      0.00
    2   19    1      1.15      0.00
    3   19    1     -2.05      0.00
    4   19    1      1.99      0.00
    5   19    1      0.09      0.00
    6   19    1     -0.99      0.00
    7   19    1      1.59      0.00
    8   19    1     -1.28      0.00
   -8   20    1      1.39      0.00
   -7   20    1     -1.20      0.00
   -6   20    1      1.35      0.00
   -5   20    1     -0.29      0.00
   -4   20    1     -2.00      0.00
   -3   20    1      1.48      0.00
   -2   20    1      1.31      0.00
   -1   20    1      2.62      0.00
    0   20    1      0.69      0.00
    1   20    1     -5.19      0.00
    2   20    1     -3.17      0.00
    3   20    1     -5.09      0.00
    4   20    1     -1.64      0.00
    5   20    1      2.14      0.00
    6   20    1      0.15      0.00
    7   20    1      1.02      0.00
   -7   21    1      1.04      0.00
   -6   21    1      1.78      0.00
   -5   21    1     -0.37      0.00
   -4   21    1      3.82      0.00
   -3   21    1     -4.79      0.00
   -2   21    1     -0.76      0.00
   -1   21    1     -3.03      0.00
    0   21    1     -1.48      0.00
    1   21    1      3.16      0.00
    2   21    1     -3.89      0.00
    3   21    1     -0.80      0.00
    4   21    1     -1.44      0.00
    5   21    1      1.50      0.00
    6   21    1      2.11      0.00
    7   21    1     -1.19      0.00
   -7   22    1      0.85      0.00
   -6   22    1      0.82      0.00
   -5   22    1      1.73      0.00
   -4   22    1      0.21      0.00
   -3   22    1      3.69      0.00
   -2   22    1      0.32      0.00
   -1   22    1     -1.74      0.00
    0   22    1     -0.40      0.00
    1   22    1      2.88      0.00
    2   22    1     -2.03      0.00
    3   22    1      1.23      0.00
    4   22    1      3.02      0.00
    5   22    1     -1.30      0.00
    6   22    1      1.63      0.00
   -6   23    1     -0.90      0.00
   -5   23    1      1.53      0.00
   -4   23    1     -2.02      0.00
   -3   23    1      2.25      0.00
   -2   23    1      2.34      0.00
   -1   23    1      2.83      0.00
    0   23    1      1.45      0.00
    1   23    1      0.41      0.00
    2   23    1      0.66      0.00
    3   23    1     -2.04      0.00
    4   23    1     -1.23      0.00
    5   23    1     -0.13      0.00
   -5   24    1     -0.88      0.00
   -4   24    1     -0.53      0.00
   -3   24    1     -1.36      0.00
   -2   24    1      0.14      0.00
   -1   24    1     -2.45      0.00
    0   24    1      3.64      0.00
    1   24    1     -1.72      0.00
    2   24    1      0.70      0.00
    3   24    1     -1.85      0.00
    4   24    1     -3.58      0.00
   -3   25    1     -1.21      0.00
   -2   25    1     -2.05      0.00
   -1   25    1      1.39      0.00
    0   25    1     -1.84      0.00
    1   25    1     -1.33      0.00
    2   25    1     -2.04      0.00
    3   25    1     -0.39      0.00
   -1   26    1      1.20      0.00
    0   26    1     -0.66      0.00
    1   26    1     -1.31      0.00
  -12    0    2      3.11      0.00
  -10    0    2      3.91      0.00
   -8    0    2      3.33      0.00
   -6    0    2     -0.83      0.00
   -4    0    2     14.30      0.00
   -2    0    2     23.41      0.00
    0    0    2      6.57      0.00
    2    0    2     13.85      0.00
    4    0    2      0.59      0.00
    6    0    2    -16.95      0.00
    8    0    2     -4.21      0.00
   10    0    2     -4.71      0.00
   12    0    2     -0.40      0.00
  -12    1    2     -0.83      0.00
  -11    1    2      0.93      0.00
  -10    1    2     -0.34      0.00
   -9    1    2      4.08      0.00
   -8    1    2      3.54      0.00
   -7    1    2      1.41      0.00
   -6    1    2     -1.26      0.00
   -5    1    2     18.97      0.00
   -4    1    2     -9.35      0.00
   -3    1    2      6.36      0.00
   -2    1    2    -16.35      0.00
   -1    1    2    -41.63      0.00
    0    1    2     28.57      0.00
    1    1    2     10.31      0.00
    2    1    2    -44.31      0.00
    3    1    2     21.31      0.00
    4    1    2    -22.43      0.00
    5    1    2    -17.67      0.00
    6    1    2     -8.45      0.00
    7    1    2     -0.99      0.00
    8    1    2      1.50      0.00
    9    1    2     -1.16      0.00
   10    1    2     -0.49      0.00
   11    1    2     -1.31      0.00
   12    1    2     -0.21      0.00
  -12    2    2     -1.94      0.00
  -11    2    2      0.77      0.00
  -10    2    2     -0.39      0.00
   -9    2    2      0.01      0.00
   -8    2    2      1.07      0.00
   -7    2    2     -4.04      0.00
   -6    2    2     -0.11      0.00
   -5    2    2    -15.78      0.00
   -4    2    2     16.28      0.00
   -3    2    2     -6.05      0.00
   -2    2    2    -15.64      0.00
   -1    2    2    -38.80      0.00
    0    2    2    -39.60      0.00
    1    2    2    -33.67      0.00
    2    2    2     16.43      0.00
    3    2    2      8.34      0.00
    4    2    2     -2.22      0.00
    5    2    2     -4.77      0.00
    6    2    2      2.59      0.00
    7    2    2     -8.72      0.00
    8    2    2      5.31      0.00
    9    2    2     -0.44      0.00
   10    2    2      0.38      0.00
   11    2    2      0.04      0.00
  -12    3    2      1.36      0.00
  -11    3    2     -1.19      0.00
  -10    3    2      0.08      0.00
   -9    3    2     -3.92      0.00
   -8    3    2     -0.43      0.00
   -7    3    2     -8.97      0.00
   -6    3    2     -9.31      0.00
   -5    3    2    -18.08      0.00
   -4    3    2    -22.48      0.00
   -3    3    2     23.51      0.00
   -2    3    2    -10.14      0.00
   -1    3    2     18.86      0.00
    0    3    2    -35.39      0.00
    1    3    2      3.03      0.00
    2    3    2     -8.82      0.00
    3    3    2     -1.62      0.00
    4    3    2      8.63      0.00
    5    3    2      4.03      0.00
    6    3    2     -2.08      0.00
    7    3    2      3.15      0.00
    8    3    2     -3.41      0.00
    9    3    2      2.89      0.00
   10    3    2     -1.71      0.00
   11    3    2      0.09      0.00
  -12    4    2     -1.37      0.00
  -11    4    2     -0.62      0.00
  -10    4    2     -3.06      0.00
   -9    4    2     -0.35      0.00
   -8    4    2     -8.37      0.00
   -7    4    2      0.53      0.00
   -6    4    2     -8.41      0.00
   -5    4    2     -1.45      0.00
   -4    4    2      1.24      0.00
   -3    4    2     12.36      0.00
   -2    4    2    -26.02      0.00
   -1    4    2      9.64      0.00
    0    4    2      5.23      0.00
    1    4    2    -33.27      0.00
    2    4    2     32.13      0.00
    3    4    2     -9.11      0.00
    4    4    2     -2.08      0.00
    5    4    2     -1.05      0.00
    6    4    2     -5.37      0.00
    7    4    2     -1.21      0.00
    8    4    2      3.99      0.00
    9    4    2      1.11      0.00
   10    4    2      2.78      0.00
   11    4    2     -0.09      0.00
  -12    5    2     -0.52      0.00
  -11    5    2     -1.39      0.00
  -10    5    2     -1.00      0.00
   -9    5    2     -1.53      0.00
   -8    5    2     -0.70      0.00
   -7    5    2     -1.96      0.00
   -6    5    2      1.05      0.00
   -5    5    2      1.90      0.00
   -4    5    2     19.55      0.00
   -3    5    2    -23.61      0.00
   -2    5    2     42.91      0.00
   -1    5    2    -39.86      0.00
    0    5    2    -28.76      0.00
    1    5    2    -16.17      0.00
    2    5    2     10.46      0.00
    3    5    2     16.73      0.00
    4    5    2     16.82      0.00
    5    5    2      0.25      0.00
    6    5    2     -4.13      0.00
    7    5    2      3.31      0.00
    8    5    2      0.94      0.00
    9    5    2      1.33      0.00
   10    5    2      3.19      0.00
   11    5    2      1.53      0.00
  -12    6    2      2.12      0.00
  -11    6    2      0.44      0.00
  -10    6    2      0.80      0.00
   -9    6    2      0.77      0.00
   -8    6    2      2.51      0.00
   -7    6    2      3.54      0.00
   -6    6    2      0.99      0.00
   -5    6    2     -9.21      0.00
   -4    6    2     -2.83      0.00
   -3    6    2      2.36      0.00
   -2    6    2      4.28      0.00
   -1    6    2     37.36      0.00
    0    6    2     -8.52      0.00
    1    6    2     30.12      0.00
    2    6    2    -15.80      0.00
    3    6    2     27.47      0.00
    4    6    2      6.92      0.00
    5    6    2     12.30      0.00
    6    6    2      0.29      0.00
    7    6    2      1.44      0.00
    8    6    2      1.07      0.00
    9    6    2      1.91      0.00
   10    6    2     -3.31      0.00
   11    6    2      0.26      0.00
  -12    7    2      0.14      0.00
  -11    7    2      1.64      0.00
  -10    7    2      0.07      0.00
   -9    7    2      1.84      0.00
   -8    7    2      4.03      0.00
   -7    7    2      0.90      0.00
   -6    7    2     -5.17      0.00
   -5    7    2     15.95      0.00
   -4    7    2     -2.36      0.00
   -3    7    2     14.95      0.00
   -2    7    2     11.82      0.00
   -1    7    2     18.64      0.00
    0    7    2     26.62      0.00
    1    7    2     22.50      0.00
    2    7    2      3.54      0.00
    3    7    2     -0.54      0.00
    4    7    2     18.93      0.00
    5    7    2    -12.82      0.00
    6    7    2     -0.36      0.00
    7    7    2     -5.00      0.00
    8    7    2      1.91      0.00
    9    7    2     -2.41      0.00
   10    7    2     -0.72      0.00
   11    7    2     -2.15      0.00
  -12    8    2     -0.39      0.00
  -11    8    2     -0.49      0.00
  -10    8    2      3.08      0.00
   -9    8    2      0.84      0.00
   -8    8    2      2.26      0.00
   -7    8    2     -0.70      0.00
   -6    8    2      5.73      0.00
   -5    8    2      4.60      0.00
   -4    8    2     11.53      0.00
   -3    8    2     27.58      0.00
   -2    8    2     24.54      0.00
   -1    8    2    -20.63      0.00
    0    8    2      8.93      0.00
    1    8    2    -42.30      0.00
    2    8    2     -5.54      0.00
    3    8    2      2.74      0.00
    4    8    2     -4.97      0.00
    5    8    2      0.98      0.00
    6    8    2     -2.34      0.00
    7    8    2     -6.08      0.00
    8    8    2     -5.17      0.00
    9    8    2      0.62      0.00
   10    8    2     -0.51      0.00
   11    8    2     -0.10      0.00
  -12    9    2      0.78      0.00
  -11    9    2      1.10      0.00
  -10    9    2      2.04      0.00
   -9    9    2      1.99      0.00
   -8    9    2      0.88      0.00
   -7    9    2      5.54      0.00
   -6    9    2      2.00      0.00
   -5    9    2     -4.86      0.00
   -4    9    2     -3.26      0.00
   -3    9    2     -3.16      0.00
   -2    9    2     -3.02      0.00
   -1    9    2     -3.06      0.00
    0    9    2    -28.48      0.00
    1    9    2    -10.35      0.00
    2    9    2    -23.26      0.00
    3    9    2     -9.96      0.00
    4    9    2     -4.36      0.00
    5    9    2      9.11      0.00
    6    9    2     -1.75      0.00
    7    9    2     -1.48      0.00
    8    9    2     -1.93      0.00
    9    9    2     -0.52      0.00
   10    9    2      1.41      0.00
   11    9    2     -0.76      0.00
  -11   10    2      2.55      0.00
  -10   10    2     -2.27      0.00
   -9   10    2      1.45      0.00
   -8   10    2     -1.02      0.00
   -7   10    2     -2.25      0.00
   -6   10    2      3.05      0.00
   -5   10    2    -10.25      0.00
   -4   10    2    -10.44      0.00
   -3   10    2     -7.34      0.00
   -2   10    2    -27.97      0.00
   -1   10    2     -4.41      0.00
    0   10    2     -0.71      0.00
    1   10    2     -9.09      0.00
    2   10    2      8.51      0.00
    3   10    2      2.51      0.00
    4   10    2      3.44      0.00
    5   10    2      0.13      0.00
    6   10    2     -0.41      0.00
    7   10    2     -2.50      0.00
    8   10    2      0.57      0.00
    9   10    2     -0.76      0.00
   10   10    2      0.34      0.00
   11   10    2      0.20      0.00
  -11   11    2     -2.09      0.00
  -10   11    2      0.85      0.00
   -9   11    2     -3.22      0.00
   -8   11    2     -1.00      0.00
   -7   11    2     -2.61      0.00
   -6   11    2     -6.39      0.00
   -5   11    2     -4.80      0.00
   -4   11    2     -2.17      0.00
   -3   11    2     -7.82      0.00
   -2   11    2      7.22      0.00
   -1   11    2     14.05      0.00
    0   11    2     -7.07      0.00
    1   11    2     -5.22      0.00
    2   11    2      9.19      0.00
    3   11    2      2.59      0.00
    4   11    2      4.75      0.00
    5   11    2      6.42      0.00
    6   11    2     -3.78      0.00
    7   11    2      1.05      0.00
    8   11    2     -2.77      0.00
    9   11    2      0.75      0.00
   10   11    2     -0.93      0.00
  -11   12    2     -2.17      0.00
  -10   12    2     -0.61      0.00
   -9   12    2     -0.73      0.00
   -8   12    2     -1.71      0.00
   -7   12    2      1.59      0.00
   -6   12    2     -1.72      0.00
   -5   12    2     -1.67      0.00
   -4   12    2     -4.57      0.00
   -3   12    2     -2.62      0.00
   -2   12    2     13.81      0.00
   -1   12    2      9.15      0.00
    0   12    2      9.52      0.00
    1   12    2      7.49      0.00
    2   12    2    -15.33      0.00
    3   12    2     -5.64      0.00
    4   12    2      2.62      0.00
    5   12    2     -0.54      0.00
    6   12    2      5.72      0.00
    7   12    2     -0.95      0.00
    8   12    2      0.10      0.00
    9   12    2      0.40      0.00
   10   12    2      0.01      0.00
  -11   13    2     -0.10      0.00
  -10   13    2     -3.06      0.00
   -9   13    2      0.32      0.00
   -8   13    2     -1.42      0.00
   -7   13    2      0.85      0.00
   -6   13    2     -2.98      0.00
   -5   13    2      1.41      0.00
   -4   13    2      7.02      0.00
   -3   13    2     -3.98      0.00
   -2   13    2     -2.02      0.00
   -1   13    2      1.39      0.00
    0   13    2      1.16      0.00
    1   13    2      0.85      0.00
    2   13    2     -4.20      0.00
    3   13    2     -6.52      0.00
    4   13    2      5.21      0.00
    5   13    2      0.25      0.00
    6   13    2     -0.14      0.00
    7   13    2     -0.99      0.00
    8   13    2      0.71      0.00
    9   13    2     -1.43      0.00
   10   13    2     -0.62      0.00
  -10   14    2     -0.08      0.00
   -9   14    2     -1.70      0.00
   -8   14    2      2.03      0.00
   -7   14    2     -4.53      0.00
   -6   14    2     -0.02      0.00
   -5   14    2      3.50      0.00
   -4   14    2     -4.16      0.00
   -3   14    2      7.55      0.00
   -2   14    2      5.57      0.00
   -1   14    2     -7.08      0.00
    0   14    2      0.50      0.00
    1   14    2     -4.02      0.00
    2   14    2     -8.28      0.00
    3   14    2      6.05      0.00
    4   14    2      0.17      0.00
    5   14    2      6.18      0.00
    6   14    2      0.75      0.00
    7   14    2     -0.75      0.00
    8   14    2     -3.25      0.00
    9   14    2     -0.50      0.00
   10   14    2      0.28      0.00
  -10   15    2      1.45      0.00
   -9   15    2     -0.44      0.00
   -8   15    2      0.18      0.00
   -7   15    2      4.52      0.00
   -6   15    2      3.54      0.00
   -5   15    2      0.02      0.00
   -4   15    2     -1.60      0.00
   -3   15    2      0.19      0.00
   -2   15    2     -0.80      0.00
   -1   15    2      3.39      0.00
    0   15    2      6.11      0.00
    1   15    2      2.57      0.00
    2   15    2      0.88      0.00
    3   15    2     -3.50      0.00
    4   15    2     -3.45      0.00
    5   15    2      2.68      0.00
    6   15    2      6.52      0.00
    7   15    2     -1.52      0.00
    8   15    2     -0.07      0.00
    9   15    2     -0.85      0.00
  -10   16    2     -0.23      0.00
   -9   16    2      1.40      0.00
   -8   16    2      2.39      0.00
   -7   16    2      1.76      0.00
   -6   16    2      3.35      0.00
   -5   16    2      3.64      0.00
   -4   16    2     -0.25      0.00
   -3   16    2     -0.63      0.00
   -2   16    2     -3.19      0.00
   -1   16    2      1.45      0.00
    0   16    2      3.91      0.00
    1   16    2      2.12      0.00
    2   16    2      3.78      0.00
    3   16    2     -1.86      0.00
    4   16    2     -0.61      0.00
    5   16    2     -1.40      0.00
    6   16    2     -0.78      0.00
    7   16    2      2.61      0.00
    8   16    2      0.42      0.00
    9   16    2     -0.85      0.00
   -9   17    2      2.05      0.00
   -8   17    2      1.13      0.00
   -7   17    2     -1.40      0.00
   -6   17    2      1.02      0.00
   -5   17    2     -3.45      0.00
   -4   17    2      1.49      0.00
   -3   17    2      1.65      0.00
   -2   17    2     -1.78      0.00
   -1   17    2      8.94      0.00
    0   17    2     -0.79      0.00
    1   17    2     -7.06      0.00
    2   17    2      2.29      0.00
    3   17    2     -2.77      0.00
    4   17    2     -1.63      0.00
    5   17    2      1.33      0.00
    6   17    2     -1.72      0.00
    7   17    2      2.82      0.00
    8   17    2     -2.04      0.00
    9   17    2     -0.55      0.00
   -9   18    2      0.29      0.00
   -8   18    2     -1.01      0.00
   -7   18    2      0.18      0.00
   -6   18    2     -1.26      0.00
   -5   18    2      0.31      0.00
   -4   18    2     -0.90      0.00
   -3   18    2     -5.18      0.00
   -2   18    2      4.79      0.00
   -1   18    2     -1.70      0.00
    0   18    2      1.93      0.00
    1   18    2      4.63      0.00
    2   18    2     -4.02      0.00
    3   18    2     -4.86      0.00
    4   18    2     -2.47      0.00
    5   18    2      0.51      0.00
    6   18    2      2.73      0.00
    7   18    2     -0.13      0.00
    8   18    2     -0.79      0.00
   -8   19    2     -1.76      0.00
   -7   19    2      1.85      0.00
   -6   19    2      1.76      0.00
   -5   19    2     -1.45      0.00
   -4   19    2      3.92      0.00
   -3   19    2     -0.17      0.00
   -2   19    2     -4.15      0.00
   -1   19    2     -1.53      0.00
    0   19    2     -1.59      0.00
    1   19    2      3.44      0.00
    2   19    2     -3.68      0.00
    3   19    2      1.13      0.00
    4   19    2      0.45      0.00
    5   19    2     -1.54      0.00
    6   19    2      2.51      0.00
    7   19    2     -1.64      0.00
    8   19    2      1.61      0.00
   -8   20    2      1.66      0.00
   -7   20    2      0.37      0.00
   -6   20    2     -0.94      0.00
   -5   20    2      2.97      0.00
   -4   20    2     -1.68      0.00
   -3   20    2      1.33      0.00
   -2   20    2      1.02      0.00
   -1   20    2     -0.59      0.00
    0   20    2     -1.92      0.00
    1   20    2      1.03      0.00
    2   20    2     -0.98      0.00
    3   20    2     -1.33      0.00
    4   20    2      0.57      0.00
    5   20    2      0.01      0.00
    6   20    2      0.79      0.00
    7   20    2      1.21      0.00
   -7   21    2     -0.01      0.00
   -6   21    2      0.05      0.00
   -5   21    2      1.01      0.00
   -4   21    2     -3.10      0.00
   -3   21    2      1.54      0.00
   -2   21    2     -0.24      0.00
   -1   21    2     -2.40      0.00
    0   21    2      5.86      0.00
    1   21    2      0.94      0.00
    2   21    2      3.69      0.00
    3   21    2     -2.06      0.00
    4   21    2     -3.57      0.00
    5   21    2      0.88      0.00
    6   21    2     -0.20      0.00
   -7   22    2      0.37      0.00
   -6   22    2     -0.52      0.00
   -5   22    2     -1.81      0.00
   -4   22    2      2.52      0.00
   -3   22    2     -1.50      0.00
   -2   22    2      1.88      0.00
   -1   22    2     -0.62      0.00
    0   22    2      1.91      0.00
    1   22    2      0.81      0.00
    2   22    2      0.69      0.00
    3   22    2      1.43      0.00
    4   22    2     -2.00      0.00
    5   22    2     -1.56      0.00
    6   22    2     -0.89      0.00
   -6   23    2      1.07      0.00
   -5   23    2     -1.47      0.00
   -4   23    2     -0.67      0.00
   -3   23    2      1.05      0.00
   -2   23    2     -2.01      0.00
   -1   23    2      4.15      0.00
    0   23    2     -1.48      0.00
    1   23    2     -2.08      0.00
    2   23    2     -0.66      0.00
    3   23    2     -1.81      0.00
    4   23    2     -0.71      0.00
    5   23    2     -1.96      0.00
   -5   24    2      2.68      0.00
   -4   24    2     -1.54      0.00
   -3   24    2     -2.27      0.00
   -2   24    2     -1.50      0.00
   -1   24    2      0.40      0.00
    0   24    2     -2.00      0.00
    1   24    2      0.03      0.00
    2   24    2      0.08      0.00
    3   24    2     -1.59      0.00
    4   24    2     -1.67      0.00
   -3   25    2     -0.02      0.00
   -2   25    2      0.16      0.00
   -1   25    2     -2.29      0.00
    0   25    2      0.25      0.00
    1   25    2      0.10      0.00
    2   25    2     -0.29      0.00
    3   25    2      1.03      0.00
  -11    0    3      3.09      0.00
   -9    0    3      2.32      0.00
   -7    0    3     -0.04      0.00
   -5    0    3    -13.60      0.00
   -3    0    3     44.67      0.00
   -1    0    3     28.11      0.00
    1    0    3    -12.32      0.00
    3    0    3      1.43      0.00
    5    0    3     -8.90      0.00
    7    0    3    -15.05      0.00
    9    0    3     -0.34      0.00
   11    0    3     -1.06      0.00
  -12    1    3      0.73      0.00
  -11    1    3     -2.06      0.00
  -10    1    3      1.27      0.00
   -9    1    3     -1.90      0.00
   -8    1    3      4.61      0.00
   -7    1    3      0.10      0.00
   -6    1    3     -0.53      0.00
   -5    1    3     -7.49      0.00
   -4    1    3      1.27      0.00
   -3    1    3      7.67      0.00
   -2    1    3     -2.89      0.00
   -1    1    3     11.50      0.00
    0    1    3    -13.62      0.00
    1    1    3    -43.77      0.00
    2    1    3     -3.69      0.00
    3    1    3    -39.78      0.00
    4    1    3     -0.49      0.00
    5    1    3     -1.13      0.00
    6    1    3     -9.08      0.00
    7    1    3      1.50      0.00
    8    1    3     -0.94      0.00
    9    1    3      0.59      0.00
   10    1    3     -0.53      0.00
   11    1    3      0.38      0.00
  -12    2    3     -0.95      0.00
  -11    2    3     -1.54      0.00
  -10    2    3     -1.05      0.00
   -9    2    3      0.94      0.00
   -8    2    3     -5.64      0.00
   -7    2    3      0.13      0.00
   -6    2    3     -6.91      0.00
   -5    2    3     -0.84      0.00
   -4    2    3    -11.45      0.00
   -3    2    3     -7.66      0.00
   -2    2    3    -19.15      0.00
   -1    2    3    -39.31      0.00
    0    2    3    -42.10      0.00
    1    2    3    -37.63      0.00
    2    2    3     -0.68      0.00
    3    2    3     17.41      0.00
    4    2    3     -2.45      0.00
    5    2    3      4.02      0.00
    6    2    3     -0.51      0.00
    7    2    3      1.94      0.00
    8    2    3     -1.24      0.00
    9    2    3      1.57      0.00
   10    2    3      2.19      0.00
   11    2    3     -0.50      0.00
  -12    3    3     -0.46      0.00
  -11    3    3      1.33      0.00
  -10    3    3     -1.84      0.00
   -9    3    3     -1.83      0.00
   -8    3    3     -5.92      0.00
   -7    3    3     -2.99      0.00
   -6    3    3    -11.26      0.00
   -5    3    3    -22.47      0.00
   -4    3    3      2.75      0.00
   -3    3    3    -36.11      0.00
   -2    3    3     31.42      0.00
   -1    3    3      3.28      0.00
    0    3    3    -30.61      0.00
    1    3    3     -1.88      0.00
    2    3    3      4.61      0.00
    3    3    3      2.90      0.00
    4    3    3     22.92      0.00
    5    3    3      8.97      0.00
    6    3    3     -2.06      0.00
    7    3    3     -2.23      0.00
    8    3    3      2.38      0.00
    9    3    3     -1.12      0.00
   10    3    3      0.78      0.00
   11    3    3      0.64      0.00
  -12    4    3      0.19      0.00
  -11    4    3     -0.73      0.00
  -10    4    3     -0.88      0.00
   -9    4    3     -3.18      0.00
   -8    4    3      2.74      0.00
   -7    4    3     -5.53      0.00
   -6    4    3      0.12      0.00
   -5    4    3     -0.88      0.00
   -4    4    3    -13.89      0.00
   -3    4    3      5.16      0.00
   -2    4    3      3.91      0.00
   -1    4    3     28.95      0.00
    0    4    3     33.13      0.00
    1    4    3     28.20      0.00
    2    4    3    -30.39      0.00
    3    4    3     14.83      0.00
    4    4    3      4.30      0.00
    5    4    3     -1.77      0.00
    6    4    3     -0.72      0.00
    7    4    3      2.31      0.00
    8    4    3     -0.70      0.00
    9    4    3      3.95      0.00
   10    4    3     -0.86      0.00
   11    4    3      1.46      0.00
  -12    5    3     -0.87      0.00
  -11    5    3     -1.07      0.00
  -10    5    3     -0.45      0.00
   -9    5    3      0.37      0.00
   -8    5    3      1.71      0.00
   -7    5    3      4.48      0.00
   -6    5    3     -2.54      0.00
   -5    5    3     17.69      0.00
   -4    5    3      2.49      0.00
   -3    5    3     17.70      0.00
   -2    5    3      4.91      0.00
   -1    5    3      9.32      0.00
    0    5    3      7.95      0.00
    1    5    3     -3.60      0.00
    2    5    3      6.58      0.00
    3    5    3      4.11      0.00
    4    5    3      9.77      0.00
    5    5    3      1.08      0.00
    6    5    3      4.12      0.00
    7    5    3     -4.12      0.00
    8    5    3      3.63      0.00
    9    5    3      0.07      0.00
   10    5    3      2.25      0.00
   11    5    3     -0.53      0.00
  -12    6    3      1.62      0.00
  -11    6    3      0.64      0.00
  -10    6    3      2.21      0.00
   -9    6    3      1.30      0.00
   -8    6    3      2.67      0.00
   -7    6    3      1.42      0.00
   -6    6    3      6.75      0.00
   -5    6    3     -4.76      0.00
   -4    6    3      0.32      0.00
   -3    6    3     14.06      0.00
   -2    6    3     36.80      0.00
   -1    6    3     -9.27      0.00
    0    6    3     18.46      0.00
    1    6    3    -14.46      0.00
    2    6    3     -4.64      0.00
    3    6    3     -1.54      0.00
    4    6    3     12.38      0.00
    5    6    3      8.63      0.00
    6    6    3      7.26      0.00
    7    6    3     -1.88      0.00
    8    6    3     -3.61      0.00
    9    6    3     -1.23      0.00
   10    6    3     -0.99      0.00
   11    6    3     -2.31      0.00
  -12    7    3      0.55      0.00
  -11    7    3      1.96      0.00
  -10    7    3      1.38      0.00
   -9    7    3      2.15      0.00
   -8    7    3     -0.33      0.00
   -7    7    3      3.77      0.00
   -6    7    3      6.63      0.00
   -5    7    3     -4.56      0.00
   -4    7    3      5.53      0.00
   -3    7    3      9.71      0.00
   -2    7    3    -14.99      0.00
   -1    7    3     28.98      0.00
    0    7    3      3.60      0.00
    1    7    3     -0.68      0.00
    2    7    3     -3.86      0.00
    3    7    3     -5.53      0.00
    4    7    3    -12.59      0.00
    5    7    3     12.90      0.00
    6    7    3     -7.11      0.00
    7    7    3     -0.43      0.00
    8    7    3     -4.50      0.00
    9    7    3     -0.38      0.00
   10    7    3     -2.31      0.00
   11    7    3     -0.26      0.00
  -12    8    3     -1.69      0.00
  -11    8    3      1.64      0.00
  -10    8    3     -0.23      0.00
   -9    8    3      1.31      0.00
   -8    8    3      0.32      0.00
   -7    8    3      0.60      0.00
   -6    8    3      3.80      0.00
   -5    8    3      8.52      0.00
   -4    8    3      0.09      0.00
   -3    8    3      0.31      0.00
   -2    8    3     -4.76      0.00
   -1    8    3     -8.77      0.00
    0    8    3    -15.41      0.00
    1    8    3    -14.56      0.00
    2    8    3     -3.54      0.00
    3    8    3     -4.72      0.00
    4    8    3     -0.52      0.00
    5    8    3     -6.75      0.00
    6    8    3      0.01      0.00
    7    8    3     -4.83      0.00
    8    8    3     -1.66      0.00
    9    8    3     -1.84      0.00
   10    8    3      2.02      0.00
   11    8    3      0.14      0.00
  -12    9    3      0.45      0.00
  -11    9    3     -0.91      0.00
  -10    9    3      2.32      0.00
   -9    9    3      0.00      0.00
   -8    9    3      1.12      0.00
   -7    9    3      3.01      0.00
   -6    9    3     -0.17      0.00
   -5    9    3    -11.93      0.00
   -4    9    3     -2.71      0.00
   -3    9    3    -21.71      0.00
   -2    9    3      0.80      0.00
   -1    9    3      2.02      0.00
    0    9    3     -6.88      0.00
    1    9    3    -13.13      0.00
    2    9    3     -4.85      0.00
    3    9    3     -9.74      0.00
    4    9    3      0.70      0.00
    5    9    3      5.65      0.00
    6    9    3      3.22      0.00
    7    9    3      0.89      0.00
    8    9    3     -0.57      0.00
    9    9    3     -0.32      0.00
   10    9    3     -0.53      0.00
  -11   10    3     -1.38      0.00
  -10   10    3     -0.95      0.00
   -9   10    3     -0.31      0.00
   -8   10    3      0.36      0.00
   -7   10    3     -1.17      0.00
   -6   10    3     -8.18      0.00
   -5   10    3     -1.06      0.00
   -4   10    3    -13.48      0.00
   -3   10    3    -15.91      0.00
   -2   10    3     -6.65      0.00
   -1   10    3      9.85      0.00
    0   10    3      6.83      0.00
    1   10    3     26.07      0.00
    2   10    3    -11.96      0.00
    3   10    3     -3.39      0.00
    4   10    3      6.58      0.00
    5   10    3      0.74      0.00
    6   10    3      1.58      0.00
    7   10    3      3.61      0.00
    8   10    3      0.60      0.00
    9   10    3      0.06      0.00
   10   10    3     -2.25      0.00
  -11   11    3     -1.02      0.00
  -10   11    3     -3.69      0.00
   -9   11    3     -0.70      0.00
   -8   11    3     -3.98      0.00
   -7   11    3     -4.48      0.00
   -6   11    3     -4.64      0.00
   -5   11    3      0.57      0.00
   -4   11    3      0.77      0.00
   -3   11    3      8.24      0.00
   -2   11    3      2.66      0.00
   -1   11    3     -1.72      0.00
    0   11    3     13.04      0.00
    1   11    3     -6.23      0.00
    2   11    3      3.02      0.00
    3   11    3      0.39      0.00
    4   11    3      1.38      0.00
    5   11    3      0.27      0.00
    6   11    3      3.75      0.00
    7   11    3     -2.30      0.00
    8   11    3      0.36      0.00
    9   11    3     -1.25      0.00
   10   11    3     -0.05      0.00
  -11   12    3     -1.06      0.00
  -10   12    3     -0.48      0.00
   -9   12    3     -4.10      0.00
   -8   12    3      0.22      0.00
   -7   12    3     -0.65      0.00
   -6   12    3     -0.03      0.00
   -5   12    3      1.53      0.00
   -4   12    3      0.64      0.00
   -3   12    3      0.30      0.00
   -2   12    3     14.68      0.00
   -1   12    3     -5.47      0.00
    0   12    3     -0.34      0.00
    1   12    3     -0.57      0.00
    2   12    3    -11.92      0.00
    3   12    3     -5.77      0.00
    4   12    3     -5.69      0.00
    5   12    3      5.70      0.00
    6   12    3      4.10      0.00
    7   12    3      1.53      0.00
    8   12    3     -1.93      0.00
    9   12    3      0.33      0.00
   10   12    3      1.21      0.00
  -11   13    3      0.67      0.00
  -10   13    3     -1.22      0.00
   -9   13    3     -1.30      0.00
   -8   13    3      0.51      0.00
   -7   13    3      0.70      0.00
   -6   13    3      6.44      0.00
   -5   13    3     -0.28      0.00
   -4   13    3     -2.73      0.00
   -3   13    3      2.10      0.00
   -2   13    3    -15.78      0.00
   -1   13    3     -0.05      0.00
    0   13    3      3.79      0.00
    1   13    3      3.99      0.00
    2   13    3     -0.43      0.00
    3   13    3     -0.56      0.00
    4   13    3     -4.72      0.00
    5   13    3      0.71      0.00
    6   13    3      3.54      0.00
    7   13    3      1.93      0.00
    8   13    3      1.84      0.00
    9   13    3     -1.24      0.00
  -10   14    3      1.64      0.00
   -9   14    3      1.95      0.00
   -8   14    3      0.55      0.00
   -7   14    3     -0.32      0.00
   -6   14    3      0.71      0.00
   -5   14    3      2.89      0.00
   -4   14    3      0.77      0.00
   -3   14    3      0.31      0.00
   -2   14    3     -4.02      0.00
   -1   14    3      6.34      0.00
    0   14    3      0.81      0.00
    1   14    3     -1.38      0.00
    2   14    3     15.19      0.00
    3   14    3      0.34      0.00
    4   14    3      2.77      0.00
    5   14    3      0.04      0.00
    6   14    3     -0.43      0.00
    7   14    3      3.50      0.00
    8   14    3     -0.08      0.00
    9   14    3     -0.09      0.00
  -10   15    3      2.52      0.00
   -9   15    3      3.68      0.00
   -8   15    3      0.87      0.00
   -7   15    3      1.86      0.00
   -6   15    3      4.00      0.00
   -5   15    3     -1.42      0.00
   -4   15    3     -0.18      0.00
   -3   15    3      0.47      0.00
   -2   15    3      8.71      0.00
   -1   15    3      5.46      0.00
    0   15    3      9.31      0.00
    1   15    3      2.41      0.00
    2   15    3      0.96      0.00
    3   15    3     -0.92      0.00
    4   15    3     -5.10      0.00
    5   15    3      1.36      0.00
    6   15    3      1.51      0.00
    7   15    3      3.08      0.00
    8   15    3     -1.17      0.00
    9   15    3      0.84      0.00
  -10   16    3      0.19      0.00
   -9   16    3      0.48      0.00
   -8   16    3     -0.05      0.00
   -7   16    3      3.92      0.00
   -6   16    3     -0.31      0.00
   -5   16    3      0.94      0.00
   -4   16    3      7.30      0.00
   -3   16    3     -6.09      0.00
   -2   16    3      0.42      0.00
   -1   16    3      2.26      0.00
    0   16    3     -3.53      0.00
    1   16    3      8.39      0.00
    2   16    3     -4.36      0.00
    3   16    3     -5.62      0.00
    4   16    3     -3.37      0.00
    5   16    3     -5.11      0.00
    6   16    3      1.54      0.00
    7   16    3     -0.42      0.00
    8   16    3      1.50      0.00
   -9   17    3     -1.26      0.00
   -8   17    3     -0.53      0.00
   -7   17    3     -3.13      0.00
   -6   17    3     -1.55      0.00
   -5   17    3      1.56      0.00
   -4   17    3     -0.47      0.00
   -3   17    3      3.43      0.00
   -2   17    3     -4.73      0.00
   -1   17    3     -5.65      0.00
    0   17    3     -5.08      0.00
    1   17    3     -2.87      0.00
    2   17    3     -4.12      0.00
    3   17    3      0.35      0.00
    4   17    3      0.68      0.00
    5   17    3     -3.25      0.00
    6   17    3     -0.82      0.00
    7   17    3     -1.10      0.00
    8   17    3      0.96      0.00
   -9   18    3     -2.16      0.00
   -8   18    3     -1.16      0.00
   -7   18    3      0.42      0.00
   -6   18    3     -2.08      0.00
   -5   18    3     -0.55      0.00
   -4   18    3     -3.07      0.00
   -3   18    3     -1.33      0.00
   -2   18    3     -1.84      0.00
   -1   18    3     -3.27      0.00
    0   18    3      1.28      0.00
    1   18    3      0.25      0.00
    2   18    3      1.85      0.00
    3   18    3     -0.72      0.00
    4   18    3     -0.44      0.00
    5   18    3      2.29      0.00
    6   18    3      1.13      0.00
    7   18    3      0.42      0.00
    8   18    3      0.49      0.00
   -8   19    3      0.18      0.00
   -7   19    3      1.34      0.00
   -6   19    3      0.84      0.00
   -5   19    3      1.48      0.00
   -4   19    3     -2.63      0.00
   -3   19    3     -0.84      0.00
   -2   19    3      0.95      0.00
   -1   19    3     -5.60      0.00
    0   19    3      6.32      0.00
    1   19    3      4.74      0.00
    2   19    3      3.93      0.00
    3   19    3      2.90      0.00
    4   19    3     -1.39      0.00
    5   19    3      0.75      0.00
    6   19    3     -0.31      0.00
    7   19    3      1.86      0.00
   -8   20    3     -0.16      0.00
   -7   20    3     -0.66      0.00
   -6   20    3      1.05      0.00
   -5   20    3     -2.29      0.00
   -4   20    3      2.86      0.00
   -3   20    3      0.83      0.00
   -2   20    3     -0.54      0.00
   -1   20    3      5.53      0.00
    0   20    3     -1.10      0.00
    1   20    3     -1.51      0.00
    2   20    3      2.99      0.00
    3   20    3      1.20      0.00
    4   20    3     -1.14      0.00
    5   20    3     -2.31      0.00
    6   20    3     -1.63      0.00
    7   20    3      1.07      0.00
   -7   21    3     -3.37      0.00
   -6   21    3     -0.02      0.00
   -5   21    3      0.51      0.00
   -4   21    3     -2.03      0.00
   -3   21    3      0.69      0.00
   -2   21    3      0.36      0.00
   -1   21    3      2.42      0.00
    0   21    3     -1.16      0.00
    1   21    3      0.10      0.00
    2   21    3      0.41      0.00
    3   21    3     -3.24      0.00
    4   21    3     -2.18      0.00
    5   21    3     -1.78      0.00
    6   21    3     -1.25      0.00
   -6   22    3     -0.75      0.00
   -5   22    3      0.43      0.00
   -4   22    3      0.98      0.00
   -3   22    3     -1.20      0.00
   -2   22    3     -1.97      0.00
   -1   22    3     -1.09      0.00
    0   22    3     -1.53      0.00
    1   22    3      0.08      0.00
    2   22    3     -0.32      0.00
    3   22    3      1.20      0.00
    4   22    3     -0.15      0.00
    5   22    3     -1.35      0.00
   -6   23    3     -0.05      0.00
   -5   23    3      0.02      0.00
   -4   23    3      0.93      0.00
   -3   23    3     -1.64      0.00
   -2   23    3      0.71      0.00
   -1   23    3     -1.85      0.00
    0   23    3     -1.30      0.00
    1   23    3     -0.33      0.00
    2   23    3     -1.04      0.00
    3   23    3      2.08      0.00
    4   23    3      1.75      0.00
   -4   24    3     -0.68      0.00
   -3   24    3      0.13      0.00
   -2   24    3     -0.31      0.00
   -1   24    3     -0.47      0.00
    0   24    3     -0.09      0.00
    1   24    3      1.01      0.00
    2   24    3      1.88      0.00
    3   24    3     -1.20      0.00
   -3   25    3      1.00      0.00
   -2   25    3      0.80      0.00
   -1   25    3     -1.29      0.00
    0   25    3      0.66      0.00
    1   25    3      0.26      0.00
    2   25    3      0.24      0.00
  -12    0    4      0.27      0.00
  -10    0    4      0.28      0.00
   -8    0    4     -2.75      0.00
   -6    0    4     -4.25      0.00
   -4    0    4      2.55      0.00
   -2    0    4     26.72      0.00
    0    0    4    -39.71      0.00
    2    0    4    -20.57      0.00
    4    0    4     -2.39      0.00
    6    0    4    -11.27      0.00
    8    0    4     -6.39      0.00
   10    0    4      0.66      0.00
  -12    1    4     -3.27      0.00
  -11    1    4      0.81      0.00
  -10    1    4     -1.60      0.00
   -9    1    4      0.78      0.00
   -8    1    4     -2.31      0.00
   -7    1    4      3.02      0.00
   -6    1    4     -4.26      0.00
   -5    1    4     -8.60      0.00
   -4    1    4     -8.36      0.00
   -3    1    4    -14.27      0.00
   -2    1    4     -9.29      0.00
   -1    1    4      6.12      0.00
    0    1    4    -16.03      0.00
    1    1    4    -27.33      0.00
    2    1    4    -34.63      0.00
    3    1    4    -12.42      0.00
    4    1    4     -0.23      0.00
    5    1    4      2.09      0.00
    6    1    4      1.09      0.00
    7    1    4     -4.24      0.00
    8    1    4      2.20      0.00
    9    1    4     -0.86      0.00
   10    1    4     -0.30      0.00
   11    1    4      0.67      0.00
  -12    2    4     -0.71      0.00
  -11    2    4     -1.21      0.00
  -10    2    4      0.83      0.00
   -9    2    4     -3.87      0.00
   -8    2    4      3.44      0.00
   -7    2    4     -7.49      0.00
   -6    2    4     -1.83      0.00
   -5    2    4     -0.94      0.00
   -4    2    4    -18.47      0.00
   -3    2    4    -36.83      0.00
   -2    2    4    -11.14      0.00
   -1    2    4    -26.97      0.00
    0    2    4      8.98      0.00
    1    2    4      8.13      0.00
    2    2    4    -12.48      0.00
    3    2    4      5.76      0.00
    4    2    4     13.27      0.00
    5    2    4     -1.52      0.00
    6    2    4      4.46      0.00
    7    2    4      4.62      0.00
    8    2    4      0.12      0.00
    9    2    4      0.18      0.00
   10    2    4      0.84      0.00
   11    2    4      0.94      0.00
  -12    3    4      1.76      0.00
  -11    3    4     -0.94      0.00
  -10    3    4     -0.86      0.00
   -9    3    4     -1.69      0.00
   -8    3    4     -3.95      0.00
   -7    3    4     -3.13      0.00
   -6    3    4     -7.79      0.00
   -5    3    4     -4.60      0.00
   -4    3    4    -15.62      0.00
   -3    3    4     17.84      0.00
   -2    3    4      0.23      0.00
   -1    3    4     20.34      0.00
    0    3    4     16.95      0.00
    1    3    4     12.43      0.00
    2    3    4      5.42      0.00
    3    3    4     15.96      0.00
    4    3    4      4.46      0.00
    5    3    4      9.95      0.00
    6    3    4      7.16      0.00
    7    3    4     -4.26      0.00
    8    3    4     -0.59      0.00
    9    3    4      1.24      0.00
   10    3    4      0.97      0.00
   11    3    4     -0.41      0.00
  -12    4    4      0.58      0.00
  -11    4    4      0.09      0.00
  -10    4    4     -2.19      0.00
   -9    4    4      0.39      0.00
   -8    4    4     -0.95      0.00
   -7    4    4      2.53      0.00
   -6    4    4      3.22      0.00
   -5    4    4     -0.77      0.00
   -4    4    4      5.12      0.00
   -3    4    4     16.72      0.00
   -2    4    4     28.52      0.00
   -1    4    4     28.13      0.00
    0    4    4     35.10      0.00
    1    4    4      1.87      0.00
    2    4    4      1.13      0.00
    3    4    4    -23.95      0.00
    4    4    4      6.74      0.00
    5    4    4      6.27      0.00
    6    4    4      1.65      0.00
    7    4    4      0.45      0.00
    8    4    4     -0.19      0.00
    9    4    4     -0.20      0.00
   10    4    4      0.61      0.00
   11    4    4     -0.45      0.00
  -12    5    4     -1.73      0.00
  -11    5    4     -0.31      0.00
  -10    5    4      0.95      0.00
   -9    5    4      1.24      0.00
   -8    5    4      2.20      0.00
   -7    5    4      2.62      0.00
   -6    5    4     16.11      0.00
   -5    5    4      7.17      0.00
   -4    5    4     14.01      0.00
   -3    5    4     11.81      0.00
   -2    5    4    -11.30      0.00
   -1    5    4     -0.56      0.00
    0    5    4      9.21      0.00
    1    5    4    -13.90      0.00
    2    5    4      0.14      0.00
    3    5    4      4.54      0.00
    4    5    4    -15.83      0.00
    5    5    4      8.70      0.00
    6    5    4      0.52      0.00
    7    5    4      2.87      0.00
    8    5    4     -3.07      0.00
    9    5    4      1.94      0.00
   10    5    4     -0.95      0.00
  -12    6    4     -0.11      0.00
  -11    6    4      1.74      0.00
  -10    6    4      2.27      0.00
   -9    6    4      1.60      0.00
   -8    6    4      0.22      0.00
   -7    6    4      6.21      0.00
   -6    6    4      1.05      0.00
   -5    6    4      4.26      0.00
   -4    6    4      4.53      0.00
   -3    6    4    -11.89      0.00
   -2    6    4      3.58      0.00
   -1    6    4      4.61      0.00
    0    6    4    -29.92      0.00
    1    6    4      4.49      0.00
    2    6    4      0.89      0.00
    3    6    4     -2.25      0.00
    4    6    4      4.91      0.00
    5    6    4      4.28      0.00
    6    6    4      3.03      0.00
    7    6    4     -2.15      0.00
    8    6    4     -1.12      0.00
    9    6    4     -3.93      0.00
   10    6    4     -0.04      0.00
  -12    7    4      1.69      0.00
  -11    7    4      0.63      0.00
  -10    7    4      0.98      0.00
   -9    7    4      1.54      0.00
   -8    7    4      1.88      0.00
   -7    7    4      1.20      0.00
   -6    7    4      2.18      0.00
   -5    7    4     -4.96      0.00
   -4    7    4     -4.18      0.00
   -3    7    4    -13.50      0.00
   -2    7    4     -1.40      0.00
   -1    7    4     10.28      0.00
    0    7    4     18.48      0.00
    1    7    4      9.00      0.00
    2    7    4     -6.60      0.00
    3    7    4    -11.73      0.00
    4    7    4      2.18      0.00
    5    7    4     -7.15      0.00
    6    7    4      3.37      0.00
    7    7    4     -1.64      0.00
    8    7    4      0.01      0.00
    9    7    4     -2.76      0.00
   10    7    4     -1.00      0.00
  -12    8    4     -0.11      0.00
  -11    8    4     -1.43      0.00
  -10    8    4      0.13      0.00
   -9    8    4      0.26      0.00
   -8    8    4      1.74      0.00
   -7    8    4      0.31      0.00
   -6    8    4     -5.41      0.00
   -5    8    4     10.24      0.00
   -4    8    4     -1.30      0.00
   -3    8    4     -6.16      0.00
   -2    8    4    -10.90      0.00
   -1    8    4      1.98      0.00
    0    8    4      2.07      0.00
    1    8    4      8.99      0.00
    2    8    4     -4.22      0.00
    3    8    4     -8.04      0.00
    4    8    4     -6.53      0.00
    5    8    4     -2.77      0.00
    6    8    4     -5.25      0.00
    7    8    4      3.84      0.00
    8    8    4     -1.18      0.00
    9    8    4      2.45      0.00
   10    8    4     -1.92      0.00
  -11    9    4      0.05      0.00
  -10    9    4     -0.89      0.00
   -9    9    4      0.48      0.00
   -8    9    4     -0.67      0.00
   -7    9    4     -2.02      0.00
   -6    9    4     -3.45      0.00
   -5    9    4     -1.00      0.00
   -4    9    4     -9.43      0.00
   -3    9    4      1.96      0.00
   -2    9    4      6.96      0.00
   -1    9    4    -19.74      0.00
    0    9    4      3.62      0.00
    1    9    4     -6.49      0.00
    2    9    4    -10.36      0.00
    3    9    4     -0.19      0.00
    4    9    4     -1.89      0.00
    5    9    4      1.13      0.00
    6    9    4      8.45      0.00
    7    9    4     -0.60      0.00
    8    9    4      1.51      0.00
    9    9    4     -0.89      0.00
   10    9    4      0.33      0.00
  -11   10    4     -0.87      0.00
  -10   10    4     -1.23      0.00
   -9   10    4     -3.28      0.00
   -8   10    4     -1.63      0.00
   -7   10    4     -2.74      0.00
   -6   10    4      0.01      0.00
   -5   10    4    -11.65      0.00
   -4   10    4      0.27      0.00
   -3   10    4     -9.80      0.00
   -2   10    4     -3.93      0.00
   -1   10    4      0.86      0.00
    0   10    4      5.95      0.00
    1   10    4      5.33      0.00
    2   10    4      1.01      0.00
    3   10    4     -5.38      0.00
    4   10    4     -3.74      0.00
    5   10    4      6.53      0.00
    6   10    4      3.08      0.00
    7   10    4      3.48      0.00
    8   10    4      0.63      0.00
    9   10    4     -1.22      0.00
   10   10    4      1.78      0.00
  -11   11    4     -0.29      0.00
  -10   11    4     -3.02      0.00
   -9   11    4     -3.68      0.00
   -8   11    4     -2.11      0.00
   -7   11    4     -5.58      0.00
   -6   11    4      2.08      0.00
   -5   11    4      4.77      0.00
   -4   11    4     -4.13      0.00
   -3   11    4     10.07      0.00
   -2   11    4    -14.18      0.00
   -1   11    4      0.78      0.00
    0   11    4     -0.71      0.00
    1   11    4      6.15      0.00
    2   11    4      5.84      0.00
    3   11    4      5.10      0.00
    4   11    4     -4.54      0.00
    5   11    4     -3.25      0.00
    6   11    4     -0.19      0.00
    7   11    4      2.25      0.00
    8   11    4      0.83      0.00
    9   11    4      1.24      0.00
  -11   12    4     -0.25      0.00
  -10   12    4      1.34      0.00
   -9   12    4      1.12      0.00
   -8   12    4     -2.27      0.00
   -7   12    4      2.82      0.00
   -6   12    4      1.75      0.00
   -5   12    4      1.68      0.00
   -4   12    4      2.99      0.00
   -3   12    4      2.41      0.00
   -2   12    4      1.69      0.00
   -1   12    4      3.77      0.00
    0   12    4     -0.14      0.00
    1   12    4    -10.28      0.00
    2   12    4     12.57      0.00
    3   12    4     -3.26      0.00
    4   12    4     -3.18      0.00
    5   12    4     -1.16      0.00
    6   12    4      1.88      0.00
    7   12    4      3.08      0.00
    8   12    4      1.30      0.00
    9   12    4      1.60      0.00
  -11   13    4      1.56      0.00
  -10   13    4      1.86      0.00
   -9   13    4      3.32      0.00
   -8   13    4      2.10      0.00
   -7   13    4      3.74      0.00
   -6   13    4      2.96      0.00
   -5   13    4      0.47      0.00
   -4   13    4      4.27      0.00
   -3   13    4    -10.48      0.00
   -2   13    4      7.70      0.00
   -1   13    4      1.33      0.00
    0   13    4      5.89      0.00
    1   13    4     13.20      0.00
    2   13    4     -1.41      0.00
    3   13    4     -0.59      0.00
    4   13    4     -1.41      0.00
    5   13    4     -0.80      0.00
    6   13    4      1.12      0.00
    7   13    4      4.18      0.00
    8   13    4      1.88      0.00
    9   13    4      0.89      0.00
  -10   14    4      1.28      0.00
   -9   14    4      2.04      0.00
   -8   14    4      0.92      0.00
   -7   14    4      0.36      0.00
   -6   14    4     -0.11      0.00
   -5   14    4      0.75      0.00
   -4   14    4      7.79      0.00
   -3   14    4      2.93      0.00
   -2   14    4     -4.61      0.00
   -1   14    4      6.04      0.00
    0   14    4     -1.76      0.00
    1   14    4      8.51      0.00
    2   14    4      3.44      0.00
    3   14    4      3.23      0.00
    4   14    4      1.04      0.00
    5   14    4     -4.26      0.00
    6   14    4     -0.77      0.00
    7   14    4     -0.64      0.00
    8   14    4      2.64      0.00
    9   14    4     -1.38      0.00
  -10   15    4      1.49      0.00
   -9   15    4     -0.46      0.00
   -8   15    4      0.90      0.00
   -7   15    4     -0.08      0.00
   -6   15    4     -3.13      0.00
   -5   15    4      4.95      0.00
   -4   15    4     -2.99      0.00
   -3   15    4      6.05      0.00
   -2   15    4      5.40      0.00
   -1   15    4     -4.39      0.00
    0   15    4     -2.64      0.00
    1   15    4     -2.53      0.00
    2   15    4     -2.20      0.00
    3   15    4     -2.41      0.00
    4   15    4     -0.23      0.00
    5   15    4     -3.48      0.00
    6   15    4     -0.85      0.00
    7   15    4     -1.82      0.00
    8   15    4     -0.10      0.00
  -10   16    4     -1.10      0.00
   -9   16    4     -1.98      0.00
   -8   16    4     -1.02      0.00
   -7   16    4      1.71      0.00
   -6   16    4      1.93      0.00
   -5   16    4     -1.31      0.00
   -4   16    4     -1.18      0.00
   -3   16    4     -1.46      0.00
   -2   16    4     -4.50      0.00
   -1   16    4     -9.07      0.00
    0   16    4      2.61      0.00
    1   16    4     -2.41      0.00
    2   16    4     -3.02      0.00
    3   16    4     -0.78      0.00
    4   16    4     -5.35      0.00
    5   16    4     -1.16      0.00
    6   16    4     -1.89      0.00
    7   16    4      0.08      0.00
    8   16    4      0.00      0.00
   -9   17    4     -1.71      0.00
   -8   17    4     -0.27      0.00
   -7   17    4     -2.24      0.00
   -6   17    4     -1.39      0.00
   -5   17    4      1.54      0.00
   -4   17    4      0.03      0.00
   -3   17    4     -3.90      0.00
   -2   17    4     -3.95      0.00
   -1   17    4     -4.04      0.00
    0   17    4     -3.32      0.00
    1   17    4      0.12      0.00
    2   17    4      4.55      0.00
    3   17    4      3.86      0.00
    4   17    4      1.16      0.00
    5   17    4     -0.60      0.00
    6   17    4     -3.21      0.00
    7   17    4      0.72      0.00
    8   17    4      0.77      0.00
   -9   18    4      1.44      0.00
   -8   18    4     -0.09      0.00
   -7   18    4     -3.13      0.00
   -6   18    4      1.44      0.00
   -5   18    4     -3.03      0.00
   -4   18    4     -2.55      0.00
   -3   18    4      2.85      0.00
   -2   18    4     -0.20      0.00
   -1   18    4      5.19      0.00
    0   18    4      1.94      0.00
    1   18    4     -1.01      0.00
    2   18    4      4.70      0.00
    3   18    4      3.37      0.00
    4   18    4      2.53      0.00
    5   18    4      1.77      0.00
    6   18    4     -1.08      0.00
    7   18    4      0.68      0.00
   -8   19    4     -0.50      0.00
   -7   19    4      1.37      0.00
   -6   19    4     -0.24      0.00
   -5   19    4     -0.69      0.00
   -4   19    4      1.38      0.00
   -3   19    4     -0.85      0.00
   -2   19    4      2.66      0.00
   -1   19    4      2.86      0.00
    0   19    4      0.27      0.00
    1   19    4      4.87      0.00
    2   19    4      1.75      0.00
    3   19    4     -0.98      0.00
    4   19    4     -0.33      0.00
    5   19    4     -0.89      0.00
    6   19    4      1.57      0.00
    7   19    4     -0.51      0.00
   -8   20    4      0.10      0.00
   -7   20    4     -1.12      0.00
   -6   20    4     -0.51      0.00
   -5   20    4      1.12      0.00
   -4   20    4      2.12      0.00
   -3   20    4      1.11      0.00
   -2   20    4     -0.93      0.00
   -1   20    4     -1.14      0.00
    0   20    4     -2.49      0.00
    1   20    4     -1.87      0.00
    2   20    4     -1.64      0.00
    3   20    4      1.00      0.00
    4   20    4     -0.29      0.00
    5   20    4     -3.20      0.00
    6   20    4      0.14      0.00
   -7   21    4     -0.33      0.00
   -6   21    4     -2.20      0.00
   -5   21    4      0.81      0.00
   -4   21    4      0.19      0.00
   -3   21    4     -2.09      0.00
   -2   21    4      0.12      0.00
   -1   21    4     -0.30      0.00
    0   21    4     -2.31      0.00
    1   21    4     -2.44      0.00
    2   21    4     -0.52      0.00
    3   21    4     -0.68      0.00
    4   21    4      0.78      0.00
    5   21    4      0.09      0.00
   -6   22    4      0.75      0.00
   -5   22    4     -1.04      0.00
   -4   22    4     -1.74      0.00
   -3   22    4      0.48      0.00
   -2   22    4      0.08      0.00
   -1   22    4     -3.86      0.00
    0   22    4      1.13      0.00
    1   22    4      2.05      0.00
    2   22    4      0.94      0.00
    3   22    4      1.74      0.00
    4   22    4      0.93      0.00
    5   22    4      2.23      0.00
   -5   23    4     -0.32      0.00
   -4   23    4      0.35      0.00
   -3   23    4      0.45      0.00
   -2   23    4      0.12      0.00
   -1   23    4     -0.16      0.00
    0   23    4     -0.03      0.00
    1   23    4     -0.62      0.00
    2   23    4     -0.16      0.00
    3   23    4      2.89      0.00
    4   23    4      1.33      0.00
   -4   24    4     -0.40      0.00
   -3   24    4      0.49      0.00
   -2   24    4      0.01      0.00
   -1   24    4      1.56      0.00
    0   24    4      0.22      0.00
    1   24    4     -0.95      0.00
    2   24    4     -0.65      0.00
   -1   25    4      0.68      0.00
    0   25    4     -0.21      0.00
  -11    0    5     -0.76      0.00
   -9    0    5     -2.02      0.00
   -7    0    5     -4.34      0.00
   -5    0    5     -2.84      0.00
   -3    0    5    -24.11      0.00
   -1    0    5    -14.41      0.00
    1    0    5     -0.55      0.00
    3    0    5    -11.25      0.00
    5    0    5     -6.37      0.00
    7    0    5     -4.10      0.00
    9    0    5     -3.11      0.00
  -12    1    5      0.04      0.00
  -11    1    5     -1.07      0.00
  -10    1    5     -0.14      0.00
   -9    1    5      0.56      0.00
   -8    1    5      0.40      0.00
   -7    1    5     -2.61      0.00
   -6    1    5     -2.44      0.00
   -5    1    5     -6.06      0.00
   -4    1    5    -19.15      0.00
   -3    1    5     14.91      0.00
   -2    1    5    -15.20      0.00
   -1    1    5      2.95      0.00
    0    1    5      7.99      0.00
    1    1    5     -2.73      0.00
    2    1    5    -23.73      0.00
    3    1    5     -7.15      0.00
    4    1    5     -2.17      0.00
    5    1    5      5.29      0.00
    6    1    5      3.69      0.00
    7    1    5      1.52      0.00
    8    1    5     -2.41      0.00
    9    1    5      1.80      0.00
   10    1    5      0.09      0.00
  -12    2    5     -0.06      0.00
  -11    2    5      0.71      0.00
  -10    2    5     -2.11      0.00
   -9    2    5      0.94      0.00
   -8    2    5     -3.68      0.00
   -7    2    5      1.46      0.00
   -6    2    5     -1.94      0.00
   -5    2    5     -1.84      0.00
   -4    2    5     -8.09      0.00
   -3    2    5     -3.66      0.00
   -2    2    5    -16.93      0.00
   -1    2    5      8.56      0.00
    0    2    5     21.33      0.00
    1    2    5     -4.34      0.00
    2    2    5     18.41      0.00
    3    2    5     -8.39      0.00
    4    2    5     -1.94      0.00
    5    2    5     11.91      0.00
    6    2    5      6.39      0.00
    7    2    5      3.14      0.00
    8    2    5      2.03      0.00
    9    2    5      0.22      0.00
   10    2    5     -0.13      0.00
  -12    3    5     -0.34      0.00
  -11    3    5     -1.29      0.00
  -10    3    5      0.27      0.00
   -9    3    5     -3.12      0.00
   -8    3    5     -1.73      0.00
   -7    3    5     -5.75      0.00
   -6    3    5      6.54      0.00
   -5    3    5     -2.56      0.00
   -4    3    5     16.08      0.00
   -3    3    5     -3.01      0.00
   -2    3    5     23.18      0.00
   -1    3    5     -5.62      0.00
    0    3    5      9.25      0.00
    1    3    5     11.77      0.00
    2    3    5     15.14      0.00
    3    3    5      9.95      0.00
    4    3    5     -0.75      0.00
    5    3    5      3.30      0.00
    6    3    5      3.12      0.00
    7    3    5      3.03      0.00
    8    3    5     -2.42      0.00
    9    3    5      0.22      0.00
   10    3    5      0.19      0.00
  -12    4    5     -0.02      0.00
  -11    4    5     -0.67      0.00
  -10    4    5     -0.27      0.00
   -9    4    5      1.04      0.00
   -8    4    5     -1.25      0.00
   -7    4    5      6.57      0.00
   -6    4    5      2.81      0.00
   -5    4    5      4.02      0.00
   -4    4    5     13.78      0.00
   -3    4    5      9.04      0.00
   -2    4    5      2.74      0.00
   -1    4    5     34.66      0.00
    0    4    5    -13.95      0.00
    1    4    5     12.23      0.00
    2    4    5     -8.08      0.00
    3    4    5     -6.20      0.00
    4    4    5     -5.64      0.00
    5    4    5      2.83      0.00
    6    4    5      0.15      0.00
    7    4    5     -1.96      0.00
    8    4    5      1.40      0.00
    9    4    5     -1.58      0.00
   10    4    5     -0.01      0.00
  -12    5    5     -0.02      0.00
  -11    5    5      0.98      0.00
  -10    5    5      0.67      0.00
   -9    5    5      2.68      0.00
   -8    5    5      4.91      0.00
   -7    5    5      5.88      0.00
   -6    5    5      4.41      0.00
   -5    5    5     17.31      0.00
   -4    5    5     -1.93      0.00
   -3    5    5     -9.84      0.00
   -2    5    5    -11.45      0.00
   -1    5    5     -9.18      0.00
    0    5    5      7.73      0.00
    1    5    5      6.86      0.00
    2    5    5     -4.22      0.00
    3    5    5    -12.84      0.00
    4    5    5      4.98      0.00
    5    5    5    -12.80      0.00
    6    5    5      3.44      0.00
    7    5    5      2.50      0.00
    8    5    5      1.80      0.00
    9    5    5     -1.22      0.00
   10    5    5     -1.23      0.00
  -12    6    5      1.26      0.00
  -11    6    5      0.53      0.00
  -10    6    5      3.19      0.00
   -9    6    5      0.89      0.00
   -8    6    5      3.49      0.00
   -7    6    5      0.62      0.00
   -6    6    5     -0.80      0.00
   -5    6    5      3.21      0.00
   -4    6    5     -0.52      0.00
   -3    6    5     -6.54      0.00
   -2    6    5     -3.45      0.00
   -1    6    5    -17.38      0.00
    0    6    5      6.93      0.00
    1    6    5     -0.36      0.00
    2    6    5      8.61      0.00
    3    6    5      6.61      0.00
    4    6    5     -5.67      0.00
    5    6    5      2.34      0.00
    6    6    5     -1.29      0.00
    7    6    5      1.83      0.00
    8    6    5     -1.99      0.00
    9    6    5      0.94      0.00
   10    6    5     -1.79      0.00
  -12    7    5      1.56      0.00
  -11    7    5      1.25      0.00
  -10    7    5      0.04      0.00
   -9    7    5      0.56      0.00
   -8    7    5      0.31      0.00
   -7    7    5     -1.56      0.00
   -6    7    5     -4.05      0.00
   -5    7    5     -4.33      0.00
   -4    7    5     -5.50      0.00
   -3    7    5      3.35      0.00
   -2    7    5     12.11      0.00
   -1    7    5      1.94      0.00
    0    7    5      5.98      0.00
    1    7    5     14.76      0.00
    2    7    5    -10.16      0.00
    3    7    5     -4.46      0.00
    4    7    5     -3.74      0.00
    5    7    5     -0.05      0.00
    6    7    5     -0.03      0.00
    7    7    5      0.16      0.00
    8    7    5     -0.32      0.00
    9    7    5     -1.08      0.00
   10    7    5      0.86      0.00
  -11    8    5     -0.46      0.00
  -10    8    5     -1.72      0.00
   -9    8    5     -0.01      0.00
   -8    8    5     -1.51      0.00
   -7    8    5     -4.59      0.00
   -6    8    5      4.97      0.00
   -5    8    5     -4.94      0.00
   -4    8    5      3.44      0.00
   -3    8    5      5.55      0.00
   -2    8    5    -16.84      0.00
   -1    8    5     -3.33      0.00
    0    8    5      5.01      0.00
    1    8    5     -7.43      0.00
    2    8    5      2.05      0.00
    3    8    5     -5.73      0.00
    4    8    5    -11.75      0.00
    5    8    5     -4.54      0.00
    6    8    5      1.28      0.00
    7    8    5     -0.08      0.00
    8    8    5      2.75      0.00
    9    8    5     -1.35      0.00
   10    8    5      2.40      0.00
  -11    9    5      0.05      0.00
  -10    9    5     -0.31      0.00
   -9    9    5     -3.08      0.00
   -8    9    5     -1.63      0.00
   -7    9    5     -2.31      0.00
   -6    9    5     -2.67      0.00
   -5    9    5      2.06      0.00
   -4    9    5     -4.60      0.00
   -3    9    5     -1.87      0.00
   -2    9    5     -9.81      0.00
   -1    9    5    -11.44      0.00
    0    9    5    -20.03      0.00
    1    9    5     -7.17      0.00
    2    9    5      7.13      0.00
    3    9    5      2.79      0.00
    4    9    5     -2.20      0.00
    5    9    5      0.21      0.00
    6    9    5     -0.15      0.00
    7    9    5      3.39      0.00
    8    9    5     -1.38      0.00
    9    9    5      3.25      0.00
  -11   10    5     -0.71      0.00
  -10   10    5     -1.51      0.00
   -9   10    5     -0.03      0.00
   -8   10    5     -3.76      0.00
   -7   10    5      0.63      0.00
   -6   10    5     -2.30      0.00
   -5   10    5     -6.50      0.00
   -4   10    5     -4.61      0.00
   -3   10    5     -6.83      0.00
   -2   10    5     -1.58      0.00
   -1   10    5      1.97      0.00
    0   10    5      4.44      0.00
    1   10    5      0.80      0.00
    2   10    5      7.97      0.00
    3   10    5      3.76      0.00
    4   10    5      2.17      0.00
    5   10    5     -0.09      0.00
    6   10    5      2.50      0.00
    7   10    5      1.64      0.00
    8   10    5      3.03      0.00
    9   10    5      0.49      0.00
  -11   11    5     -0.54      0.00
  -10   11    5      0.04      0.00
   -9   11    5      0.29      0.00
   -8   11    5     -0.47      0.00
   -7   11    5     -0.46      0.00
   -6   11    5     -0.98      0.00
   -5   11    5      1.06      0.00
   -4   11    5     11.00      0.00
   -3   11    5     -7.89      0.00
   -2   11    5      3.72      0.00
   -1   11    5      7.45      0.00
    0   11    5      4.03      0.00
    1   11    5     15.31      0.00
    2   11    5      6.94      0.00
    3   11    5      0.45      0.00
    4   11    5      1.85      0.00
    5   11    5     -4.27      0.00
    6   11    5     -3.65      0.00
    7   11    5      3.11      0.00
    8   11    5      3.00      0.00
    9   11    5      1.86      0.00
  -11   12    5      2.40      0.00
  -10   12    5      2.81      0.00
   -9   12    5      2.76      0.00
   -8   12    5      1.59      0.00
   -7   12    5      0.86      0.00
   -6   12    5      1.06      0.00
   -5   12    5      5.92      0.00
   -4   12    5      3.60      0.00
   -3   12    5     13.88      0.00
   -2   12    5      5.06      0.00
   -1   12    5     -0.38      0.00
    0   12    5     -3.19      0.00
    1   12    5      1.55      0.00
    2   12    5     -1.76      0.00
    3   12    5      4.90      0.00
    4   12    5     -0.71      0.00
    5   12    5     -3.84      0.00
    6   12    5      0.66      0.00
    7   12    5     -1.33      0.00
    8   12    5      2.87      0.00
    9   12    5      0.75      0.00
  -10   13    5      3.33      0.00
   -9   13    5      0.73      0.00
   -8   13    5      2.98      0.00
   -7   13    5      4.21      0.00
   -6   13    5     -1.03      0.00
   -5   13    5      3.12      0.00
   -4   13    5     -0.19      0.00
   -3   13    5      2.16      0.00
   -2   13    5      5.33      0.00
   -1   13    5     -2.68      0.00
    0   13    5     -0.43      0.00
    1   13    5     -1.74      0.00
    2   13    5     -0.77      0.00
    3   13    5     -2.68      0.00
    4   13    5      0.71      0.00
    5   13    5      0.25      0.00
    6   13    5     -0.24      0.00
    7   13    5     -0.15      0.00
    8   13    5     -1.22      0.00
  -10   14    5     -1.68      0.00
   -9   14    5     -0.77      0.00
   -8   14    5      0.75      0.00
   -7   14    5     -2.01      0.00
   -6   14    5      2.55      0.00
   -5   14    5      0.22      0.00
   -4   14    5     -0.87      0.00
   -3   14    5      0.20      0.00
   -2   14    5     -5.73      0.00
   -1   14    5     -8.71      0.00
    0   14    5      2.97      0.00
    1   14    5      0.52      0.00
    2   14    5     -0.41      0.00
    3   14    5      4.32      0.00
    4   14    5     -1.02      0.00
    5   14    5     -2.06      0.00
    6   14    5     -5.14      0.00
    7   14    5     -1.16      0.00
    8   14    5     -1.24      0.00
  -10   15    5     -0.04      0.00
   -9   15    5     -0.20      0.00
   -8   15    5     -0.73      0.00
   -7   15    5     -1.84      0.00
   -6   15    5     -0.51      0.00
   -5   15    5     -1.13      0.00
   -4   15    5      0.04      0.00
   -3   15    5     -0.15      0.00
   -2   15    5     -3.48      0.00
   -1   15    5      0.80      0.00
    0   15    5     -5.90      0.00
    1   15    5     -7.18      0.00
    2   15    5      3.40      0.00
    3   15    5      2.65      0.00
    4   15    5     -0.93      0.00
    5   15    5     -1.59      0.00
    6   15    5     -4.59      0.00
    7   15    5     -3.02      0.00
    8   15    5      0.85      0.00
   -9   16    5      1.12      0.00
   -8   16    5      0.35      0.00
   -7   16    5     -0.33      0.00
   -6   16    5      0.85      0.00
   -5   16    5     -1.09      0.00
   -4   16    5     -3.59      0.00
   -3   16    5     -1.27      0.00
   -2   16    5      2.29      0.00
   -1   16    5      0.17      0.00
    0   16    5      1.21      0.00
    1   16    5     -0.45      0.00
    2   16    5     -1.02      0.00
    3   16    5     -1.07      0.00
    4   16    5      0.95      0.00
    5   16    5      0.46      0.00
    6   16    5     -0.72      0.00
    7   16    5     -1.04      0.00
   -9   17    5      0.74      0.00
   -8   17    5     -0.76      0.00
   -7   17    5     -0.03      0.00
   -6   17    5     -0.41      0.00
   -5   17    5     -3.05      0.00
   -4   17    5      5.57      0.00
   -3   17    5     -1.32      0.00
   -2   17    5     -2.59      0.00
   -1   17    5      3.16      0.00
    0   17    5     -2.10      0.00
    1   17    5      3.68      0.00
    2   17    5      2.25      0.00
    3   17    5      2.00      0.00
    4   17    5      2.24      0.00
    5   17    5      0.13      0.00
    6   17    5      1.62      0.00
    7   17    5      0.16      0.00
   -8   18    5      0.38      0.00
   -7   18    5     -1.40      0.00
   -6   18    5     -3.65      0.00
   -5   18    5      2.57      0.00
   -4   18    5     -1.41      0.00
   -3   18    5      2.60      0.00
   -2   18    5      3.02      0.00
   -1   18    5      0.71      0.00
    0   18    5     -2.92      0.00
    1   18    5     -1.53      0.00
    2   18    5      0.98      0.00
    3   18    5      1.08      0.00
    4   18    5      4.17      0.00
    5   18    5      0.57      0.00
    6   18    5      0.86      0.00
   -8   19    5      0.02      0.00
   -7   19    5      1.61      0.00
   -6   19    5     -0.39      0.00
   -5   19    5     -1.24      0.00
   -4   19    5     -0.94      0.00
   -3   19    5     -0.23      0.00
   -2   19    5      0.57      0.00
   -1   19    5     -1.73      0.00
    0   19    5      1.75      0.00
    1   19    5     -1.16      0.00
    2   19    5     -1.49      0.00
    3   19    5     -0.55      0.00
    4   19    5     -0.87      0.00
    5   19    5      1.44      0.00
    6   19    5      0.40      0.00
   -7   20    5      0.62      0.00
   -6   20    5      0.81      0.00
   -5   20    5     -0.35      0.00
   -4   20    5      0.35      0.00
   -3   20    5     -1.58      0.00
   -2   20    5      0.10      0.00
   -1   20    5     -4.64      0.00
    0   20    5     -0.75      0.00
    1   20    5      1.14      0.00
    2   20    5     -1.19      0.00
    3   20    5      1.53      0.00
    4   20    5     -1.85      0.00
    5   20    5     -0.10      0.00
   -6   21    5      0.78      0.00
   -5   21    5     -0.42      0.00
   -4   21    5     -0.92      0.00
   -3   21    5      1.29      0.00
   -2   21    5     -0.40      0.00
   -1   21    5      2.41      0.00
    0   21    5     -0.74      0.00
    1   21    5     -2.70      0.00
    2   21    5     -0.79      0.00
    3   21    5      1.24      0.00
    4   21    5      1.56      0.00
   -6   22    5     -1.53      0.00
   -5   22    5      0.57      0.00
   -4   22    5     -1.15      0.00
   -3   22    5      0.87      0.00
   -2   22    5      1.21      0.00
   -1   22    5      1.54      0.00
    0   22    5      0.42      0.00
    1   22    5      0.15      0.00
    2   22    5      0.87      0.00
    3   22    5     -2.12      0.00
    4   22    5      1.45      0.00
   -4   23    5      1.74      0.00
   -3   23    5      0.70      0.00
   -2   23    5     -1.58      0.00
   -1   23    5     -0.30      0.00
    0   23    5      0.34      0.00
    1   23    5     -0.72      0.00
    2   23    5     -0.33      0.00
   -3   24    5     -1.84      0.00
   -2   24    5     -0.53      0.00
   -1   24    5      0.89      0.00
    0   24    5      0.49      0.00
    1   24    5     -1.22      0.00
  -12    0    6      0.71      0.00
  -10    0    6     -0.86      0.00
   -8    0    6     -3.03      0.00
   -6    0    6     -1.81      0.00
   -4    0    6     -1.96      0.00
   -2    0    6     -7.14      0.00
    0    0    6      7.41      0.00
    2    0    6     12.19      0.00
    4    0    6    -15.44      0.00
    6    0    6      2.37      0.00
    8    0    6     -2.07      0.00
   10    0    6     -1.38      0.00
  -12    1    6     -0.71      0.00
  -11    1    6     -0.72      0.00
  -10    1    6      0.39      0.00
   -9    1    6      0.17      0.00
   -8    1    6     -3.07      0.00
   -7    1    6     -2.59      0.00
   -6    1    6      0.74      0.00
   -5    1    6     -6.98      0.00
   -4    1    6     18.45      0.00
   -3    1    6     -5.54      0.00
   -2    1    6     16.36      0.00
   -1    1    6     -2.99      0.00
    0    1    6    -15.71      0.00
    1    1    6      2.13      0.00
    2    1    6      2.76      0.00
    3    1    6     -9.40      0.00
    4    1    6      2.19      0.00
    5    1    6      2.49      0.00
    6    1    6      0.81      0.00
    7    1    6      2.51      0.00
    8    1    6      3.86      0.00
    9    1    6     -0.56      0.00
   10    1    6     -0.65      0.00
  -12    2    6     -0.27      0.00
  -11    2    6     -0.96      0.00
  -10    2    6     -0.45      0.00
   -9    2    6     -1.56      0.00
   -8    2    6     -0.99      0.00
   -7    2    6     -0.16      0.00
   -6    2    6      1.37      0.00
   -5    2    6      2.03      0.00
   -4    2    6     -2.20      0.00
   -3    2    6      0.31      0.00
   -2    2    6    -17.41      0.00
   -1    2    6     10.99      0.00
    0    2    6     -1.05      0.00
    1    2    6     11.50      0.00
    2    2    6     -4.83      0.00
    3    2    6      8.76      0.00
    4    2    6      0.23      0.00
    5    2    6      1.56      0.00
    6    2    6      5.15      0.00
    7    2    6      3.71      0.00
    8    2    6      2.17      0.00
    9    2    6      0.93      0.00
   10    2    6     -0.34      0.00
  -12    3    6     -0.19      0.00
  -11    3    6      0.13      0.00
  -10    3    6     -0.69      0.00
   -9    3    6     -1.51      0.00
   -8    3    6     -0.85      0.00
   -7    3    6      3.49      0.00
   -6    3    6     -4.77      0.00
   -5    3    6     16.48      0.00
   -4    3    6     -1.00      0.00
   -3    3    6     -5.13      0.00
   -2    3    6      0.72      0.00
   -1    3    6     -3.01      0.00
    0    3    6      5.41      0.00
    1    3    6     15.02      0.00
    2    3    6     17.62      0.00
    3    3    6      1.19      0.00
    4    3    6      5.65      0.00
    5    3    6     -7.20      0.00
    6    3    6      0.08      0.00
    7    3    6      1.47      0.00
    8    3    6      0.57      0.00
    9    3    6     -1.09      0.00
  -12    4    6      1.75      0.00
  -11    4    6     -0.18      0.00
  -10    4    6      1.43      0.00
   -9    4    6      0.33      0.00
   -8    4    6      5.41      0.00
   -7    4    6      0.35      0.00
   -6    4    6      4.50      0.00
   -5    4    6     -0.02      0.00
   -4    4    6      8.75      0.00
   -3    4    6      7.41      0.00
   -2    4    6     19.69      0.00
   -1    4    6    -12.08      0.00
    0    4    6     16.28      0.00
    1    4    6     -0.14      0.00
    2    4    6     -2.86      0.00
    3    4    6      0.11      0.00
    4    4    6     -3.91      0.00
    5    4    6     -3.74      0.00
    6    4    6     -2.00      0.00
    7    4    6     -0.68      0.00
    8    4    6     -0.75      0.00
    9    4    6      0.55      0.00
  -12    5    6      0.82      0.00
  -11    5    6      2.36      0.00
  -10    5    6      0.27      0.00
   -9    5    6      3.83      0.00
   -8    5    6      3.37      0.00
   -7    5    6      3.53      0.00
   -6    5    6      4.83      0.00
   -5    5    6      1.61      0.00
   -4    5    6     -0.16      0.00
   -3    5    6      7.26      0.00
   -2    5    6    -11.62      0.00
   -1    5    6      5.75      0.00
    0    5    6     -3.58      0.00
    1    5    6      4.88      0.00
    2    5    6     -6.32      0.00
    3    5    6     -3.54      0.00
    4    5    6     -9.69      0.00
    5    5    6      3.52      0.00
    6    5    6     -2.94      0.00
    7    5    6      2.91      0.00
    8    5    6      1.66      0.00
    9    5    6      0.11      0.00
  -12    6    6     -0.96      0.00
  -11    6    6      1.84      0.00
  -10    6    6      0.62      0.00
   -9    6    6      1.25      0.00
   -8    6    6      0.26      0.00
   -7    6    6     -3.80      0.00
   -6    6    6      2.59      0.00
   -5    6    6      0.57      0.00
   -4    6    6     -2.86      0.00
   -3    6    6      5.39      0.00
   -2    6    6    -10.23      0.00
   -1    6    6    -13.55      0.00
    0    6    6     -3.56      0.00
    1    6    6     -5.01      0.00
    2    6    6     10.07      0.00
    3    6    6      6.63      0.00
    4    6    6     -2.10      0.00
    5    6    6     -6.04      0.00
    6    6    6      3.72      0.00
    7    6    6     -1.90      0.00
    8    6    6      0.45      0.00
    9    6    6     -0.77      0.00
  -11    7    6     -1.17      0.00
  -10    7    6      0.83      0.00
   -9    7    6     -2.29      0.00
   -8    7    6     -3.11      0.00
   -7    7    6     -1.31      0.00
   -6    7    6     -5.11      0.00
   -5    7    6     -8.84      0.00
   -4    7    6      4.00      0.00
   -3    7    6     -4.39      0.00
   -2    7    6      4.64      0.00
   -1    7    6      2.60      0.00
    0    7    6    -10.02      0.00
    1    7    6     -8.03      0.00
    2    7    6      7.69      0.00
    3    7    6     -2.28      0.00
    4    7    6     -2.53      0.00
    5    7    6      0.46      0.00
    6    7    6     -3.94      0.00
    7    7    6     -0.93      0.00
    8    7    6     -2.88      0.00
    9    7    6      0.27      0.00
  -11    8    6     -1.15      0.00
  -10    8    6     -3.20      0.00
   -9    8    6      0.08      0.00
   -8    8    6     -2.76      0.00
   -7    8    6     -0.44      0.00
   -6    8    6     -3.30      0.00
   -5    8    6     -0.53      0.00
   -4    8    6     -4.41      0.00
   -3    8    6     -7.32      0.00
   -2    8    6     -7.64      0.00
   -1    8    6     -0.17      0.00
    0    8    6     -4.92      0.00
    1    8    6      2.96      0.00
    2    8    6     -6.30      0.00
    3    8    6     -3.01      0.00
    4    8    6     -0.01      0.00
    5    8    6     -6.33      0.00
    6    8    6     -2.02      0.00
    7    8    6      1.81      0.00
    8    8    6      1.61      0.00
    9    8    6      0.18      0.00
  -11    9    6     -0.81      0.00
  -10    9    6      0.18      0.00
   -9    9    6     -0.20      0.00
   -8    9    6     -1.49      0.00
   -7    9    6     -0.62      0.00
   -6    9    6     -2.61      0.00
   -5    9    6     -0.96      0.00
   -4    9    6      2.22      0.00
   -3    9    6     -6.86      0.00
   -2    9    6     -6.39      0.00
   -1    9    6     -6.94      0.00
    0    9    6     -6.38      0.00
    1    9    6     -1.70      0.00
    2    9    6      8.90      0.00
    3    9    6      6.16      0.00
    4    9    6      3.98      0.00
    5    9    6     -0.74      0.00
    6    9    6     -0.18      0.00
    7    9    6      0.53      0.00
    8    9    6      3.72      0.00
    9    9    6      1.80      0.00
  -11   10    6      1.37      0.00
  -10   10    6      1.98      0.00
   -9   10    6     -1.12      0.00
   -8   10    6      1.35      0.00
   -7   10    6     -0.71      0.00
   -6   10    6     -3.67      0.00
   -5   10    6     -0.89      0.00
   -4   10    6     -3.30      0.00
   -3   10    6      4.57      0.00
   -2   10    6     14.84      0.00
   -1   10    6     -0.41      0.00
    0   10    6      2.21      0.00
    1   10    6      8.81      0.00
    2   10    6     -0.54      0.00
    3   10    6      8.03      0.00
    4   10    6      6.35      0.00
    5   10    6      2.92      0.00
    6   10    6      0.93      0.00
    7   10    6      0.31      0.00
    8   10    6      1.04      0.00
    9   10    6      3.80      0.00
  -11   11    6     -0.45      0.00
  -10   11    6      1.23      0.00
   -9   11    6      0.91      0.00
   -8   11    6      1.16      0.00
   -7   11    6      0.54      0.00
   -6   11    6      1.43      0.00
   -5   11    6      1.80      0.00
   -4   11    6      3.52      0.00
   -3   11    6      9.94      0.00
   -2   11    6      1.77      0.00
   -1   11    6      7.05      0.00
    0   11    6      8.36      0.00
    1   11    6      1.75      0.00
    2   11    6      0.04      0.00
    3   11    6     -0.17      0.00
    4   11    6     -1.13      0.00
    5   11    6     -0.88      0.00
    6   11    6     -1.65      0.00
    7   11    6      0.22      0.00
    8   11    6      0.61      0.00
  -10   12    6      0.81      0.00
   -9   12    6      0.98      0.00
   -8   12    6      2.44      0.00
   -7   12    6     -0.40      0.00
   -6   12    6      4.01      0.00
   -5   12    6      6.05      0.00
   -4   12    6      2.92      0.00
   -3   12    6      5.39      0.00
   -2   12    6      0.12      0.00
   -1   12    6     -7.81      0.00
    0   12    6     -5.79      0.00
    1   12    6     -7.23      0.00
    2   12    6     -0.77      0.00
    3   12    6      0.80      0.00
    4   12    6     -0.56      0.00
    5   12    6     -2.29      0.00
    6   12    6     -3.37      0.00
    7   12    6     -1.56      0.00
    8   12    6     -2.23      0.00
  -10   13    6     -0.67      0.00
   -9   13    6      1.59      0.00
   -8   13    6      0.32      0.00
   -7   13    6      2.33      0.00
   -6   13    6      2.41      0.00
   -5   13    6     -3.08      0.00
   -4   13    6     -2.31      0.00
   -3   13    6     -1.43      0.00
   -2   13    6     -3.06      0.00
   -1   13    6     -1.54      0.00
    0   13    6     -2.90      0.00
    1   13    6     -9.02      0.00
    2   13    6     -0.88      0.00
    3   13    6      3.34      0.00
    4   13    6     -0.56      0.00
    5   13    6      1.90      0.00
    6   13    6     -1.12      0.00
    7   13    6     -4.81      0.00
    8   13    6     -0.32      0.00
  -10   14    6     -1.51      0.00
   -9   14    6     -0.57      0.00
   -8   14    6      1.25      0.00
   -7   14    6     -0.42      0.00
   -6   14    6     -1.86      0.00
   -5   14    6     -2.62      0.00
   -4   14    6     -0.20      0.00
   -3   14    6     -9.13      0.00
   -2   14    6     -1.32      0.00
   -1   14    6      3.84      0.00
    0   14    6      0.96      0.00
    1   14    6      4.81      0.00
    2   14    6      0.37      0.00
    3   14    6     -2.30      0.00
    4   14    6      2.37      0.00
    5   14    6      0.01      0.00
    6   14    6     -3.42      0.00
    7   14    6     -1.57      0.00
   -9   15    6      1.30      0.00
   -8   15    6     -0.94      0.00
   -7   15    6     -1.64      0.00
   -6   15    6     -0.93      0.00
   -5   15    6     -2.79      0.00
   -4   15    6      1.06      0.00
   -3   15    6      4.31      0.00
   -2   15    6     -1.48      0.00
   -1   15    6      2.90      0.00
    0   15    6     -2.94      0.00
    1   15    6     -0.79      0.00
    2   15    6     -0.70      0.00
    3   15    6      0.04      0.00
    4   15    6      1.70      0.00
    5   15    6     -2.59      0.00
    6   15    6     -0.44      0.00
    7   15    6      0.07      0.00
   -9   16    6      1.01      0.00
   -8   16    6     -0.76      0.00
   -7   16    6      2.09      0.00
   -6   16    6     -3.92      0.00
   -5   16    6      1.59      0.00
   -4   16    6     -1.62      0.00
   -3   16    6      1.57      0.00
   -2   16    6      5.50      0.00
   -1   16    6      0.13      0.00
    0   16    6     -4.10      0.00
    1   16    6     -3.27      0.00
    2   16    6     -1.04      0.00
    3   16    6     -2.21      0.00
    4   16    6      1.37      0.00
    5   16    6      2.94      0.00
    6   16    6      2.87      0.00
    7   16    6      0.05      0.00
   -8   17    6      0.20      0.00
   -7   17    6      0.12      0.00
   -6   17    6      0.51      0.00
   -5   17    6     -0.38      0.00
   -4   17    6     -0.87      0.00
   -3   17    6     -1.26      0.00
   -2   17    6     -1.01      0.00
   -1   17    6     -6.30      0.00
    0   17    6      3.75      0.00
    1   17    6      0.76      0.00
    2   17    6     -1.26      0.00
    3   17    6      1.51      0.00
    4   17    6      1.03      0.00
    5   17    6      3.10      0.00
    6   17    6      2.42      0.00
   -8   18    6      0.53      0.00
   -7   18    6     -1.77      0.00
   -6   18    6      1.02      0.00
   -5   18    6     -1.36      0.00
   -4   18    6      0.69      0.00
   -3   18    6     -2.28      0.00
   -2   18    6     -0.77      0.00
   -1   18    6      0.06      0.00
    0   18    6     -2.26      0.00
    1   18    6      0.16      0.00
    2   18    6     -0.37      0.00
    3   18    6      3.81      0.00
    4   18    6     -0.50      0.00
    5   18    6      0.90      0.00
    6   18    6     -0.66      0.00
   -7   19    6     -0.30      0.00
   -6   19    6      0.44      0.00
   -5   19    6      0.22      0.00
   -4   19    6     -4.54      0.00
   -3   19    6      2.42      0.00
   -2   19    6      1.80      0.00
   -1   19    6      2.73      0.00
    0   19    6      1.24      0.00
    1   19    6     -0.85      0.00
    2   19    6     -1.50      0.00
    3   19    6     -2.26      0.00
    4   19    6      0.61      0.00
    5   19    6     -0.97      0.00
   -7   20    6      1.98      0.00
   -6   20    6     -0.87      0.00
   -5   20    6     -1.24      0.00
   -4   20    6      2.40      0.00
   -3   20    6      0.47      0.00
   -2   20    6     -0.75      0.00
   -1   20    6      1.52      0.00
    0   20    6      1.11      0.00
    1   20    6     -0.61      0.00
    2   20    6      1.26      0.00
    3   20    6     -3.30      0.00
    4   20    6     -1.49      0.00
   -6   21    6     -0.56      0.00
   -5   21    6      0.11      0.00
   -4   21    6      1.51      0.00
   -3   21    6      0.43      0.00
   -2   21    6     -0.41      0.00
   -1   21    6      0.28      0.00
    0   21    6     -0.43      0.00
    1   21    6     -2.55      0.00
    2   21    6     -1.16      0.00
    3   21    6      0.66      0.00
   -5   22    6     -0.28      0.00
   -4   22    6     -0.76      0.00
   -3   22    6     -1.83      0.00
   -2   22    6     -0.54      0.00
   -1   22    6      1.06      0.00
    0   22    6     -0.17      0.00
    1   22    6      0.05      0.00
    2   22    6     -1.97      0.00
   -3   23    6     -1.19      0.00
   -2   23    6     -0.20      0.00
   -1   23    6     -2.92      0.00
    0   23    6     -0.85      0.00
    1   23    6      3.06      0.00
  -11    0    7     -1.11      0.00
   -9    0    7     -4.18      0.00
   -7    0    7     -2.40      0.00
   -5    0    7      5.02      0.00
   -3    0    7     -4.56      0.00
   -1    0    7     -3.63      0.00
    1    0    7     10.75      0.00
    3    0    7      4.11      0.00
    5    0    7     -8.09      0.00
    7    0    7      3.10      0.00
    9    0    7     -0.40      0.00
  -12    1    7      0.21      0.00
  -11    1    7      0.19      0.00
  -10    1    7     -0.12      0.00
   -9    1    7     -1.99      0.00
   -8    1    7     -2.98      0.00
   -7    1    7      1.23      0.00
   -6    1    7     -4.80      0.00
   -5    1    7      8.85      0.00
   -4    1    7      2.92      0.00
   -3    1    7      2.73      0.00
   -2    1    7     -1.34      0.00
   -1    1    7     -6.49      0.00
    0    1    7     -6.36      0.00
    1    1    7     -0.02      0.00
    2    1    7      4.73      0.00
    3    1    7      2.55      0.00
    4    1    7      0.42      0.00
    5    1    7     -1.97      0.00
    6    1    7     -0.25      0.00
    7    1    7      1.58      0.00
    8    1    7      2.92      0.00
    9    1    7      1.12      0.00
  -12    2    7     -0.29      0.00
  -11    2    7      0.89      0.00
  -10    2    7     -1.84      0.00
   -9    2    7      0.41      0.00
   -8    2    7      1.92      0.00
   -7    2    7     -0.49      0.00
   -6    2    7      0.96      0.00
   -5    2    7     -2.92      0.00
   -4    2    7     -3.64      0.00
   -3    2    7      0.32      0.00
   -2    2    7      4.40      0.00
   -1    2    7     -8.72      0.00
    0    2    7     11.97      0.00
    1    2    7      2.81      0.00
    2    2    7      0.97      0.00
    3    2    7      1.68      0.00
    4    2    7      7.37      0.00
    5    2    7      0.74      0.00
    6    2    7      0.53      0.00
    7    2    7      1.15      0.00
    8    2    7      1.94      0.00
    9    2    7      0.50      0.00
  -12    3    7      0.56      0.00
  -11    3    7      1.02      0.00
  -10    3    7     -1.00      0.00
   -9    3    7     -0.12      0.00
   -8    3    7      3.23      0.00
   -7    3    7     -2.19      0.00
   -6    3    7      6.54      0.00
   -5    3    7     -0.54      0.00
   -4    3    7     -0.15      0.00
   -3    3    7      9.80      0.00
   -2    3    7     -4.35      0.00
   -1    3    7      7.22      0.00
    0    3    7      8.04      0.00
    1    3    7      5.72      0.00
    2    3    7      9.60      0.00
    3    3    7     12.74      0.00
    4    3    7     -9.37      0.00
    5    3    7      2.92      0.00
    6    3    7     -2.22      0.00
    7    3    7     -0.01      0.00
    8    3    7     -2.29      0.00
    9    3    7      0.03      0.00
  -11    4    7      0.56      0.00
  -10    4    7      1.44      0.00
   -9    4    7      1.52      0.00
   -8    4    7      0.36      0.00
   -7    4    7      1.75      0.00
   -6    4    7     -0.21      0.00
   -5    4    7      4.44      0.00
   -4    4    7      9.08      0.00
   -3    4    7     12.92      0.00
   -2    4    7     10.87      0.00
   -1    4    7      3.19      0.00
    0    4    7    -10.68      0.00
    1    4    7     -1.61      0.00
    2    4    7      3.83      0.00
    3    4    7     -2.90      0.00
    4    4    7      0.13      0.00
    5    4    7     -5.70      0.00
    6    4    7     -1.51      0.00
    7    4    7     -2.02      0.00
    8    4    7     -0.41      0.00
    9    4    7     -0.83      0.00
  -11    5    7     -1.31      0.00
  -10    5    7      1.51      0.00
   -9    5    7      2.14      0.00
   -8    5    7     -0.63      0.00
   -7    5    7      3.00      0.00
   -6    5    7      3.22      0.00
   -5    5    7     -5.23      0.00
   -4    5    7      7.46      0.00
   -3    5    7     -3.81      0.00
   -2    5    7     -2.83      0.00
   -1    5    7     -1.34      0.00
    0    5    7     -5.52      0.00
    1    5    7    -14.27      0.00
    2    5    7     -3.13      0.00
    3    5    7     -5.56      0.00
    4    5    7     -0.34      0.00
    5    5    7     -1.80      0.00
    6    5    7      0.15      0.00
    7    5    7     -0.81      0.00
    8    5    7      1.16      0.00
    9    5    7     -0.41      0.00
  -11    6    7      1.24      0.00
  -10    6    7     -1.54      0.00
   -9    6    7      0.36      0.00
   -8    6    7     -2.42      0.00
   -7    6    7      0.57      0.00
   -6    6    7     -4.26      0.00
   -5    6    7      3.24      0.00
   -4    6    7     -7.67      0.00
   -3    6    7    -11.92      0.00
   -2    6    7    -11.44      0.00
   -1    6    7     -4.17      0.00
    0    6    7    -13.04      0.00
    1    6    7      2.82      0.00
    2    6    7      1.51      0.00
    3    6    7      3.11      0.00
    4    6    7      2.32      0.00
    5    6    7     -1.49      0.00
    6    6    7     -4.26      0.00
    7    6    7      1.05      0.00
    8    6    7     -2.26      0.00
  -11    7    7     -0.60      0.00
  -10    7    7     -0.43      0.00
   -9    7    7     -2.93      0.00
   -8    7    7     -1.38      0.00
   -7    7    7     -3.76      0.00
   -6    7    7     -6.65      0.00
   -5    7    7     -5.43      0.00
   -4    7    7     -5.10      0.00
   -3    7    7     -1.87      0.00
   -2    7    7      5.85      0.00
   -1    7    7     -6.05      0.00
    0    7    7      1.07      0.00
    1    7    7     -1.60      0.00
    2    7    7     -0.07      0.00
    3    7    7      5.25      0.00
    4    7    7      2.67      0.00
    5    7    7     -1.87      0.00
    6    7    7     -0.67      0.00
    7    7    7     -4.62      0.00
    8    7    7     -0.23      0.00
  -11    8    7     -1.16      0.00
  -10    8    7      1.30      0.00
   -9    8    7     -3.38      0.00
   -8    8    7      0.03      0.00
   -7    8    7     -1.46      0.00
   -6    8    7     -2.44      0.00
   -5    8    7     -5.54      0.00
   -4    8    7     -0.89      0.00
   -3    8    7     -0.86      0.00
   -2    8    7      7.59      0.00
   -1    8    7      2.76      0.00
    0    8    7      2.17      0.00
    1    8    7      3.08      0.00
    2    8    7     -6.14      0.00
    3    8    7     -2.62      0.00
    4    8    7      2.16      0.00
    5    8    7      2.75      0.00
    6    8    7     -0.88      0.00
    7    8    7      2.62      0.00
    8    8    7      2.26      0.00
  -11    9    7      0.54      0.00
  -10    9    7     -0.23      0.00
   -9    9    7      1.47      0.00
   -8    9    7     -0.24      0.00
   -7    9    7     -1.78      0.00
   -6    9    7      2.42      0.00
   -5    9    7      3.68      0.00
   -4    9    7     -3.23      0.00
   -3    9    7      9.38      0.00
   -2    9    7     -6.44      0.00
   -1    9    7     -2.31      0.00
    0    9    7      1.04      0.00
    1    9    7     -0.93      0.00
    2    9    7      1.23      0.00
    3    9    7      8.02      0.00
    4    9    7      2.03      0.00
    5    9    7      0.37      0.00
    6    9    7      2.49      0.00
    7    9    7      1.90      0.00
    8    9    7      3.26      0.00
  -10   10    7      0.31      0.00
   -9   10    7      0.41      0.00
   -8   10    7      0.78      0.00
   -7   10    7      0.60      0.00
   -6   10    7      0.01      0.00
   -5   10    7      1.80      0.00
   -4   10    7      2.53      0.00
   -3   10    7      3.77      0.00
   -2   10    7      5.77      0.00
   -1   10    7      1.61      0.00
    0   10    7     -0.69      0.00
    1   10    7     -6.31      0.00
    2   10    7      7.02      0.00
    3   10    7      2.41      0.00
    4   10    7      2.87      0.00
    5   10    7      3.31      0.00
    6   10    7     -0.23      0.00
    7   10    7     -2.23      0.00
    8   10    7     -1.70      0.00
  -10   11    7     -2.14      0.00
   -9   11    7      0.97      0.00
   -8   11    7      1.22      0.00
   -7   11    7      1.13      0.00
   -6   11    7      4.05      0.00
   -5   11    7     -1.08      0.00
   -4   11    7      2.25      0.00
   -3   11    7     -1.28      0.00
   -2   11    7      3.57      0.00
   -1   11    7      3.91      0.00
    0   11    7      5.04      0.00
    1   11    7     -0.77      0.00
    2   11    7     -6.80      0.00
    3   11    7     -2.23      0.00
    4   11    7     -1.83      0.00
    5   11    7      0.63      0.00
    6   11    7     -2.34      0.00
    7   11    7     -1.78      0.00
  -10   12    7     -0.06      0.00
   -9   12    7      0.59      0.00
   -8   12    7      0.94      0.00
   -7   12    7      2.20      0.00
   -6   12    7      1.28      0.00
   -5   12    7      0.11      0.00
   -4   12    7      4.49      0.00
   -3   12    7     -4.26      0.00
   -2   12    7     -7.80      0.00
   -1   12    7      3.46      0.00
    0   12    7     -6.11      0.00
    1   12    7     -1.55      0.00
    2   12    7     -1.10      0.00
    3   12    7     -3.68      0.00
    4   12    7      0.13      0.00
    5   12    7     -1.58      0.00
    6   12    7     -1.91      0.00
    7   12    7     -1.72      0.00
  -10   13    7      1.25      0.00
   -9   13    7      0.70      0.00
   -8   13    7     -0.13      0.00
   -7   13    7      0.96      0.00
   -6   13    7     -2.01      0.00
   -5   13    7     -1.35      0.00
   -4   13    7     -5.28      0.00
   -3   13    7      0.43      0.00
   -2   13    7      2.53      0.00
   -1   13    7     -2.96      0.00
    0   13    7     -3.44      0.00
    1   13    7     -0.81      0.00
    2   13    7     -1.02      0.00
    3   13    7     -1.20      0.00
    4   13    7      3.51      0.00
    5   13    7     -0.85      0.00
    6   13    7      0.92      0.00
    7   13    7     -0.94      0.00
   -9   14    7      0.00      0.00
   -8   14    7     -1.10      0.00
   -7   14    7      1.28      0.00
   -6   14    7     -3.45      0.00
   -5   14    7     -2.27      0.00
   -4   14    7     -3.07      0.00
   -3   14    7     -1.07      0.00
   -2   14    7      2.27      0.00
   -1   14    7      3.22      0.00
    0   14    7      3.50      0.00
    1   14    7      0.12      0.00
    2   14    7     -0.59      0.00
    3   14    7     -1.98      0.00
    4   14    7     -2.55      0.00
    5   14    7      2.15      0.00
    6   14    7      1.13      0.00
    7   14    7     -0.25      0.00
   -9   15    7     -2.14      0.00
   -8   15    7      0.90      0.00
   -7   15    7     -2.61      0.00
   -6   15    7      0.38      0.00
   -5   15    7      1.90      0.00
   -4   15    7      0.45      0.00
   -3   15    7     -0.85      0.00
   -2   15    7      1.86      0.00
   -1   15    7     -4.89      0.00
    0   15    7     -0.43      0.00
    1   15    7      0.52      0.00
    2   15    7     -2.97      0.00
    3   15    7     -0.13      0.00
    4   15    7     -0.53      0.00
    5   15    7      0.61      0.00
    6   15    7      0.34      0.00
   -8   16    7     -0.78      0.00
   -7   16    7     -1.23      0.00
   -6   16    7      2.50      0.00
   -5   16    7     -0.81      0.00
   -4   16    7     -0.37      0.00
   -3   16    7      1.71      0.00
   -2   16    7     -2.15      0.00
   -1   16    7     -1.31      0.00
    0   16    7     -2.35      0.00
    1   16    7     -3.01      0.00
    2   16    7     -2.00      0.00
    3   16    7      3.57      0.00
    4   16    7      0.85      0.00
    5   16    7      1.60      0.00
    6   16    7      2.41      0.00
   -8   17    7     -1.25      0.00
   -7   17    7      0.78      0.00
   -6   17    7     -0.21      0.00
   -5   17    7      0.03      0.00
   -4   17    7     -2.12      0.00
   -3   17    7     -2.47      0.00
   -2   17    7     -0.23      0.00
   -1   17    7      1.86      0.00
    0   17    7      2.78      0.00
    1   17    7      2.71      0.00
    2   17    7      1.67      0.00
    3   17    7     -1.77      0.00
    4   17    7      1.27      0.00
    5   17    7      2.27      0.00
   -7   18    7      0.61      0.00
   -6   18    7     -0.76      0.00
   -5   18    7     -1.76      0.00
   -4   18    7      1.47      0.00
   -3   18    7      1.54      0.00
   -2   18    7     -1.76      0.00
   -1   18    7      3.80      0.00
    0   18    7      3.18      0.00
    1   18    7     -1.16      0.00
    2   18    7      3.20      0.00
    3   18    7     -2.02      0.00
    4   18    7     -1.15      0.00
    5   18    7     -3.16      0.00
   -7   19    7     -0.16      0.00
   -6   19    7     -1.41      0.00
   -5   19    7      0.32      0.00
   -4   19    7      0.66      0.00
   -3   19    7      0.74      0.00
   -2   19    7      3.33      0.00
   -1   19    7      2.53      0.00
    0   19    7     -1.86      0.00
    1   19    7     -0.73      0.00
    2   19    7     -2.52      0.00
    3   19    7     -0.72      0.00
    4   19    7     -2.41      0.00
   -6   20    7      0.39      0.00
   -5   20    7     -0.03      0.00
   -4   20    7     -0.39      0.00
   -3   20    7     -0.64      0.00
   -2   20    7     -1.33      0.00
   -1   20    7     -2.41      0.00
    0   20    7      0.69      0.00
    1   20    7      1.48      0.00
    2   20    7     -3.13      0.00
    3   20    7     -0.59      0.00
   -5   21    7     -0.33      0.00
   -4   21    7     -0.21      0.00
   -3   21    7     -3.38      0.00
   -2   21    7     -1.32      0.00
   -1   21    7     -2.59      0.00
    0   21    7     -1.65      0.00
    1   21    7     -0.06      0.00
    2   21    7      1.34      0.00
   -3   22    7     -0.29      0.00
   -2   22    7     -0.10      0.00
   -1   22    7      0.15      0.00
    0   22    7      0.01      0.00
  -10    0    8     -3.59      0.00
   -8    0    8      0.65      0.00
   -6    0    8     -1.26      0.00
   -4    0    8     -7.91      0.00
   -2    0    8      1.17      0.00
    0    0    8      9.19      0.00
    2    0    8      6.45      0.00
    4    0    8     -0.48      0.00
    6    0    8     -1.31      0.00
    8    0    8      0.60      0.00
  -11    1    8      0.12      0.00
  -10    1    8      0.56      0.00
   -9    1    8     -2.25      0.00
   -8    1    8      1.93      0.00
   -7    1    8     -4.36      0.00
   -6    1    8      5.65      0.00
   -5    1    8     -1.39      0.00
   -4    1    8      5.88      0.00
   -3    1    8      4.75      0.00
   -2    1    8      5.57      0.00
   -1    1    8     -3.38      0.00
    0    1    8      0.59      0.00
    1    1    8     -0.49      0.00
    2    1    8      4.34      0.00
    3    1    8      7.44      0.00
    4    1    8     -3.02      0.00
    5    1    8     -0.07      0.00
    6    1    8      0.03      0.00
    7    1    8      1.14      0.00
    8    1    8     -0.34      0.00
  -11    2    8     -1.15      0.00
  -10    2    8      0.97      0.00
   -9    2    8      2.21      0.00
   -8    2    8     -2.46      0.00
   -7    2    8      1.79      0.00
   -6    2    8     -1.28      0.00
   -5    2    8     -3.06      0.00
   -4    2    8      5.95      0.00
   -3    2    8      7.26      0.00
   -2    2    8      1.05      0.00
   -1    2    8     11.71      0.00
    0    2    8     -9.47      0.00
    1    2    8     -1.17      0.00
    2    2    8      3.15      0.00
    3    2    8      1.88      0.00
    4    2    8      4.92      0.00
    5    2    8      3.77      0.00
    6    2    8     -0.75      0.00
    7    2    8     -0.67      0.00
    8    2    8      0.74      0.00
  -11    3    8      0.58      0.00
  -10    3    8     -1.07      0.00
   -9    3    8      2.70      0.00
   -8    3    8     -1.56      0.00
   -7    3    8      3.88      0.00
   -6    3    8      1.20      0.00
   -5    3    8      2.02      0.00
   -4    3    8      1.28      0.00
   -3    3    8      0.21      0.00
   -2    3    8      1.79      0.00
   -1    3    8      3.75      0.00
    0    3    8      3.85      0.00
    1    3    8     -1.40      0.00
    2    3    8      2.91      0.00
    3    3    8      0.08      0.00
    4    3    8      5.00      0.00
    5    3    8     -4.30      0.00
    6    3    8      1.23      0.00
    7    3    8     -3.15      0.00
    8    3    8     -1.70      0.00
  -11    4    8      1.09      0.00
  -10    4    8      2.08      0.00
   -9    4    8     -0.80      0.00
   -8    4    8      0.98      0.00
   -7    4    8      0.51      0.00
   -6    4    8      0.18      0.00
   -5    4    8      5.38      0.00
   -4    4    8      4.73      0.00
   -3    4    8     -3.02      0.00
   -2    4    8      4.54      0.00
   -1    4    8     -1.54      0.00
    0    4    8     -6.84      0.00
    1    4    8     -3.28      0.00
    2    4    8     -2.43      0.00
    3    4    8     -1.08      0.00
    4    4    8     -4.50      0.00
    5    4    8      0.48      0.00
    6    4    8     -5.68      0.00
    7    4    8     -0.06      0.00
    8    4    8     -2.79      0.00
  -11    5    8      0.36      0.00
  -10    5    8      1.31      0.00
   -9    5    8     -1.27      0.00
   -8    5    8      1.67      0.00
   -7    5    8      0.75      0.00
   -6    5    8     -3.37      0.00
   -5    5    8     -1.97      0.00
   -4    5    8     -5.73      0.00
   -3    5    8     -2.61      0.00
   -2    5    8      1.69      0.00
   -1    5    8     -7.03      0.00
    0    5    8     -4.55      0.00
    1    5    8     -2.56      0.00
    2    5    8    -13.67      0.00
    3    5    8     -3.40      0.00
    4    5    8      3.56      0.00
    5    5    8     -1.20      0.00
    6    5    8      0.54      0.00
    7    5    8     -1.79      0.00
    8    5    8      2.23      0.00
  -11    6    8     -0.65      0.00
  -10    6    8      0.67      0.00
   -9    6    8     -2.03      0.00
   -8    6    8     -0.97      0.00
   -7    6    8     -2.93      0.00
   -6    6    8     -0.03      0.00
   -5    6    8     -7.48      0.00
   -4    6    8     -7.69      0.00
   -3    6    8     -4.77      0.00
   -2    6    8     -6.39      0.00
   -1    6    8     -2.31      0.00
    0    6    8      2.96      0.00
    1    6    8     -1.79      0.00
    2    6    8      1.17      0.00
    3    6    8      3.41      0.00
    4    6    8      0.68      0.00
    5    6    8      1.65      0.00
    6    6    8      0.46      0.00
    7    6    8     -0.71      0.00
    8    6    8      1.89      0.00
  -11    7    8      1.94      0.00
  -10    7    8     -1.65      0.00
   -9    7    8     -0.48      0.00
   -8    7    8     -2.67      0.00
   -7    7    8     -5.05      0.00
   -6    7    8     -4.53      0.00
   -5    7    8      0.76      0.00
   -4    7    8     -4.72      0.00
   -3    7    8      6.36      0.00
   -2    7    8      1.75      0.00
   -1    7    8      1.75      0.00
    0    7    8      1.05      0.00
    1    7    8      0.99      0.00
    2    7    8      3.05      0.00
    3    7    8      4.54      0.00
    4    7    8      0.82      0.00
    5    7    8      0.27      0.00
    6    7    8     -0.68      0.00
    7    7    8      1.02      0.00
  -10    8    8     -0.12      0.00
   -9    8    8      0.21      0.00
   -8    8    8     -0.70      0.00
   -7    8    8     -0.31      0.00
   -6    8    8     -0.02      0.00
   -5    8    8     -1.41      0.00
   -4    8    8      3.76      0.00
   -3    8    8      3.10      0.00
   -2    8    8      3.45      0.00
   -1    8    8      5.46      0.00
    0    8    8      4.60      0.00
    1    8    8     -6.83      0.00
    2    8    8     -0.75      0.00
    3    8    8     -3.02      0.00
    4    8    8     -0.47      0.00
    5    8    8      3.26      0.00
    6    8    8      2.17      0.00
    7    8    8      1.98      0.00
  -10    9    8     -0.35      0.00
   -9    9    8      1.42      0.00
   -8    9    8      0.92      0.00
   -7    9    8      1.52      0.00
   -6    9    8      5.55      0.00
   -5    9    8      0.93      0.00
   -4    9    8      3.16      0.00
   -3    9    8     -5.97      0.00
   -2    9    8     -1.94      0.00
   -1    9    8      0.31      0.00
    0    9    8     -1.95      0.00
    1    9    8      2.70      0.00
    2    9    8     -0.63      0.00
    3    9    8     -1.01      0.00
    4    9    8      2.69      0.00
    5    9    8      1.00      0.00
    6    9    8     -0.10      0.00
    7    9    8      1.77      0.00
  -10   10    8     -0.39      0.00
   -9   10    8      1.24      0.00
   -8   10    8      0.17      0.00
   -7   10    8      2.05      0.00
   -6   10    8     -0.21      0.00
   -5   10    8     -0.38      0.00
   -4   10    8      2.05      0.00
   -3   10    8      0.58      0.00
   -2   10    8     -3.24      0.00
   -1   10    8      2.62      0.00
    0   10    8     -1.10      0.00
    1   10    8      0.78      0.00
    2   10    8      1.46      0.00
    3   10    8      2.30      0.00
    4   10    8      0.91      0.00
    5   10    8     -0.18      0.00
    6   10    8      0.06      0.00
    7   10    8     -4.96      0.00
  -10   11    8      0.89      0.00
   -9   11    8     -0.76      0.00
   -8   11    8      0.83      0.00
   -7   11    8      1.82      0.00
   -6   11    8     -3.20      0.00
   -5   11    8      1.06      0.00
   -4   11    8     -2.01      0.00
   -3   11    8     -0.24      0.00
   -2   11    8      6.87      0.00
   -1   11    8      3.85      0.00
    0   11    8      1.77      0.00
    1   11    8      1.47      0.00
    2   11    8     -2.98      0.00
    3   11    8     -7.80      0.00
    4   11    8      0.33      0.00
    5   11    8     -0.38      0.00
    6   11    8     -0.31      0.00
    7   11    8     -1.42      0.00
   -9   12    8      0.31      0.00
   -8   12    8      0.22      0.00
   -7   12    8     -0.09      0.00
   -6   12    8      1.88      0.00
   -5   12    8      0.83      0.00
   -4   12    8     -2.86      0.00
   -3   12    8      0.67      0.00
   -2   12    8     -1.32      0.00
   -1   12    8     -3.48      0.00
    0   12    8      1.36      0.00
    1   12    8     -0.80      0.00
    2   12    8     -4.37      0.00
    3   12    8      0.07      0.00
    4   12    8     -4.52      0.00
    5   12    8     -0.79      0.00
    6   12    8     -0.77      0.00
   -9   13    8     -0.76      0.00
   -8   13    8      0.24      0.00
   -7   13    8     -0.55      0.00
   -6   13    8     -0.45      0.00
   -5   13    8      0.22      0.00
   -4   13    8     -0.06      0.00
   -3   13    8     -2.66      0.00
   -2   13    8     -0.94      0.00
   -1   13    8     -3.61      0.00
    0   13    8     -4.94      0.00
    1   13    8     -1.18      0.00
    2   13    8      1.10      0.00
    3   13    8      0.92      0.00
    4   13    8     -0.64      0.00
    5   13    8      0.01      0.00
    6   13    8      0.74      0.00
   -9   14    8     -0.65      0.00
   -8   14    8     -0.88      0.00
   -7   14    8     -1.62      0.00
   -6   14    8      1.56      0.00
   -5   14    8     -1.05      0.00
   -4   14    8     -2.44      0.00
   -3   14    8      0.23      0.00
   -2   14    8      0.89      0.00
   -1   14    8     -0.49      0.00
    0   14    8      5.10      0.00
    1   14    8      0.50      0.00
    2   14    8     -2.01      0.00
    3   14    8      0.78      0.00
    4   14    8      0.59      0.00
    5   14    8      0.23      0.00
    6   14    8      1.42      0.00
   -8   15    8     -1.24      0.00
   -7   15    8     -0.56      0.00
   -6   15    8      0.31      0.00
   -5   15    8      0.58      0.00
   -4   15    8      2.30      0.00
   -3   15    8     -0.51      0.00
   -2   15    8     -3.68      0.00
   -1   15    8      4.60      0.00
    0   15    8      1.47      0.00
    1   15    8      0.33      0.00
    2   15    8      3.15      0.00
    3   15    8     -1.46      0.00
    4   15    8     -0.09      0.00
    5   15    8      1.84      0.00
   -8   16    8     -0.27      0.00
   -7   16    8     -0.15      0.00
   -6   16    8     -1.19      0.00
   -5   16    8     -0.39      0.00
   -4   16    8      1.19      0.00
   -3   16    8      2.19      0.00
   -2   16    8     -0.43      0.00
   -1   16    8     -0.37      0.00
    0   16    8     -1.39      0.00
    1   16    8      0.21      0.00
    2   16    8      1.75      0.00
    3   16    8      0.15      0.00
    4   16    8      1.40      0.00
    5   16    8     -1.65      0.00
   -7   17    8      1.25      0.00
   -6   17    8     -2.13      0.00
   -5   17    8     -1.10      0.00
   -4   17    8      0.00      0.00
   -3   17    8     -0.42      0.00
   -2   17    8      1.93      0.00
   -1   17    8      2.01      0.00
    0   17    8      0.85      0.00
    1   17    8      1.56      0.00
    2   17    8     -0.13      0.00
    3   17    8      0.18      0.00
    4   17    8     -2.29      0.00
   -6   18    8      0.85      0.00
   -5   18    8      0.41      0.00
   -4   18    8     -0.24      0.00
   -3   18    8     -1.79      0.00
   -2   18    8      1.63      0.00
   -1   18    8     -1.74      0.00
    0   18    8      2.11      0.00
    1   18    8      2.15      0.00
    2   18    8     -1.85      0.00
    3   18    8     -0.72      0.00
   -6   19    8      1.36      0.00
   -5   19    8      0.54      0.00
   -4   19    8     -0.47      0.00
   -3   19    8     -0.23      0.00
   -2   19    8     -1.85      0.00
   -1   19    8     -0.19      0.00
    0   19    8     -1.74      0.00
    1   19    8     -2.72      0.00
    2   19    8      0.74      0.00
   -4   20    8     -2.60      0.00
   -3   20    8     -1.06      0.00
   -2   20    8     -0.28      0.00
   -1   20    8     -1.49      0.00
    0   20    8     -1.31      0.00
    1   20    8      1.03      0.00
   -2   21    8     -1.62      0.00
   -1   21    8     -0.31      0.00
  -11    0    9     -0.47      0.00
   -9    0    9      2.26      0.00
   -7    0    9      0.27      0.00
   -5    0    9     -4.16      0.00
   -3    0    9      7.24      0.00
   -1    0    9     14.64      0.00
    1    0    9      1.91      0.00
    3    0    9      4.24      0.00
    5    0    9      2.21      0.00
    7    0    9      0.32      0.00
  -11    1    9      2.38      0.00
  -10    1    9     -0.29      0.00
   -9    1    9      1.10      0.00
   -8    1    9     -2.68      0.00
   -7    1    9      5.07      0.00
   -6    1    9     -0.36      0.00
   -5    1    9      8.03      0.00
   -4    1    9      3.16      0.00
   -3    1    9      0.23      0.00
   -2    1    9      4.08      0.00
   -1    1    9      0.86      0.00
    0    1    9     -1.56      0.00
    1    1    9      0.86      0.00
    2    1    9      3.47      0.00
    3    1    9     -2.47      0.00
    4    1    9      4.16      0.00
    5    1    9     -1.35      0.00
    6    1    9      0.88      0.00
    7    1    9     -0.81      0.00
  -11    2    9     -0.53      0.00
  -10    2    9      3.43      0.00
   -9    2    9     -1.72      0.00
   -8    2    9      1.82      0.00
   -7    2    9     -0.79      0.00
   -6    2    9      0.99      0.00
   -5    2    9      0.76      0.00
   -4    2    9      4.41      0.00
   -3    2    9     -4.43      0.00
   -2    2    9      4.74      0.00
   -1    2    9     -4.78      0.00
    0    2    9     -0.69      0.00
    1    2    9     -3.81      0.00
    2    2    9     -4.18      0.00
    3    2    9      1.69      0.00
    4    2    9      2.53      0.00
    5    2    9      2.63      0.00
    6    2    9     -1.08      0.00
    7    2    9     -1.11      0.00
  -11    3    9      0.38      0.00
  -10    3    9      1.09      0.00
   -9    3    9      0.45      0.00
   -8    3    9      3.64      0.00
   -7    3    9      1.51      0.00
   -6    3    9     -0.82      0.00
   -5    3    9     -1.50      0.00
   -4    3    9     -6.52      0.00
   -3    3    9     -1.22      0.00
   -2    3    9     -0.26      0.00
   -1    3    9      3.36      0.00
    0    3    9      1.53      0.00
    1    3    9      3.65      0.00
    2    3    9     -7.14      0.00
    3    3    9     -0.31      0.00
    4    3    9      0.93      0.00
    5    3    9      1.11      0.00
    6    3    9     -1.41      0.00
    7    3    9     -2.47      0.00
  -10    4    9     -0.51      0.00
   -9    4    9      1.14      0.00
   -8    4    9     -0.18      0.00
   -7    4    9     -0.99      0.00
   -6    4    9      0.10      0.00
   -5    4    9      1.04      0.00
   -4    4    9     -3.85      0.00
   -3    4    9      3.53      0.00
   -2    4    9     -1.00      0.00
   -1    4    9     -2.35      0.00
    0    4    9      4.00      0.00
    1    4    9     -3.41      0.00
    2    4    9     -1.28      0.00
    3    4    9     -1.61      0.00
    4    4    9     -3.16      0.00
    5    4    9     -3.18      0.00
    6    4    9      0.97      0.00
    7    4    9     -0.45      0.00
  -10    5    9      1.20      0.00
   -9    5    9     -0.87      0.00
   -8    5    9     -0.61      0.00
   -7    5    9     -3.25      0.00
   -6    5    9     -1.85      0.00
   -5    5    9     -3.26      0.00
   -4    5    9      0.14      0.00
   -3    5    9      0.70      0.00
   -2    5    9     -1.28      0.00
   -1    5    9     -1.63      0.00
    0    5    9     -3.59      0.00
    1    5    9     -6.40      0.00
    2    5    9     -1.67      0.00
    3    5    9     -2.95      0.00
    4    5    9     -1.40      0.00
    5    5    9      2.90      0.00
    6    5    9     -1.56      0.00
    7    5    9      4.64      0.00
  -10    6    9     -0.99      0.00
   -9    6    9      1.30      0.00
   -8    6    9     -2.18      0.00
   -7    6    9     -0.42      0.00
   -6    6    9     -0.56      0.00
   -5    6    9     -3.89      0.00
   -4    6    9     -3.72      0.00
   -3    6    9     -4.19      0.00
   -2    6    9     -5.53      0.00
   -1    6    9      1.47      0.00
    0    6    9      1.80      0.00
    1    6    9     -0.73      0.00
    2    6    9      1.15      0.00
    3    6    9      1.36      0.00
    4    6    9      1.58      0.00
    5    6    9     -0.05      0.00
    6    6    9      2.96      0.00
    7    6    9      0.24      0.00
  -10    7    9      0.08      0.00
   -9    7    9      1.02      0.00
   -8    7    9     -1.25      0.00
   -7    7    9     -2.20      0.00
   -6    7    9      1.46      0.00
   -5    7    9     -0.35      0.00
   -4    7    9      2.26      0.00
   -3    7    9     -5.37      0.00
   -2    7    9      0.03      0.00
   -1    7    9      3.57      0.00
    0    7    9     -0.31      0.00
    1    7    9      3.92      0.00
    2    7    9      5.44      0.00
    3    7    9     -0.21      0.00
    4    7    9      0.55      0.00
    5    7    9      0.45      0.00
    6    7    9      0.07      0.00
  -10    8    9     -0.31      0.00
   -9    8    9      0.94      0.00
   -8    8    9      0.99      0.00
   -7    8    9      2.43      0.00
   -6    8    9     -2.39      0.00
   -5    8    9      0.48      0.00
   -4    8    9      2.24      0.00
   -3    8    9      1.80      0.00
   -2    8    9      2.52      0.00
   -1    8    9      1.41      0.00
    0    8    9      1.87      0.00
    1    8    9      2.60      0.00
    2    8    9     -4.99      0.00
    3    8    9     -1.84      0.00
    4    8    9      1.62      0.00
    5    8    9      1.76      0.00
    6    8    9      1.55      0.00
  -10    9    9      1.92      0.00
   -9    9    9     -1.05      0.00
   -8    9    9      2.48      0.00
   -7    9    9      2.72      0.00
   -6    9    9     -0.28      0.00
   -5    9    9      0.87      0.00
   -4    9    9     -2.04      0.00
   -3    9    9     -0.47      0.00
   -2    9    9     -1.05      0.00
   -1    9    9      0.56      0.00
    0    9    9      1.07      0.00
    1    9    9      2.17      0.00
    2    9    9     -0.53      0.00
    3    9    9     -0.80      0.00
    4    9    9      0.49      0.00
    5    9    9      1.42      0.00
    6    9    9     -0.21      0.00
   -9   10    9      0.60      0.00
   -8   10    9      0.00      0.00
   -7   10    9     -1.68      0.00
   -6   10    9      0.78      0.00
   -5   10    9      2.28      0.00
   -4   10    9     -2.62      0.00
   -3   10    9      0.81      0.00
   -2   10    9      2.28      0.00
   -1   10    9     -4.30      0.00
    0   10    9      0.01      0.00
    1   10    9      2.14      0.00
    2   10    9      1.30      0.00
    3   10    9      2.41      0.00
    4   10    9     -0.70      0.00
    5   10    9     -2.45      0.00
    6   10    9     -2.09      0.00
   -9   11    9      1.02      0.00
   -8   11    9     -0.26      0.00
   -7   11    9      0.19      0.00
   -6   11    9      0.06      0.00
   -5   11    9      0.18      0.00
   -4   11    9      2.58      0.00
   -3   11    9      0.73      0.00
   -2   11    9      0.97      0.00
   -1   11    9      2.26      0.00
    0   11    9      1.17      0.00
    1   11    9     -4.64      0.00
    2   11    9     -0.40      0.00
    3   11    9     -1.85      0.00
    4   11    9     -4.48      0.00
    5   11    9      0.18      0.00
   -9   12    9      0.79      0.00
   -8   12    9      0.85      0.00
   -7   12    9      0.26      0.00
   -6   12    9      3.63      0.00
   -5   12    9      1.46      0.00
   -4   12    9     -1.16      0.00
   -3   12    9     -1.68      0.00
   -2   12    9     -1.86      0.00
   -1   12    9     -1.91      0.00
    0   12    9     -0.32      0.00
    1   12    9      0.59      0.00
    2   12    9     -2.18      0.00
    3   12    9     -2.66      0.00
    4   12    9      0.76      0.00
    5   12    9     -1.53      0.00
   -8   13    9      0.25      0.00
   -7   13    9     -0.35      0.00
   -6   13    9      0.81      0.00
   -5   13    9     -2.40      0.00
   -4   13    9      0.96      0.00
   -3   13    9      0.77      0.00
   -2   13    9     -6.91      0.00
   -1   13    9     -1.38      0.00
    0   13    9     -0.52      0.00
    1   13    9     -0.17      0.00
    2   13    9      2.38      0.00
    3   13    9      3.20      0.00
    4   13    9      0.40      0.00
    5   13    9      0.80      0.00
   -8   14    9     -0.72      0.00
   -7   14    9      0.29      0.00
   -6   14    9     -4.54      0.00
   -5   14    9     -0.97      0.00
   -4   14    9      1.47      0.00
   -3   14    9     -0.72      0.00
   -2   14    9      3.12      0.00
   -1   14    9      2.97      0.00
    0   14    9     -0.39      0.00
    1   14    9      2.82      0.00
    2   14    9      2.84      0.00
    3   14    9     -1.14      0.00
    4   14    9      1.78      0.00
   -7   15    9     -0.49      0.00
   -6   15    9     -1.22      0.00
   -5   15    9      0.75      0.00
   -4   15    9     -0.88      0.00
   -3   15    9      0.99      0.00
   -2   15    9      2.66      0.00
   -1   15    9      0.32      0.00
    0   15    9      2.60      0.00
    1   15    9      0.40      0.00
    2   15    9     -0.11      0.00
    3   15    9      1.63      0.00
    4   15    9     -1.99      0.00
   -7   16    9     -0.39      0.00
   -6   16    9      0.43      0.00
   -5   16    9      0.34      0.00
   -4   16    9      0.70      0.00
   -3   16    9     -0.97      0.00
   -2   16    9     -0.74      0.00
   -1   16    9     -2.54      0.00
    0   16    9     -2.71      0.00
    1   16    9     -0.39      0.00
    2   16    9     -0.07      0.00
    3   16    9     -0.48      0.00
   -6   17    9      1.74      0.00
   -5   17    9     -0.78      0.00
   -4   17    9     -0.99      0.00
   -3   17    9      0.54      0.00
   -2   17    9     -1.38      0.00
   -1   17    9     -0.50      0.00
    0   17    9      0.30      0.00
    1   17    9      0.03      0.00
    2   17    9     -1.67      0.00
   -5   18    9      1.08      0.00
   -4   18    9     -1.67      0.00
   -3   18    9     -1.55      0.00
   -2   18    9      0.93      0.00
   -1   18    9      1.72      0.00
    0   18    9      0.60      0.00
    1   18    9      0.35      0.00
   -4   19    9     -0.42      0.00
   -3   19    9      0.24      0.00
   -2   19    9     -0.29      0.00
   -1   19    9     -0.97      0.00
    0   19    9     -0.34      0.00
  -10    0   10      3.73      0.00
   -8    0   10      3.08      0.00
   -6    0   10     -0.23      0.00
   -4    0   10      1.44      0.00
   -2    0   10      6.73      0.00
    0    0   10      6.20      0.00
    2    0   10     -2.74      0.00
    4    0   10      3.79      0.00
    6    0   10      0.26      0.00
  -10    1   10      0.16      0.00
   -9    1   10     -0.32      0.00
   -8    1   10      3.52      0.00
   -7    1   10      1.27      0.00
   -6    1   10      2.21      0.00
   -5    1   10      2.51      0.00
   -4    1   10     -3.11      0.00
   -3    1   10     -0.70      0.00
   -2    1   10     -1.37      0.00
   -1    1   10      1.19      0.00
    0    1   10      1.74      0.00
    1    1   10      2.30      0.00
    2    1   10     -3.91      0.00
    3    1   10      1.08      0.00
    4    1   10     -2.92      0.00
    5    1   10      2.09      0.00
    6    1   10     -2.16      0.00
  -10    2   10     -1.26      0.00
   -9    2   10      1.66      0.00
   -8    2   10     -1.16      0.00
   -7    2   10      0.67      0.00
   -6    2   10     -0.93      0.00
   -5    2   10      0.39      0.00
   -4    2   10     -2.10      0.00
   -3    2   10      1.56      0.00
   -2    2   10     -1.80      0.00
   -1    2   10     -3.70      0.00
    0    2   10     -0.48      0.00
    1    2   10     -2.12      0.00
    2    2   10      0.05      0.00
    3    2   10     -1.59      0.00
    4    2   10      1.34      0.00
    5    2   10     -1.76      0.00
    6    2   10      0.81      0.00
  -10    3   10      1.85      0.00
   -9    3   10      1.03      0.00
   -8    3   10      1.58      0.00
   -7    3   10     -2.21      0.00
   -6    3   10      0.18      0.00
   -5    3   10     -4.98      0.00
   -4    3   10     -0.16      0.00
   -3    3   10      1.82      0.00
   -2    3   10     -1.03      0.00
   -1    3   10      3.08      0.00
    0    3   10      3.11      0.00
    1    3   10     -3.70      0.00
    2    3   10      1.56      0.00
    3    3   10     -1.23      0.00
    4    3   10     -1.73      0.00
    5    3   10      1.18      0.00
    6    3   10     -0.16      0.00
  -10    4   10     -0.75      0.00
   -9    4   10      1.41      0.00
   -8    4   10     -1.41      0.00
   -7    4   10     -0.35      0.00
   -6    4   10      1.91      0.00
   -5    4   10      0.83      0.00
   -4    4   10      0.99      0.00
   -3    4   10     -1.82      0.00
   -2    4   10     -3.01      0.00
   -1    4   10      1.97      0.00
    0    4   10     -1.61      0.00
    1    4   10      1.09      0.00
    2    4   10     -0.35      0.00
    3    4   10     -2.19      0.00
    4    4   10     -2.83      0.00
    5    4   10     -1.45      0.00
    6    4   10      2.01      0.00
  -10    5   10     -0.37      0.00
   -9    5   10      0.90      0.00
   -8    5   10     -1.76      0.00
   -7    5   10      0.49      0.00
   -6    5   10     -0.85      0.00
   -5    5   10      0.86      0.00
   -4    5   10      1.17      0.00
   -3    5   10     -5.47      0.00
   -2    5   10     -2.52      0.00
   -1    5   10     -3.52      0.00
    0    5   10     -5.31      0.00
    1    5   10     -1.08      0.00
    2    5   10     -1.02      0.00
    3    5   10     -2.39      0.00
    4    5   10      0.14      0.00
    5    5   10      0.38      0.00
    6    5   10      1.26      0.00
   -9    6   10     -1.15      0.00
   -8    6   10      2.50      0.00
   -7    6   10      1.44      0.00
   -6    6   10     -2.31      0.00
   -5    6   10     -4.24      0.00
   -4    6   10     -2.88      0.00
   -3    6   10     -4.35      0.00
   -2    6   10     -0.85      0.00
   -1    6   10     -1.32      0.00
    0    6   10      1.43      0.00
    1    6   10      4.71      0.00
    2    6   10     -1.53      0.00
    3    6   10      1.15      0.00
    4    6   10      3.17      0.00
    5    6   10      2.48      0.00
   -9    7   10     -0.47      0.00
   -8    7   10      0.28      0.00
   -7    7   10     -0.36      0.00
   -6    7   10     -1.83      0.00
   -5    7   10      1.93      0.00
   -4    7   10     -2.98      0.00
   -3    7   10      1.70      0.00
   -2    7   10      0.30      0.00
   -1    7   10      1.48      0.00
    0    7   10      4.81      0.00
    1    7   10      4.28      0.00
    2    7   10      2.39      0.00
    3    7   10      4.11      0.00
    4    7   10      0.31      0.00
    5    7   10      0.33      0.00
   -9    8   10      0.65      0.00
   -8    8   10     -0.02      0.00
   -7    8   10     -1.89      0.00
   -6    8   10      0.33      0.00
   -5    8   10      3.05      0.00
   -4    8   10      1.74      0.00
   -3    8   10      3.27      0.00
   -2    8   10      4.12      0.00
   -1    8   10     -0.68      0.00
    0    8   10     -0.12      0.00
    1    8   10     -1.56      0.00
    2    8   10      1.92      0.00
    3    8   10     -1.76      0.00
    4    8   10      1.18      0.00
    5    8   10      0.50      0.00
   -9    9   10      1.59      0.00
   -8    9   10      0.46      0.00
   -7    9   10      2.75      0.00
   -6    9   10      1.53      0.00
   -5    9   10     -0.45      0.00
   -4    9   10      1.33      0.00
   -3    9   10      1.12      0.00
   -2    9   10     -1.60      0.00
   -1    9   10     -1.14      0.00
    0    9   10      1.57      0.00
    1    9   10     -2.97      0.00
    2    9   10     -0.31      0.00
    3    9   10      0.58      0.00
    4    9   10     -2.06      0.00
    5    9   10      0.00      0.00
   -8   10   10      1.49      0.00
   -7   10   10     -0.86      0.00
   -6   10   10      4.08      0.00
   -5   10   10     -0.50      0.00
   -4   10   10      0.89      0.00
   -3   10   10     -1.37      0.00
   -2   10   10     -2.78      0.00
   -1   10   10      0.35      0.00
    0   10   10     -3.59      0.00
    1   10   10      2.45      0.00
    2   10   10      1.34      0.00
    3   10   10      0.20      0.00
    4   10   10     -1.03      0.00
   -8   11   10      1.08      0.00
   -7   11   10      0.86      0.00
   -6   11   10      0.01      0.00
   -5   11   10      0.24      0.00
   -4   11   10      1.69      0.00
   -3   11   10      1.84      0.00
   -2   11   10     -0.12      0.00
   -1   11   10     -1.26      0.00
    0   11   10      0.13      0.00
    1   11   10     -0.78      0.00
    2   11   10     -2.18      0.00
    3   11   10     -0.73      0.00
    4   11   10      0.49      0.00
   -8   12   10      0.47      0.00
   -7   12   10      3.03      0.00
   -6   12   10     -2.65      0.00
   -5   12   10      0.58      0.00
   -4   12   10      0.92      0.00
   -3   12   10     -1.68      0.00
   -2   12   10     -0.38      0.00
   -1   12   10      1.23      0.00
    0   12   10     -0.64      0.00
    1   12   10     -2.01      0.00
    2   12   10      1.52      0.00
    3   12   10     -1.21      0.00
    4   12   10     -0.16      0.00
   -7   13   10     -1.27      0.00
   -6   13   10     -1.39      0.00
   -5   13   10     -0.09      0.00
   -4   13   10     -3.69      0.00
   -3   13   10     -0.17      0.00
   -2   13   10      0.28      0.00
   -1   13   10     -3.57      0.00
    0   13   10     -1.77      0.00
    1   13   10      2.04      0.00
    2   13   10      0.22      0.00
    3   13   10      2.77      0.00
   -7   14   10     -2.05      0.00
   -6   14   10     -0.43      0.00
   -5   14   10     -2.90      0.00
   -4   14   10      1.30      0.00
   -3   14   10     -0.03      0.00
   -2   14   10      0.26      0.00
   -1   14   10      0.88      0.00
    0   14   10      0.25      0.00
    1   14   10     -1.00      0.00
    2   14   10      0.65      0.00
    3   14   10      0.71      0.00
   -6   15   10      1.37      0.00
   -5   15   10      1.16      0.00
   -4   15   10     -0.73      0.00
   -3   15   10     -0.53      0.00
   -2   15   10      1.42      0.00
   -1   15   10      1.41      0.00
    0   15   10      0.58      0.00
    1   15   10      0.48      0.00
    2   15   10     -1.33      0.00
   -5   16   10      1.04      0.00
   -4   16   10     -1.31      0.00
   -3   16   10      0.62      0.00
   -2   16   10     -1.86      0.00
   -1   16   10     -0.50      0.00
    0   16   10     -0.08      0.00
    1   16   10     -1.79      0.00
   -4   17   10      0.56      0.00
   -3   17   10      0.18      0.00
   -2   17   10      0.99      0.00
   -1   17   10     -0.52      0.00
    0   17   10     -0.42      0.00
   -9    0   11      3.04      0.00
   -7    0   11     -0.74      0.00
   -5    0   11     -2.56      0.00
   -3    0   11      6.21      0.00
   -1    0   11      2.73      0.00
    1    0   11     -0.31      0.00
    3    0   11     -0.32      0.00
    5    0   11     -1.80      0.00
   -9    1   11      0.60      0.00
   -8    1   11      0.92      0.00
   -7    1   11     -1.10      0.00
   -6    1   11      0.72      0.00
   -5    1   11     -0.32      0.00
   -4    1   11     -1.01      0.00
   -3    1   11      1.87      0.00
   -2    1   11     -0.94      0.00
   -1    1   11      0.82      0.00
    0    1   11      2.68      0.00
    1    1   11     -2.59      0.00
    2    1   11      1.36      0.00
    3    1   11     -2.05      0.00
    4    1   11     -1.17      0.00
    5    1   11     -0.94      0.00
   -9    2   11     -0.68      0.00
   -8    2   11     -0.91      0.00
   -7    2   11      0.13      0.00
   -6    2   11      1.98      0.00
   -5    2   11      0.79      0.00
   -4    2   11      2.75      0.00
   -3    2   11     -3.64      0.00
   -2    2   11     -2.89      0.00
   -1    2   11     -0.86      0.00
    0    2   11     -4.31      0.00
    1    2   11      1.67      0.00
    2    2   11      0.48      0.00
    3    2   11     -0.47      0.00
    4    2   11     -2.70      0.00
    5    2   11      1.14      0.00
   -9    3   11      1.68      0.00
   -8    3   11     -0.61      0.00
   -7    3   11      2.38      0.00
   -6    3   11     -1.69      0.00
   -5    3   11     -0.29      0.00
   -4    3   11      2.43      0.00
   -3    3   11     -3.08      0.00
   -2    3   11      1.12      0.00
   -1    3   11     -0.28      0.00
    0    3   11     -1.77      0.00
    1    3   11      1.46      0.00
    2    3   11     -2.07      0.00
    3    3   11     -1.30      0.00
    4    3   11      0.78      0.00
   -9    4   11     -1.33      0.00
   -8    4   11      2.59      0.00
   -7    4   11      0.08      0.00
   -6    4   11     -0.05      0.00
   -5    4   11      1.13      0.00
   -4    4   11     -2.92      0.00
   -3    4   11     -1.10      0.00
   -2    4   11     -0.55      0.00
   -1    4   11     -1.02      0.00
    0    4   11      1.20      0.00
    1    4   11      0.35      0.00
    2    4   11     -2.16      0.00
    3    4   11     -1.23      0.00
    4    4   11     -0.36      0.00
   -9    5   11     -0.60      0.00
   -8    5   11     -1.17      0.00
   -7    5   11     -0.25      0.00
   -6    5   11     -1.17      0.00
   -5    5   11      0.49      0.00
   -4    5   11     -2.28      0.00
   -3    5   11      0.06      0.00
   -2    5   11     -1.27      0.00
   -1    5   11     -4.37      0.00
    0    5   11     -0.19      0.00
    1    5   11     -1.07      0.00
    2    5   11     -0.12      0.00
    3    5   11      1.20      0.00
    4    5   11      1.25      0.00
   -8    6   11     -0.40      0.00
   -7    6   11     -1.16      0.00
   -6    6   11     -1.96      0.00
   -5    6   11     -1.68      0.00
   -4    6   11     -1.17      0.00
   -3    6   11      2.40      0.00
   -2    6   11      1.18      0.00
   -1    6   11      1.12      0.00
    0    6   11      1.59      0.00
    1    6   11      0.28      0.00
    2    6   11      4.06      0.00
    3    6   11      1.42      0.00
    4    6   11      2.07      0.00
   -8    7   11     -0.38      0.00
   -7    7   11     -0.96      0.00
   -6    7   11      2.11      0.00
   -5    7   11     -0.12      0.00
   -4    7   11      2.68      0.00
   -3    7   11      1.50      0.00
   -2    7   11      1.49      0.00
   -1    7   11      2.60      0.00
    0    7   11      2.85      0.00
    1    7   11      2.01      0.00
    2    7   11      2.46      0.00
    3    7   11      2.09      0.00
    4    7   11     -1.22      0.00
   -8    8   11      1.29      0.00
   -7    8   11     -0.51      0.00
   -6    8   11      3.43      0.00
   -5    8   11      1.83      0.00
   -4    8   11      3.60      0.00
   -3    8   11      1.26      0.00
   -2    8   11     -0.99      0.00
   -1    8   11      1.31      0.00
    0    8   11     -4.10      0.00
    1    8   11     -0.14      0.00
    2    8   11     -1.23      0.00
    3    8   11     -0.29      0.00
    4    8   11     -2.03      0.00
   -8    9   11      2.27      0.00
   -7    9   11      4.39      0.00
   -6    9   11     -0.99      0.00
   -5    9   11     -0.59      0.00
   -4    9   11      0.43      0.00
   -3    9   11      0.30      0.00
   -2    9   11      0.28      0.00
   -1    9   11     -2.38      0.00
    0    9   11     -0.67      0.00
    1    9   11     -0.65      0.00
    2    9   11     -1.95      0.00
    3    9   11     -3.03      0.00
   -7   10   11      2.58      0.00
   -6   10   11     -2.23      0.00
   -5   10   11      0.91      0.00
   -4   10   11     -1.47      0.00
   -3   10   11     -0.12      0.00
   -2   10   11     -0.23      0.00
   -1   10   11     -1.08      0.00
    0   10   11      1.72      0.00
    1   10   11     -1.45      0.00
    2   10   11      0.69      0.00
    3   10   11      1.03      0.00
   -7   11   11     -2.76      0.00
   -6   11   11      2.13      0.00
   -5   11   11      0.99      0.00
   -4   11   11     -0.11      0.00
   -3   11   11     -0.27      0.00
   -2   11   11      2.17      0.00
   -1   11   11      0.81      0.00
    0   11   11     -4.32      0.00
    1   11   11     -0.36      0.00
    2   11   11     -0.80      0.00
   -6   12   11      1.01      0.00
   -5   12   11     -0.90      0.00
   -4   12   11      0.08      0.00
   -3   12   11     -0.23      0.00
   -2   12   11     -0.89      0.00
   -1   12   11      0.32      0.00
    0   12   11      0.80      0.00
    1   12   11     -2.62      0.00
    2   12   11     -0.85      0.00
   -5   13   11     -1.08      0.00
   -4   13   11     -1.34      0.00
   -3   13   11     -1.78      0.00
   -2   13   11     -1.27      0.00
   -1   13   11     -0.47      0.00
    0   13   11      0.55      0.00
    1   13   11      0.93      0.00
   -5   14   11     -0.62      0.00
   -4   14   11     -1.49      0.00
   -3   14   11      2.36      0.00
   -2   14   11      0.27      0.00
   -1   14   11      0.03      0.00
    0   14   11      1.17      0.00
   -3   15   11     -0.84      0.00
   -2   15   11      2.86      0.00
   -1   15   11      2.20      0.00
   -8    0   12     -0.34      0.00
   -6    0   12     -0.13      0.00
   -4    0   12      5.55      0.00
   -2    0   12      0.02      0.00
    0    0   12     -2.06      0.00
    2    0   12     -0.03      0.00
   -8    1   12     -0.56      0.00
   -7    1   12      0.50      0.00
   -6    1   12     -0.15      0.00
   -5    1   12      0.52      0.00
   -4    1   12      0.35      0.00
   -3    1   12     -1.67      0.00
   -2    1   12     -0.06      0.00
   -1    1   12      0.40      0.00
    0    1   12     -1.26      0.00
    1    1   12      1.43      0.00
    2    1   12     -3.00      0.00
    3    1   12     -1.03      0.00
   -8    2   12      1.03      0.00
   -7    2   12      1.89      0.00
   -6    2   12     -0.12      0.00
   -5    2   12      3.54      0.00
   -4    2   12     -4.25      0.00
   -3    2   12     -2.20      0.00
   -2    2   12     -0.61      0.00
   -1    2   12     -3.00      0.00
    0    2   12      1.58      0.00
    1    2   12     -0.85      0.00
    2    2   12      0.07      0.00
    3    2   12     -1.50      0.00
   -7    3   12      0.09      0.00
   -6    3   12      0.54      0.00
   -5    3   12     -2.69      0.00
   -4    3   12      0.80      0.00
   -3    3   12      2.30      0.00
   -2    3   12      1.03      0.00
   -1    3   12     -1.10      0.00
    0    3   12      0.23      0.00
    1    3   12     -1.40      0.00
    2    3   12     -0.20      0.00
    3    3   12      0.17      0.00
   -7    4   12     -1.46      0.00
   -6    4   12     -1.08      0.00
   -5    4   12     -0.92      0.00
   -4    4   12     -0.48      0.00
   -3    4   12      2.25      0.00
   -2    4   12      0.77      0.00
   -1    4   12      1.50      0.00
    0    4   12     -0.32      0.00
    1    4   12     -1.06      0.00
    2    4   12      0.41      0.00
    3    4   12      1.09      0.00
   -7    5   12     -2.74      0.00
   -6    5   12      1.28      0.00
   -5    5   12      0.69      0.00
   -4    5   12     -0.52      0.00
   -3    5   12      0.06      0.00
   -2    5   12     -1.65      0.00
   -1    5   12      0.37      0.00
    0    5   12     -1.48      0.00
    1    5   12      0.99      0.00
    2    5   12      1.63      0.00
   -7    6   12      1.40      0.00
   -6    6   12     -0.79      0.00
   -5    6   12     -1.70      0.00
   -4    6   12      2.99      0.00
   -3    6   12     -0.18      0.00
   -2    6   12      0.88      0.00
   -1    6   12      1.16      0.00
    0    6   12      0.59      0.00
    1    6   12      2.27      0.00
    2    6   12      1.01      0.00
   -7    7   12      2.49      0.00
   -6    7   12     -0.80      0.00
   -5    7   12      0.25      0.00
   -4    7   12      0.73      0.00
   -3    7   12      0.51      0.00
   -2    7   12      1.99      0.00
   -1    7   12      1.00      0.00
    0    7   12      1.97      0.00
    1    7   12      1.14      0.00
    2    7   12     -0.06      0.00
   -6    8   12      0.31      0.00
   -5    8   12      3.06      0.00
   -4    8   12     -1.58      0.00
   -3    8   12      0.03      0.00
   -2    8   12      0.77      0.00
   -1    8   12     -2.01      0.00
    0    8   12     -0.17      0.00
    1    8   12     -2.84      0.00
   -6    9   12      2.67      0.00
   -5    9   12     -1.25      0.00
   -4    9   12     -0.65      0.00
   -3    9   12      0.34      0.00
   -2    9   12     -0.66      0.00
   -1    9   12      2.02      0.00
    0    9   12     -3.21      0.00
    1    9   12     -1.42      0.00
   -5   10   12     -0.63      0.00
   -4   10   12      0.23      0.00
   -3   10   12     -0.06      0.00
   -2   10   12     -0.07      0.00
   -1   10   12      0.30      0.00
    0   10   12      1.58      0.00
   -4   11   12      0.63      0.00
   -3   11   12     -0.87      0.00
   -2   11   12      0.41      0.00
   -1   11   12     -0.97      0.00
   -5    0   13      1.06      0.00
   -3    0   13     -0.99      0.00
   -1    0   13     -2.48      0.00
   -5    1   13     -2.60      0.00
   -4    1   13     -0.98      0.00
   -3    1   13      2.43      0.00
   -2    1   13     -0.36      0.00
   -1    1   13      0.24      0.00
    0    1   13      0.19      0.00
   -5    2   13      0.28      0.00
   -4    2   13     -1.78      0.00
   -3    2   13      0.50      0.00
   -2    2   13      0.25      0.00
   -1    2   13      0.84      0.00
    0    2   13     -1.28      0.00
   -5    3   13      1.16      0.00
   -4    3   13      0.93      0.00
   -3    3   13      0.93      0.00
   -2    3   13     -0.07      0.00
   -1    3   13     -0.27      0.00
    0    3   13     -1.45      0.00
   -5    4   13     -3.09      0.00
   -4    4   13      3.15      0.00
   -3    4   13     -2.07      0.00
   -2    4   13      0.52      0.00
   -1    4   13     -0.20      0.00
    0    4   13      0.15      0.00
   -4    5   13     -2.56      0.00
   -3    5   13     -1.62      0.00
   -2    5   13     -0.64      0.00
   -1    5   13      0.17      0.00
   -4    6   13     -1.89      0.00
   -3    6   13      1.36      0.00
   -2    6   13      0.07      0.00
   -1    6   13      0.20      0.00
    1    1    0     39.86      0.00
    0    2    0    -75.88      0.00
   12    8    0     -0.06      0.00
   11   13    0     -1.21      0.00
   10   16    0      0.02      0.00
    7   22    0     -0.49      0.00
    4   25    0      1.91      0.00
    2   26    0     -0.29      0.00
   -1    0    1     72.56      0.00
   -1    1    1    -48.17      0.00
    0    1    1      0.62      0.00
    0    2    1    -90.86      0.00
   12    6    1      0.91      0.00
  -12    9    1      0.49      0.00
   11   12    1      0.67      0.00
    9   18    1     -0.37      0.00
    8   20    1     -1.64      0.00
    6   23    1     -0.27      0.00
    5   24    1      1.29      0.00
   -4   25    1      1.62      0.00
   -2   26    1      0.49      0.00
    2   26    1     -0.01      0.00
   12    2    2      0.40      0.00
   12    3    2      0.52      0.00
   -9   19    2      0.01      0.00
    7   21    2      1.04      0.00
   -4   25    2      2.01      0.00
   -2   26    2      1.68      0.00
   -1   26    2      0.64      0.00
    0   26    2     -0.61      0.00
    1   26    2      2.03      0.00
   10   13    3      0.40      0.00
    9   16    3     -1.06      0.00
   -7   22    3      0.09      0.00
    5   23    3     -0.22      0.00
   -5   24    3      0.07      0.00
    4   24    3      0.49      0.00
   11    5    4      0.06      0.00
  -12    9    4     -0.20      0.00
   10   11    4      0.07      0.00
    3   24    4     -1.21      0.00
   -2   25    4     -0.30      0.00
    1   25    4     -0.43      0.00
  -12    8    5     -1.03      0.00
    9   13    5      0.76      0.00
   -9   18    5      0.69      0.00
    7   18    5      0.04      0.00
   -7   21    5     -1.81      0.00
    5   21    5     -0.48      0.00
   -5   23    5     -1.31      0.00
    3   23    5      0.20      0.00
   10    3    6     -0.22      0.00
   10    4    6     -0.21      0.00
  -12    7    6      0.07      0.00
    8   14    6     -1.17      0.00
   -9   17    6     -1.97      0.00
   -8   19    6      0.48      0.00
    4   21    6     -0.26      0.00
    3   22    6      0.10      0.00
   -4   23    6     -1.53      0.00
  -12    4    7      0.10      0.00
    9    6    7      0.73      0.00
  -11   10    7      0.80      0.00
    8   11    7     -3.04      0.00
   -9   16    7     -1.17      0.00
   -4   22    7     -3.41      0.00
    1   22    7     -1.19      0.00
    8    7    8     -0.64      0.00
  -11    8    8     -0.53      0.00
  -10   12    8      1.09      0.00
   -7   18    8     -0.04      0.00
    3   19    8     -0.44      0.00
   -5   20    8      0.69      0.00
    2   20    8     -0.86      0.00
   -3   21    8     -0.41      0.00
    0   21    8      0.45      0.00
  -11    4    9      2.23      0.00
    7    7    9     -0.99      0.00
    6   11    9      0.78      0.00
    3   17    9      0.36      0.00
    2   18    9      0.99      0.00
    1   19    9     -1.14      0.00
  -10    6   10      0.91      0.00
    6    6   10     -0.50      0.00
   -9   10   10      0.38      0.00
    5   10   10     -1.75      0.00
    5    3   11     -0.88      0.00
    5    4   11      0.96      0.00
   -9    6   11     -0.07      0.00
    3   11   11      0.21      0.00
   -6   13   11     -1.14      0.00
    1   14   11      1.35      0.00
   -4   15   11      2.17      0.00
   -8    3   12      0.61      0.00
    3    5   12      1.09      0.00
    2    8   12     -1.34      0.00
    1   10   12      0.11      0.00
   -5   11   12      1.15      0.00
    0   11   12      0.57      0.00
   -3   12   12      0.01      0.00
   -2   12   12      0.03      0.00
   -1   12   12      0.56      0.00
    1    0   13     -1.47      0.00
   -6    1   13      0.82      0.00
    1    1   13     -1.76      0.00
   -6    2   13      0.86      0.00
    1    2   13      0.82      0.00
   -5    5   13      1.21      0.00
    0    5   13      1.09      0.00
   -4    7   13      0.54      0.00
   -3    7   13      0.67      0.00
   -2    7   13      0.11      0.00
   -1    7   13      1.65      0.00
    0    0    0      0.00      0.00
loop_
  _platon_squeeze_void_nr
  _platon_squeeze_void_average_x
  _platon_squeeze_void_average_y
  _platon_squeeze_void_average_z
  _platon_squeeze_void_volume
  _platon_squeeze_void_count_electrons
  _platon_squeeze_void_content
   1 -0.073  0.250  0.029       342       108 ' '
   2  0.031  0.750 -0.019       340       107 ' '
loop_
  _platon_missing_refln_index_h
  _platon_missing_refln_index_k
  _platon_missing_refln_index_l
  _platon_missing_refln_theta
    1    1    0     2.264
    0    2    0     1.951
   -1    0    1     2.514
   -1    1    1     2.697
    0    1    1     2.175
    0    2    1     2.755
_platon_squeeze_void_probe_radius                  1.20
_platon_squeeze_details
)
TITL cobtrbbtc P 1 21/n 1   R = 0.13
CELL   10.1845   20.8747   10.7070     90.00    101.88     90.00
SPGR P21/n
C101 0.478 0.626 0.397 !       7.42 eA-3
C102 0.361 0.157 0.373 !       7.36 eA-3
C103 0.840 0.030 0.195 !       6.43 eA-3
C104 0.064 0.268 0.020 !       6.11 eA-3
C105 0.411 0.701 0.151 !       4.92 eA-3
C106 0.758 0.170 0.411 !       3.41 eA-3
Q107 0.566 0.172 0.067 !       0.95 eA-3
Q108 0.538 0.546 0.019 !       0.90 eA-3
Q109 0.308 0.408 0.330 !       0.90 eA-3
Q110 0.100 0.984 0.452 !       0.87 eA-3
Q111 0.913 0.762 0.330 !       0.86 eA-3
Q112 0.999 0.470 0.197 !       0.84 eA-3
Q113 0.952 0.453 0.130 !       0.83 eA-3
Q114 0.592 0.018 0.410 !       0.81 eA-3
Q115 0.083 0.564 0.418 !       0.79 eA-3
Q116 0.273 0.127 0.280 !       0.76 eA-3
Q117 0.682 0.936 0.134 !       0.74 eA-3
C118 0.662 0.174 0.445 !       0.74 eA-3
Q119 0.258 0.986 0.436 !       0.74 eA-3
C120 0.223 0.709 0.049 !       0.74 eA-3
Q121 0.191 1.000 0.143 !       0.73 eA-3
Q122 0.219 0.872 0.221 !       0.70 eA-3
Q123 0.029 0.844 0.223 !       0.70 eA-3
Q124 0.110 0.781 0.279 !       0.70 eA-3
Q125 0.590 0.187 0.023 !       0.68 eA-3
Q126 0.430 0.317 0.281 !       0.68 eA-3
Q127 0.416 0.138 0.147 !       0.68 eA-3
C128 0.997 0.188 0.147 !       0.67 eA-3
Q129 0.934 0.877 0.175 !       0.66 eA-3
Q130 0.065 0.438 0.481 !       0.66 eA-3
Q131 0.407 0.874 0.137 !       0.66 eA-3
Q132 0.093 0.376 0.356 !       0.66 eA-3
Q133 0.039 0.068 0.483 !       0.65 eA-3
Q134 0.889 0.329 0.273 !       0.63 eA-3
Q135 0.663 0.360 0.290 !       0.63 eA-3
Q136 0.563 0.048 0.334 !       0.62 eA-3
Q137 0.439 0.533 0.021 !       0.61 eA-3
Q138 0.486 0.045 0.094 !       0.61 eA-3
Q139 0.288 0.549 0.340 !       0.60 eA-3
Q140 1.009 0.639 0.411 !       0.59 eA-3
C141 0.873 0.155 0.265 !       0.59 eA-3
Q142 0.653 0.296 0.265 !       0.59 eA-3
Q143 0.935 0.126 0.098 !       0.57 eA-3
Q144 0.191 0.360 0.213 !       0.57 eA-3
C145 0.121 0.188 0.219 !       0.57 eA-3
Q146 0.411 0.325 0.026 !       0.56 eA-3
C147 0.097 0.706 0.038 !       0.56 eA-3
Q148 0.349 0.563 0.370 !       0.56 eA-3
Q149 0.437 0.593 0.462 !       0.56 eA-3
Q150 0.895 0.042 0.285 !       0.55 eA-3
Q151 0.223 0.614 0.472 !       0.55 eA-3
Q152 0.087 0.414 0.344 !       0.55 eA-3
Q153 0.503 0.048 0.155 !       0.54 eA-3
Q154 0.602 0.483 0.272 !       0.54 eA-3
Q155 0.303 0.816 0.249 !       0.53 eA-3
Q156 0.421 0.184 0.059 !       0.53 eA-3
Q157 0.146 0.721 0.133 !       0.53 eA-3
Q158 0.788 0.123 0.404 !       0.53 eA-3
Q159 0.883 0.233 0.381 !       0.51 eA-3
C160 0.835 0.129 0.171 !       0.50 eA-3
Q161 0.369 0.407 0.398 !       0.50 eA-3
)
;
_shelx_shelxl_version_number     2014/7
_olex2_submission_special_instructions 'No special instructions were received'
loop_
_space_group_symop_operation_xyz
'x, y, z'
'-x+1/2, y+1/2, -z+1/2'
'-x, -y, -z'
'x-1/2, -y-1/2, z-1/2'
loop_
_atom_site_label
_atom_site_type_symbol
_atom_site_fract_x
_atom_site_fract_y
_atom_site_fract_z
_atom_site_U_iso_or_equiv
_atom_site_adp_type
_atom_site_occupancy
_atom_site_site_symmetry_order
_atom_site_calc_flag
_atom_site_refinement_flags_posn
Co1 Co -0.08538(3) 0.44935(2) 0.55978(4) 0.01705(11) Uani 1 1 d .
Co2 Co 0.07706(3) 0.38594(2) 0.36418(4) 0.01811(12) Uani 1 1 d .
O1 O -0.05291(17) 0.35448(9) 0.6131(2) 0.0250(5) Uani 1 1 d .
O2 O 0.10913(17) 0.31866(9) 0.5149(2) 0.0258(5) Uani 1 1 d .
O3 O -0.31655(17) 0.16720(10) 0.7483(2) 0.0281(5) Uani 1 1 d .
O4 O -0.19461(18) 0.09967(10) 0.8776(2) 0.0347(6) Uani 1 1 d .
O5 O 0.29205(17) 0.07902(9) 0.8823(2) 0.0248(5) Uani 1 1 d .
O6 O 0.39639(16) 0.15909(9) 0.8050(2) 0.0261(5) Uani 1 1 d .
O7 O 0.09379(16) 0.45603(8) 0.49290(19) 0.0160(4) Uani 1 1 d D
H7 H 0.161(2) 0.4538(13) 0.558(2) 0.019 Uiso 1 1 d DR
O8 O -0.26765(19) 0.45750(12) 0.6282(2) 0.0362(6) Uani 1 1 d D
H8A H -0.327(3) 0.4240(10) 0.622(3) 0.043 Uiso 1 1 d DR
H8B H -0.315(3) 0.4918(9) 0.615(4) 0.043 Uiso 1 1 d DR
N1 N 0.0106(2) 0.48016(11) 0.7454(2) 0.0227(6) Uani 1 1 d .
N2 N -0.0012(2) 0.54360(11) 0.7797(2) 0.0215(5) Uani 1 1 d .
N3 N 0.1339(2) 0.49484(13) 0.9355(3) 0.0279(6) Uani 1 1 d .
C1 C 0.3742(3) 0.49194(18) 1.0290(3) 0.0349(8) Uani 1 1 d .
C2 C 0.4269(3) 0.55221(19) 1.0237(4) 0.0428(9) Uani 1 1 d .
H2 H 0.3773 0.5881 1.0400 0.051 Uiso 1 1 calc R
C3 C 0.4481(3) 0.43930(18) 1.0054(4) 0.0435(10) Uani 1 1 d .
H3 H 0.4134 0.3978 1.0091 0.052 Uiso 1 1 calc R
C4 C 0.2349(3) 0.4834(2) 1.0539(3) 0.0416(9) Uani 1 1 d .
H4A H 0.2248 0.4399 1.0847 0.050 Uiso 1 1 calc R
H4B H 0.2207 0.5136 1.1200 0.050 Uiso 1 1 calc R
C5 C 0.0915(3) 0.45251(15) 0.8404(3) 0.0295(7) Uani 1 1 d .
H5 H 0.1168 0.4092 0.8423 0.035 Uiso 1 1 calc R
C6 C 0.0744(3) 0.55083(15) 0.8936(3) 0.0272(7) Uani 1 1 d .
H6 H 0.0857 0.5895 0.9395 0.033 Uiso 1 1 calc R
C7 C 0.0326(2) 0.25089(13) 0.6611(3) 0.0192(6) Uani 1 1 d .
C8 C -0.0835(2) 0.22638(13) 0.6931(3) 0.0209(6) Uani 1 1 d .
H8 H -0.1654 0.2482 0.6677 0.025 Uiso 1 1 calc R
C9 C -0.0785(2) 0.17001(13) 0.7623(3) 0.0189(6) Uani 1 1 d .
C10 C 0.0427(2) 0.13911(13) 0.8031(3) 0.0209(6) Uani 1 1 d .
H10 H 0.0463 0.1017 0.8526 0.025 Uiso 1 1 calc R
C11 C 0.1602(2) 0.16287(13) 0.7718(3) 0.0202(6) Uani 1 1 d .
C12 C 0.1533(2) 0.21792(13) 0.6986(3) 0.0214(7) Uani 1 1 d .
H12 H 0.2309 0.2332 0.6738 0.026 Uiso 1 1 calc R
C13 C 0.0295(2) 0.31279(13) 0.5896(3) 0.0212(7) Uani 1 1 d .
C14 C -0.2036(3) 0.14396(13) 0.7982(3) 0.0214(7) Uani 1 1 d .
C15 C 0.2922(2) 0.13113(13) 0.8233(3) 0.0208(6) Uani 1 1 d .
loop_
_atom_site_aniso_label
_atom_site_aniso_U_11
_atom_site_aniso_U_22
_atom_site_aniso_U_33
_atom_site_aniso_U_23
_atom_site_aniso_U_13
_atom_site_aniso_U_12
Co1 0.01546(18) 0.0145(2) 0.0217(2) 0.00018(16) 0.00509(16) -0.00016(14)
Co2 0.01397(18) 0.0162(2) 0.0250(3) -0.00255(17) 0.00602(16) -0.00048(14)
O1 0.0221(10) 0.0165(10) 0.0380(14) 0.0040(9) 0.0101(9) 0.0059(8)
O2 0.0222(10) 0.0227(11) 0.0356(14) 0.0110(10) 0.0128(9) 0.0040(8)
O3 0.0134(9) 0.0374(12) 0.0343(14) 0.0091(10) 0.0068(9) -0.0009(9)
O4 0.0246(11) 0.0364(13) 0.0446(16) 0.0206(11) 0.0108(10) -0.0011(9)
O5 0.0192(9) 0.0218(11) 0.0312(13) 0.0086(10) 0.0003(9) 0.0025(8)
O6 0.0144(9) 0.0226(10) 0.0407(15) 0.0073(10) 0.0045(9) 0.0035(8)
O7 0.0129(9) 0.0163(9) 0.0180(11) -0.0003(8) 0.0014(7) 0.0006(8)
O8 0.0224(11) 0.0436(14) 0.0455(16) -0.0030(13) 0.0139(10) 0.0003(10)
N1 0.0216(12) 0.0222(13) 0.0240(15) 0.0046(12) 0.0041(10) 0.0037(10)
N2 0.0182(11) 0.0227(13) 0.0244(15) -0.0052(11) 0.0062(10) -0.0011(10)
N3 0.0179(12) 0.0464(17) 0.0189(15) 0.0039(13) 0.0026(10) 0.0022(12)
C1 0.0210(14) 0.062(2) 0.0201(19) 0.0075(17) -0.0001(13) 0.0033(16)
C2 0.0307(17) 0.060(2) 0.036(2) -0.0019(19) 0.0028(16) 0.0097(17)
C3 0.0316(18) 0.051(2) 0.043(2) 0.0087(19) -0.0032(17) -0.0010(17)
C4 0.0235(16) 0.083(3) 0.0162(19) 0.0088(18) -0.0010(13) 0.0010(17)
C5 0.0255(15) 0.0339(18) 0.028(2) 0.0065(15) 0.0043(14) 0.0081(13)
C6 0.0204(14) 0.0361(18) 0.0258(19) -0.0030(15) 0.0060(13) -0.0028(13)
C7 0.0173(13) 0.0189(14) 0.0223(17) 0.0001(13) 0.0062(12) -0.0004(11)
C8 0.0138(12) 0.0224(15) 0.0259(18) 0.0020(13) 0.0030(12) 0.0023(11)
C9 0.0175(13) 0.0211(14) 0.0185(17) 0.0010(13) 0.0046(11) -0.0051(11)
C10 0.0211(13) 0.0195(14) 0.0229(18) 0.0051(13) 0.0060(12) 0.0028(12)
C11 0.0147(12) 0.0196(14) 0.0262(18) 0.0008(13) 0.0038(12) 0.0000(11)
C12 0.0144(12) 0.0228(15) 0.0283(19) 0.0045(13) 0.0076(12) -0.0009(11)
C13 0.0161(13) 0.0214(15) 0.0250(18) 0.0028(13) 0.0018(12) -0.0022(12)
C14 0.0186(13) 0.0228(15) 0.0237(18) -0.0029(13) 0.0066(12) -0.0007(12)
C15 0.0185(13) 0.0199(15) 0.0240(18) -0.0007(13) 0.0040(12) 0.0009(11)
loop_
_atom_type_symbol
_atom_type_description
_atom_type_scat_dispersion_real
_atom_type_scat_dispersion_imag
_atom_type_scat_source
C C 0.0033 0.0016 'International Tables Vol C Tables 4.2.6.8 and 6.1.1.4'
H H 0.0000 0.0000 'International Tables Vol C Tables 4.2.6.8 and 6.1.1.4'
Co Co 0.3494 0.9721 'International Tables Vol C Tables 4.2.6.8 and 6.1.1.4'
N N 0.0061 0.0033 'International Tables Vol C Tables 4.2.6.8 and 6.1.1.4'
O O 0.0106 0.0060 'International Tables Vol C Tables 4.2.6.8 and 6.1.1.4'
loop_
_geom_angle_atom_site_label_1
_geom_angle_atom_site_label_2
_geom_angle_atom_site_label_3
_geom_angle
_geom_angle_site_symmetry_1
_geom_angle_site_symmetry_3
O1 Co1 O5 90.63(8) . 4_565
O1 Co1 O7 93.26(7) . .
O1 Co1 O8 94.73(8) . .
O1 Co1 N1 90.86(9) . .
O5 Co1 O8 86.38(8) 4_565 .
O7 Co1 O1 173.23(7) 3_566 .
O7 Co1 O5 92.22(8) 3_566 4_565
O7 Co1 O5 96.04(8) . 4_565
O7 Co1 O7 80.34(7) 3_566 .
O7 Co1 O8 91.58(8) 3_566 .
O7 Co1 O8 171.62(8) . .
O7 Co1 N1 91.96(8) . .
O7 Co1 N1 87.19(8) 3_566 .
N1 Co1 O5 171.76(8) . 4_565
N1 Co1 O8 85.41(9) . .
O2 Co2 O3 94.70(8) . 4_665
O2 Co2 O4 92.48(8) . 4_665
O2 Co2 N2 167.38(8) . 3_566
O3 Co2 O4 58.52(7) 4_665 4_665
O3 Co2 N2 95.15(9) 4_665 3_566
O6 Co2 O2 85.35(8) 4_565 .
O6 Co2 O3 96.53(8) 4_565 4_665
O6 Co2 O4 154.75(8) 4_565 4_665
O6 Co2 N2 85.70(8) 4_565 3_566
O7 Co2 O2 88.97(8) . .
O7 Co2 O3 143.84(7) . 4_665
O7 Co2 O4 85.42(7) . 4_665
O7 Co2 O6 119.63(8) . 4_565
O7 Co2 N2 87.73(8) . 3_566
N2 Co2 O4 99.40(8) 3_566 4_665
C13 O1 Co1 132.55(18) . .
C13 O2 Co2 122.17(17) . .
C14 O3 Co2 94.70(17) . 4_566
C14 O4 Co2 85.97(16) . 4_566
C15 O5 Co1 128.82(18) . 4_666
C15 O6 Co2 118.09(17) . 4_666
Co1 O7 Co1 99.66(7) 3_566 .
Co1 O7 H7 108.7(19) . .
Co1 O7 H7 104.6(18) 3_566 .
Co2 O7 Co1 121.60(10) . 3_566
Co2 O7 Co1 103.34(8) . .
Co2 O7 H7 117.0(19) . .
Co1 O8 H8A 121(2) . .
Co1 O8 H8B 121(2) . .
H8A O8 H8B 106(2) . .
N2 N1 Co1 119.23(17) . .
C5 N1 Co1 133.6(2) . .
C5 N1 N2 107.0(2) . .
N1 N2 Co2 120.05(18) . 3_566
C6 N2 Co2 130.0(2) . 3_566
C6 N2 N1 106.9(2) . .
C5 N3 C4 126.8(3) . .
C5 N3 C6 105.3(3) . .
C6 N3 C4 127.6(3) . .
C2 C1 C3 119.2(3) . .
C2 C1 C4 120.4(3) . .
C3 C1 C4 120.4(3) . .
C1 C2 H2 119.6 . .
C1 C2 C3 120.8(3) . 3_667
C3 C2 H2 119.6 3_667 .
C1 C3 H3 120.0 . .
C2 C3 C1 120.0(3) 3_667 .
C2 C3 H3 120.0 3_667 .
N3 C4 C1 110.1(3) . .
N3 C4 H4A 109.6 . .
N3 C4 H4B 109.6 . .
C1 C4 H4A 109.6 . .
C1 C4 H4B 109.6 . .
H4A C4 H4B 108.2 . .
N1 C5 N3 110.5(3) . .
N1 C5 H5 124.7 . .
N3 C5 H5 124.7 . .
N2 C6 N3 110.3(3) . .
N2 C6 H6 124.8 . .
N3 C6 H6 124.8 . .
C8 C7 C13 120.8(2) . .
C12 C7 C8 119.4(3) . .
C12 C7 C13 119.8(2) . .
C7 C8 H8 119.9 . .
C9 C8 C7 120.2(2) . .
C9 C8 H8 119.9 . .
C8 C9 C14 120.2(2) . .
C10 C9 C8 119.8(2) . .
C10 C9 C14 119.9(2) . .
C9 C10 H10 119.6 . .
C9 C10 C11 120.7(3) . .
C11 C10 H10 119.6 . .
C10 C11 C15 120.1(2) . .
C12 C11 C10 119.0(2) . .
C12 C11 C15 120.8(2) . .
C7 C12 H12 119.6 . .
C11 C12 C7 120.8(2) . .
C11 C12 H12 119.6 . .
O1 C13 C7 115.8(2) . .
O2 C13 O1 126.8(3) . .
O2 C13 C7 117.4(2) . .
O3 C14 C9 119.9(3) . .
O4 C14 O3 120.5(2) . .
O4 C14 C9 119.7(2) . .
O5 C15 O6 124.5(2) . .
O5 C15 C11 118.2(2) . .
O6 C15 C11 117.3(2) . .
loop_
_geom_bond_atom_site_label_1
_geom_bond_atom_site_label_2
_geom_bond_distance
_geom_bond_site_symmetry_2
Co1 O1 2.0685(19) .
Co1 O5 2.1312(19) 4_565
Co1 O7 2.0511(18) 3_566
Co1 O7 2.0975(18) .
Co1 O8 2.138(2) .
Co1 N1 2.126(3) .
Co2 O2 2.113(2) .
Co2 O3 2.121(2) 4_665
Co2 O4 2.3196(19) 4_665
Co2 O6 2.0472(17) 4_565
Co2 O7 1.9931(19) .
Co2 N2 2.155(2) 3_566
O1 C13 1.270(3) .
O2 C13 1.257(3) .
O3 Co2 2.121(2) 4_566
O3 C14 1.261(3) .
O4 Co2 2.3196(19) 4_566
O4 C14 1.247(4) .
O5 Co1 2.1312(19) 4_666
O5 C15 1.259(3) .
O6 Co2 2.0472(17) 4_666
O6 C15 1.261(3) .
O7 Co1 2.0511(18) 3_566
O7 H7 0.867(17) .
O8 H8A 0.921(17) .
O8 H8B 0.858(17) .
N1 N2 1.386(3) .
N1 C5 1.304(4) .
N2 Co2 2.155(2) 3_566
N2 C6 1.310(4) .
N3 C4 1.478(4) .
N3 C5 1.350(4) .
N3 C6 1.350(4) .
C1 C2 1.374(5) .
C1 C3 1.385(5) .
C1 C4 1.507(4) .
C2 H2 0.9400 .
C2 C3 1.383(5) 3_667
C3 C2 1.383(5) 3_667
C3 H3 0.9400 .
C4 H4A 0.9800 .
C4 H4B 0.9800 .
C5 H5 0.9400 .
C6 H6 0.9400 .
C7 C8 1.394(4) .
C7 C12 1.394(4) .
C7 C13 1.499(4) .
C8 H8 0.9400 .
C8 C9 1.386(4) .
C9 C10 1.382(4) .
C9 C14 1.506(4) .
C10 H10 0.9400 .
C10 C11 1.398(4) .
C11 C12 1.385(4) .
C11 C15 1.499(4) .
C12 H12 0.9400 .
loop_
_geom_hbond_atom_site_label_D
_geom_hbond_atom_site_label_H
_geom_hbond_atom_site_label_A
_geom_hbond_distance_DH
_geom_hbond_distance_HA
_geom_hbond_distance_DA
_geom_hbond_angle_DHA
_geom_hbond_site_symmetry_A
O7 H7 O5 0.867(17) 2.71(3) 3.015(3) 102(2) 2_556
O8 H8B O4 0.858(17) 2.254(19) 2.992(3) 144(3) 2_456
loop_
_geom_torsion_atom_site_label_1
_geom_torsion_atom_site_label_2
_geom_torsion_atom_site_label_3
_geom_torsion_atom_site_label_4
_geom_torsion
_geom_torsion_site_symmetry_1
_geom_torsion_site_symmetry_4
Co1 O1 C13 O2 -6.5(4) . .
Co1 O1 C13 C7 172.31(18) . .
Co1 O5 C15 O6 46.1(4) 4_666 .
Co1 O5 C15 C11 -133.3(2) 4_666 .
Co1 N1 N2 Co2 -13.5(2) . 3_566
Co1 N1 N2 C6 -175.39(18) . .
Co1 N1 C5 N3 174.85(19) . .
Co2 O2 C13 O1 -22.2(4) . .
Co2 O2 C13 C7 158.97(18) . .
Co2 O3 C14 O4 6.3(3) 4_566 .
Co2 O3 C14 C9 -173.4(2) 4_566 .
Co2 O4 C14 O3 -5.8(3) 4_566 .
Co2 O4 C14 C9 173.9(2) 4_566 .
Co2 O6 C15 O5 4.5(4) 4_666 .
Co2 O6 C15 C11 -176.14(19) 4_666 .
Co2 N2 C6 N3 -160.10(19) 3_566 .
N1 N2 C6 N3 -0.6(3) . .
N2 N1 C5 N3 -0.2(3) . .
C2 C1 C3 C2 -0.3(6) . 3_667
C2 C1 C4 N3 79.5(4) . .
C3 C1 C2 C3 0.3(6) . 3_667
C3 C1 C4 N3 -97.5(4) . .
C4 N3 C5 N1 -174.4(3) . .
C4 N3 C6 N2 174.7(3) . .
C4 C1 C2 C3 -176.7(3) . 3_667
C4 C1 C3 C2 176.7(3) . 3_667
C5 N1 N2 Co2 162.41(19) . 3_566
C5 N1 N2 C6 0.5(3) . .
C5 N3 C4 C1 82.7(4) . .
C5 N3 C6 N2 0.5(3) . .
C6 N3 C4 C1 -90.3(4) . .
C6 N3 C5 N1 -0.2(3) . .
C7 C8 C9 C10 2.1(5) . .
C7 C8 C9 C14 179.3(3) . .
C8 C7 C12 C11 -2.9(4) . .
C8 C7 C13 O1 33.0(4) . .
C8 C7 C13 O2 -148.1(3) . .
C8 C9 C10 C11 -2.2(5) . .
C8 C9 C14 O3 11.7(4) . .
C8 C9 C14 O4 -168.1(3) . .
C9 C10 C11 C12 -0.2(4) . .
C9 C10 C11 C15 176.3(3) . .
C10 C9 C14 O3 -171.2(3) . .
C10 C9 C14 O4 9.1(4) . .
C10 C11 C12 C7 2.8(5) . .
C10 C11 C15 O5 8.0(4) . .
C10 C11 C15 O6 -171.4(3) . .
C12 C7 C8 C9 0.4(4) . .
C12 C7 C13 O1 -145.7(3) . .
C12 C7 C13 O2 33.3(4) . .
C12 C11 C15 O5 -175.5(3) . .
C12 C11 C15 O6 5.0(4) . .
C13 C7 C8 C9 -178.2(3) . .
C13 C7 C12 C11 175.8(3) . .
C14 C9 C10 C11 -179.4(3) . .
C15 C11 C12 C7 -173.7(3) . .
