#------------------------------------------------------------------------------
#$Date: 2016-11-08 21:40:51 +0200 (Tue, 08 Nov 2016) $
#$Revision: 188131 $
#$URL: file:///home/coder/svn-repositories/cod/cif/7/04/05/7040512.cif $
#------------------------------------------------------------------------------
#
# This file is available in the Crystallography Open Database (COD),
# http://www.crystallography.net/
#
# All data on this site have been placed in the public domain by the
# contributors.
#
data_7040512
loop_
_publ_author_name
'Yan, Yang-Tian'
'Zhang, Wen-Yan'
'Wu, Yun-Long'
'Li, Jiang'
'Xi, Zheng-Ping'
'Wang, Yao-Yu'
'Hou, Lei'
_publ_section_title
;
 Four new 3D metal-organic frameworks constructed by the asymmetrical
 pentacarboxylate: gas sorption behaviour and magnetic properties.
;
_journal_issue                   39
_journal_name_full
'Dalton transactions (Cambridge, England : 2003)'
_journal_page_first              15473
_journal_page_last               15480
_journal_paper_doi               10.1039/c6dt02846b
_journal_volume                  45
_journal_year                    2016
_chemical_formula_moiety         'C27 H18 Co2 N O11, C2 H8 N'
_chemical_formula_sum            'C29 H26 Co2 N2 O11'
_chemical_formula_weight         696.38
_space_group_crystal_system      monoclinic
_space_group_IT_number           14
_space_group_name_Hall           '-P 2yn'
_space_group_name_H-M_alt        'P 1 21/n 1'
_symmetry_space_group_name_Hall  '-P 2yn'
_symmetry_space_group_name_H-M   'P 1 21/n 1'
_atom_sites_solution_hydrogens   geom
_atom_sites_solution_primary     dual
_audit_block_doi                 10.5517/ccdc.csd.cc1lj64g
_audit_creation_date             2016-08-17
_audit_creation_method
;
Olex2 1.2-beta
(compiled 2016.07.26 svn.r3321 for OlexSys, GUI svn.r5206)
;
_audit_update_record
;
2016-08-23 deposited with the CCDC.
2016-08-26 downloaded from the CCDC.
;
_cell_angle_alpha                90
_cell_angle_beta                 99.582(4)
_cell_angle_gamma                90
_cell_formula_units_Z            4
_cell_length_a                   10.162(2)
_cell_length_b                   15.986(4)
_cell_length_c                   23.971(6)
_cell_measurement_reflns_used    5989
_cell_measurement_temperature    296.15
_cell_measurement_theta_max      28.215
_cell_measurement_theta_min      2.399
_cell_volume                     3839.8(16)
_computing_cell_refinement       'Bruker SAINT'
_computing_data_collection       'Bruker SAINT'
_computing_data_reduction        'Bruker SAINT'
_computing_molecular_graphics    'Olex2 (Dolomanov et al., 2009)'
_computing_publication_material  'Olex2 (Dolomanov et al., 2009)'
_computing_structure_refinement  'ShelXL (Sheldrick, 2015)'
_computing_structure_solution    'ShelXT (Sheldrick, 2015)'
_diffrn_ambient_temperature      296.15
_diffrn_measured_fraction_theta_full 0.995
_diffrn_measured_fraction_theta_max 0.959
_diffrn_measurement_device_type  'Bruker APEX-II CCD'
_diffrn_measurement_method       '\f and \w scans'
_diffrn_radiation_type           MoK\a
_diffrn_radiation_wavelength     0.71073
_diffrn_reflns_av_R_equivalents  0.0456
_diffrn_reflns_av_unetI/netI     0.0645
_diffrn_reflns_Laue_measured_fraction_full 0.995
_diffrn_reflns_Laue_measured_fraction_max 0.959
_diffrn_reflns_limit_h_max       13
_diffrn_reflns_limit_h_min       -13
_diffrn_reflns_limit_k_max       21
_diffrn_reflns_limit_k_min       -16
_diffrn_reflns_limit_l_max       28
_diffrn_reflns_limit_l_min       -31
_diffrn_reflns_number            23117
_diffrn_reflns_point_group_measured_fraction_full 0.995
_diffrn_reflns_point_group_measured_fraction_max 0.959
_diffrn_reflns_theta_full        25.242
_diffrn_reflns_theta_max         28.422
_diffrn_reflns_theta_min         1.538
_exptl_absorpt_coefficient_mu    0.913
_exptl_absorpt_correction_T_max  0.7457
_exptl_absorpt_correction_T_min  0.5858
_exptl_absorpt_correction_type   multi-scan
_exptl_absorpt_process_details
;
SADABS-2008/1 (Bruker,2008) was used for absorption correction.
wR2(int) was 0.0997 before and 0.0580 after correction.
The Ratio of minimum to maximum transmission is 0.7856.
The \l/2 correction factor is 0.0015.
;
_exptl_crystal_colour            colourless
_exptl_crystal_colour_primary    colourless
_exptl_crystal_density_diffrn    1.205
_exptl_crystal_description       block
_exptl_crystal_F_000             1424
_refine_diff_density_max         1.338
_refine_diff_density_min         -0.735
_refine_diff_density_rms         0.105
_refine_ls_extinction_method     none
_refine_ls_goodness_of_fit_ref   1.047
_refine_ls_hydrogen_treatment    constr
_refine_ls_matrix_type           full
_refine_ls_number_parameters     441
_refine_ls_number_reflns         9276
_refine_ls_number_restraints     107
_refine_ls_restrained_S_all      1.063
_refine_ls_R_factor_all          0.0869
_refine_ls_R_factor_gt           0.0622
_refine_ls_shift/su_max          0.001
_refine_ls_shift/su_mean         0.000
_refine_ls_structure_factor_coef Fsqd
_refine_ls_weighting_details
'w=1/[\s^2^(Fo^2^)+(0.1295P)^2^] where P=(Fo^2^+2Fc^2^)/3'
_refine_ls_weighting_scheme      calc
_refine_ls_wR_factor_gt          0.1857
_refine_ls_wR_factor_ref         0.2023
_reflns_Friedel_coverage         0.000
_reflns_number_gt                6525
_reflns_number_total             9276
_reflns_threshold_expression     'I > 2\s(I)'
_cod_data_source_file            c6dt02846b2.cif
_cod_data_source_block           2_sq
_cod_depositor_comments
;Adding full bibliography for 7040511--7040514.cif.

 Adding full bibliography for 7040511--7040514.cif.
;
_cod_original_cell_volume        3839.6(15)
_cod_database_code               7040512
_shelx_space_group_comment
;
The symmetry employed for this shelxl refinement is uniquely defined
by the following loop, which should always be used as a source of
symmetry information in preference to the above space-group names.
They are only intended as comments.
;
_olex2_refinement_description
;
1. Fixed Uiso
 At 1.2 times of:
  All C(H) groups, All N(H,H) groups
 At 1.5 times of:
  All C(H,H,H) groups, All C(H,H,H,H,H,H) groups
2. Restrained distances
 C24-C25A
 1.5 with sigma of 0.02
 C25-O11
 2.6 with sigma of 0.02
 C28-N2
 1.4 with sigma of 0.02
 N2-C29
 1.4 with sigma of 0.02
 C28-C29
 2.5 with sigma of 0.02
3. Uiso/Uaniso restraints and constraints
Uanis(N2) \\sim Ueq, Uanis(C29) \\sim Ueq: with sigma of 0.01 and sigma for
terminal atoms of 0.01
Uanis(C25) \\sim Ueq, Uanis(C25A) \\sim Ueq: with sigma of 0.01 and sigma for
terminal atoms of 0.01
Uanis(C28) \\sim Ueq: with sigma of 0.01 and sigma for terminal atoms of 0.01
Uanis(C28) \\sim Ueq, Uanis(N2) \\sim Ueq, Uanis(C29) \\sim Ueq: with sigma of
0.01 and sigma for terminal atoms of 0.01
4. Rigid body (RIGU) restrains
 O11, O11A, N1, N1A, C24, C25, C25A, C26, C26A, C27
 with sigma for 1-2 distances of 0.004 and sigma for 1-3 distances of 0.004
 N2, C28, C29
 with sigma for 1-2 distances of 0.004 and sigma for 1-3 distances of 0.004
5. Others
 Sof(O11A)=Sof(C25A)=Sof(H25D)=Sof(H25E)=Sof(H25F)=Sof(C26A)=Sof(H26D)=
 Sof(H26E)=Sof(H26F)=1-FVAR(1)
 Sof(O11)=Sof(C25)=Sof(H25A)=Sof(H25B)=Sof(H25C)=Sof(C26)=Sof(H26A)=Sof(H26B)=
 Sof(H26C)=FVAR(1)
 Sof(N1A)=Sof(H27D)=Sof(H27E)=Sof(H27F)=1-FVAR(2)
 Sof(N1)=Sof(H27A)=Sof(H27B)=Sof(H27C)=FVAR(2)
6.a Secondary CH2 refined with riding coordinates:
 N2(H2A,H2B)
6.b Me refined with riding coordinates:
 C27(H27A,H27B,H27C), C27(H27D,H27E,H27F)
6.c Aromatic/amide H refined with riding coordinates:
 C3(H3), C5(H5), C7(H7), C10(H10), C12(H12), C13(H13), C17(H17), C19(H19),
 C21(H21)
6.d Idealised Me refined as rotating group:
 C25(H25A,H25B,H25C), C25A(H25D,H25E,H25F), C26(H26A,H26B,H26C), C26A(H26D,
 H26E,H26F), C28(H28A,H28B,H28C), C29(H29A,H29B,H29C)
;
_shelx_res_file
;
    2_sq.res created by SHELXL-2014/7

TITL 1 in P2(1)/n
CELL 0.71073 10.1618 15.9859 23.9708 90 99.582 90
ZERR 4 0.0023 0.0037 0.0055 0 0.004 0
LATT 1
SYMM 0.5-X,0.5+Y,0.5-Z
SFAC C H Co N O
UNIT 116 104 8 8 44
DFIX 1.5 C24 C25A
DFIX 2.6 C25 O11
DFIX 1.4 C28 N2
DFIX 1.4 N2 C29
DFIX 2.5 C28 C29
RIGU O11 O11A N1 N1A C24 C25 C25A C26 C26A C27
RIGU N2 C28 C29
ISOR 0.01 0.01 N2 C29
ISOR 0.01 0.01 C25 C25A
ISOR 0.01 0.01 C28
ISOR 0.01 0.01 C28 N2 C29

L.S. 20 0 80
PLAN  30
TEMP 23
BOND
ABIN
fmap 2
acta
OMIT -1 1 4
OMIT 6 1 9
OMIT -1 1 3
REM <olex2.extras>
REM <HklSrc "%.\\2_sq.hkl">
REM </olex2.extras>

WGHT    0.129500
FVAR       0.10104   0.59778   0.59176
CO1   3    1.168997    0.498251    0.665785    11.00000    0.02763    0.02123 =
         0.03430    0.00239    0.01492   -0.00093
CO2   3    0.986484    0.611510    0.754499    11.00000    0.04505    0.02308 =
         0.03048   -0.00135    0.01920    0.00310
O1    5    0.995086    0.444221    0.638997    11.00000    0.02400    0.04601 =
         0.08611   -0.01048    0.01961   -0.01109
O2    5    0.904947    0.527321    0.695283    11.00000    0.04967    0.05356 =
         0.06216   -0.02566    0.00925   -0.02000
O3    5    0.406437    0.525903    0.680265    11.00000    0.04440    0.04867 =
         0.07603   -0.02304    0.02250    0.00558
O4    5    0.293724    0.429294    0.629220    11.00000    0.02524    0.05097 =
         0.05340   -0.01086    0.01661    0.00366
O5    5    0.486599    0.179738    0.666291    11.00000    0.09848    0.03368 =
         0.04925    0.00467    0.04550    0.00516
O6    5    0.646352    0.089271    0.684793    11.00000    0.07827    0.06678 =
         0.04871    0.01779    0.03442    0.00882
O7    5    0.613431   -0.024421    0.302581    11.00000    0.08263    0.02661 =
         0.03655   -0.00778    0.02080   -0.01911
O8    5    0.706784    0.048858    0.242081    11.00000    0.07877    0.05637 =
         0.03886   -0.01850    0.03508   -0.03497
O9    5    0.861352    0.331988    0.280785    11.00000    0.07371    0.03669 =
         0.03316    0.00247    0.02367   -0.02546
O10   5    0.853297    0.387310    0.365271    11.00000    0.05300    0.02091 =
         0.03962    0.00187    0.01444   -0.00336
PART 1
O11   5    0.834189    0.686506    0.710407    21.00000    0.05975    0.04215 =
         0.06805    0.00416    0.00448    0.02517
PART 0
PART 2
O11A  5    0.905447    0.724081    0.720601   -21.00000    0.08282    0.06749 =
         0.08684    0.02065    0.02428    0.03412
PART 0
PART 1
N1    4    0.692217    0.788753    0.686552    31.00000    0.08351    0.07609 =
         0.16177    0.00800   -0.02097    0.03355
PART 0
PART 2
N1A   4    0.775068    0.835490    0.703523   -31.00000    0.07665    0.05641 =
         0.06336   -0.00882    0.00616    0.02772
PART 0
C1    1    0.898669    0.469716    0.660708    11.00000    0.03018    0.03005 =
         0.04081    0.00501    0.00680   -0.00736
C2    1    0.767085    0.426331    0.644466    11.00000    0.02227    0.02846 =
         0.03327   -0.00352    0.00908   -0.00687
C3    1    0.762268    0.349616    0.616883    11.00000    0.03028    0.02580 =
         0.03634   -0.00029    0.01699    0.00069
AFIX  43
H3    2    0.840475    0.325719    0.608891    11.00000   -1.20000
AFIX   0
C4    1    0.641292    0.308378    0.601163    11.00000    0.03588    0.02616 =
         0.02505   -0.00230    0.01649   -0.00481
C5    1    0.524911    0.345920    0.612327    11.00000    0.02516    0.02738 =
         0.03202   -0.00316    0.01220   -0.00535
AFIX  43
H5    2    0.443441    0.319017    0.601725    11.00000   -1.20000
AFIX   0
C6    1    0.529043    0.422869    0.639040    11.00000    0.02810    0.03273 =
         0.03129   -0.00057    0.01492    0.00108
C7    1    0.651031    0.462033    0.656241    11.00000    0.03747    0.02167 =
         0.03456   -0.00685    0.01471   -0.00172
AFIX  43
H7    2    0.654583    0.512479    0.675759    11.00000   -1.20000
AFIX   0
C8    1    0.403215    0.462791    0.650846    11.00000    0.03238    0.04203 =
         0.03721   -0.00027    0.01651    0.00310
C9    1    0.638750    0.227328    0.569478    11.00000    0.04171    0.02142 =
         0.03363   -0.00472    0.01845   -0.00765
C10   1    0.672057    0.229351    0.515893    11.00000    0.05024    0.02437 =
         0.03290   -0.00216    0.02124   -0.00963
AFIX  43
H10   2    0.690252    0.280913    0.500900    11.00000   -1.20000
AFIX   0
C11   1    0.679665    0.158607    0.483502    11.00000    0.06360    0.02548 =
         0.03702   -0.00751    0.02801   -0.01239
C12   1    0.657226    0.082099    0.507868    11.00000    0.11447    0.02558 =
         0.04582   -0.00790    0.04450   -0.01030
AFIX  43
H12   2    0.664100    0.033004    0.487738    11.00000   -1.20000
AFIX   0
C13   1    0.624892    0.077941    0.561505    11.00000    0.12598    0.02328 =
         0.05221   -0.00064    0.05338   -0.01151
AFIX  43
H13   2    0.609810    0.026074    0.576843    11.00000   -1.20000
AFIX   0
C14   1    0.614546    0.149629    0.592824    11.00000    0.07127    0.02979 =
         0.03966   -0.00427    0.03540   -0.01140
C15   1    0.579690    0.139297    0.652173    11.00000    0.07150    0.02658 =
         0.04332   -0.00435    0.03555   -0.01368
C16   1    0.710893    0.164905    0.424568    11.00000    0.05251    0.02296 =
         0.03541   -0.00482    0.02485   -0.00954
C17   1    0.764054    0.238354    0.405926    11.00000    0.05804    0.02189 =
         0.03496   -0.00573    0.02138   -0.01080
AFIX  43
H17   2    0.781838    0.283117    0.430820    11.00000   -1.20000
AFIX   0
C18   1    0.791184    0.246466    0.351131    11.00000    0.03741    0.02235 =
         0.03476    0.00168    0.01546   -0.00518
C19   1    0.764983    0.178901    0.314128    11.00000    0.04367    0.02556 =
         0.02942   -0.00183    0.01785   -0.00698
AFIX  43
H19   2    0.784044    0.183100    0.277606    11.00000   -1.20000
AFIX   0
C20   1    0.710968    0.105766    0.331208    11.00000    0.04129    0.02164 =
         0.02978   -0.00276    0.01732   -0.00243
C21   1    0.683599    0.098904    0.385969    11.00000    0.05295    0.01932 =
         0.03798   -0.00295    0.02458   -0.01122
AFIX  43
H21   2    0.646590    0.049711    0.397128    11.00000   -1.20000
AFIX   0
C22   1    0.839807    0.327247    0.330555    11.00000    0.03796    0.02348 =
         0.03901    0.00050    0.01269   -0.00474
C23   1    0.673916    0.036830    0.288806    11.00000    0.03913    0.02457 =
         0.03159   -0.00605    0.01526   -0.00448
C24   1    0.797372    0.758453    0.710367    11.00000    0.08329    0.05643 =
         0.06904   -0.00077    0.01498    0.02790
PART 1
C25   1    0.596765    0.727482    0.662476    21.00000    0.14277    0.14715 =
         0.18509   -0.01366   -0.00038   -0.01565
AFIX 137
H25A  2    0.633569    0.672543    0.670060    21.00000   -1.50000
H25B  2    0.575468    0.735869    0.622329    21.00000   -1.50000
H25C  2    0.517212    0.732920    0.678883    21.00000   -1.50000
AFIX   0
PART 0
PART 2
C25A  1    0.668120    0.711957    0.717775   -21.00000    0.10561    0.10643 =
         0.12546    0.01111    0.01851    0.00327
AFIX 137
H25D  2    0.646150    0.671736    0.687939   -21.00000   -1.50000
H25E  2    0.596500    0.751473    0.716352   -21.00000   -1.50000
H25F  2    0.681393    0.683771    0.753637   -21.00000   -1.50000
AFIX   0
PART 0
PART 1
C26   1    0.914078    0.822552    0.731428    21.00000    0.07627    0.05510 =
         0.07667   -0.00334   -0.00611    0.02280
AFIX 137
H26A  2    0.931170    0.823562    0.772035    21.00000   -1.50000
H26B  2    0.888373    0.877412    0.717368    21.00000   -1.50000
H26C  2    0.993382    0.805508    0.717639    21.00000   -1.50000
AFIX   0
PART 0
PART 2
C26A  1    0.914831    0.875217    0.705390   -21.00000    0.09607    0.09312 =
         0.11479    0.00009    0.01879    0.00506
AFIX 137
H26D  2    0.981345    0.831997    0.709800   -21.00000   -1.50000
H26E  2    0.932492    0.913266    0.736728   -21.00000   -1.50000
H26F  2    0.917240    0.904999    0.670798   -21.00000   -1.50000
AFIX   0
PART 0
C27   1    0.654788    0.880168    0.693003    11.00000    0.09267    0.08875 =
         0.19380   -0.00241   -0.01528    0.05096
PART 1
AFIX  33
H27A  2    0.568666    0.890786    0.670870    31.00000   -1.50000
H27B  2    0.652076    0.891831    0.732082    31.00000   -1.50000
H27C  2    0.720049    0.915459    0.680120    31.00000   -1.50000
AFIX  33
PART 0
PART 2
H27D  2    0.673415    0.938714    0.689973   -31.00000   -1.50000
H27E  2    0.602512    0.860992    0.658284   -31.00000   -1.50000
H27F  2    0.606064    0.871397    0.723548   -31.00000   -1.50000
AFIX   0

PART 0
N2    4    0.673072    0.337815    0.159576    11.00000    0.19015    0.15729 =
         0.23455   -0.01992   -0.00287   -0.03746
AFIX  23
H2A   2    0.667214    0.354677    0.123863    11.00000   -1.20000
H2B   2    0.753444    0.351959    0.177930    11.00000   -1.20000
AFIX   0
C28   1    0.561708    0.384249    0.187856    11.00000    0.23256    0.24301 =
         0.28994   -0.05466    0.01822   -0.01813
AFIX 137
H28A  2    0.502298    0.413967    0.159284    11.00000   -1.50000
H28B  2    0.603701    0.423001    0.215877    11.00000   -1.50000
H28C  2    0.512133    0.343711    0.205420    11.00000   -1.50000
AFIX   0
C29   1    0.659291    0.250300    0.160727    11.00000    0.17091    0.12829 =
         0.15489   -0.00515    0.00062   -0.00706
AFIX 137
H29A  2    0.591009    0.232999    0.130293    11.00000   -1.50000
H29B  2    0.635087    0.233695    0.196152    11.00000   -1.50000
H29C  2    0.742371    0.224482    0.156519    11.00000   -1.50000
AFIX   0
HKLF 4

REM  1 in P2(1)/n
REM R1 =  0.0622 for    6525 Fo > 4sig(Fo)  and  0.0869 for all    9276 data
REM    441 parameters refined using    107 restraints

END

WGHT      0.1295      0.0000

REM Highest difference peak  1.338,  deepest hole -0.735,  1-sigma level  0.105
Q1    1   0.4307  0.4479  0.2062  11.00000  0.05    1.34
Q2    1   1.1794  0.5168  0.6938  11.00000  0.05    1.25
Q3    1   1.0556  0.6415  0.7710  11.00000  0.05    1.11
Q4    1   1.2128  0.4639  0.6810  11.00000  0.05    0.66
Q5    1   0.8506  0.3962  0.3997  11.00000  0.05    0.60
Q6    1   0.8230  0.4413  0.6522  11.00000  0.05    0.60
Q7    1   0.8221  0.3626  0.2997  11.00000  0.05    0.56
Q8    1   0.9264  0.5602  0.7202  11.00000  0.05    0.50
Q9    1   0.7527  0.2215  0.3356  11.00000  0.05    0.48
Q10   1   0.6993  0.4166  0.1011  11.00000  0.05    0.47
Q11   1   0.6083  0.3797  0.1003  11.00000  0.05    0.47
Q12   1   0.8579  0.5593  0.6879  11.00000  0.05    0.46
Q13   1   0.6782  0.3974  0.0950  11.00000  0.05    0.46
Q14   1   0.9572  0.5849  0.7159  11.00000  0.05    0.46
Q15   1   0.5813  0.7235  0.6941  11.00000  0.05    0.46
Q16   1   0.9054  0.6440  0.7371  11.00000  0.05    0.46
Q17   1   0.7950  0.2815  0.1742  11.00000  0.05    0.44
Q18   1   0.9172  0.4970  0.6897  11.00000  0.05    0.40
Q19   1   0.5571  0.0035  0.2863  11.00000  0.05    0.40
Q20   1   0.7142  0.0992  0.3583  11.00000  0.05    0.40
Q21   1   0.6929  0.1615  0.4603  11.00000  0.05    0.39
Q22   1   0.6128  0.1986  0.5777  11.00000  0.05    0.38
Q23   1   0.8812  0.8967  0.6924  11.00000  0.05    0.38
Q24   1   0.5821  0.3186  0.6117  11.00000  0.05    0.37
Q25   1   0.4359  0.5328  0.6925  11.00000  0.05    0.37
Q26   1   0.8091  0.3801  0.6497  11.00000  0.05    0.37
Q27   1   0.8698  0.7120  0.7017  11.00000  0.05    0.37
Q28   1   1.0234  0.4326  0.6290  11.00000  0.05    0.36
Q29   1   0.2976  0.3835  0.6556  11.00000  0.05    0.35
Q30   1   0.6623  0.0597  0.2495  11.00000  0.05    0.35
;
_shelx_res_checksum              64896
_shelx_fab_checksum              61173
_shelx_fab_file
;
    2    0    0     -3.09      0.00
    6    0    0      2.45      0.00
    8    0    0     -1.15      0.00
   10    0    0     -0.08      0.00
    1    1    0     49.47      0.00
    2    1    0    -40.60      0.00
    3    1    0      7.26      0.00
    4    1    0     -1.08      0.00
    5    1    0     -0.34      0.00
    6    1    0      1.12      0.00
    7    1    0      0.99      0.00
    8    1    0     -0.40      0.00
    9    1    0      0.47      0.00
   10    1    0     -0.34      0.00
   11    1    0     -0.68      0.00
   12    1    0     -0.53      0.00
    0    2    0     25.55      0.00
    2    2    0     30.65      0.00
    3    2    0      3.27      0.00
    4    2    0     -1.01      0.00
    5    2    0     -0.16      0.00
    6    2    0     -0.34      0.00
    7    2    0      0.49      0.00
    8    2    0      0.82      0.00
    9    2    0     -1.51      0.00
   10    2    0     -0.59      0.00
   11    2    0     -0.94      0.00
   12    2    0      0.29      0.00
    1    3    0     30.66      0.00
    2    3    0    -11.97      0.00
    3    3    0      1.49      0.00
    4    3    0     -4.25      0.00
    5    3    0      4.30      0.00
    6    3    0      0.18      0.00
    7    3    0      0.93      0.00
    8    3    0      0.43      0.00
    9    3    0     -1.72      0.00
   10    3    0     -0.47      0.00
   11    3    0      1.75      0.00
   12    3    0      0.31      0.00
    0    4    0     -5.49      0.00
    1    4    0     -1.36      0.00
    2    4    0      7.27      0.00
    3    4    0    -15.20      0.00
    4    4    0      0.83      0.00
    5    4    0      0.31      0.00
    6    4    0      1.03      0.00
    7    4    0      0.24      0.00
    8    4    0      0.75      0.00
    9    4    0      0.54      0.00
   10    4    0      1.64      0.00
   11    4    0      0.74      0.00
   12    4    0     -1.14      0.00
   13    4    0     -4.42      0.00
    1    5    0     -3.08      0.00
    2    5    0     -6.92      0.00
    3    5    0      8.39      0.00
    4    5    0     -2.12      0.00
    5    5    0      1.07      0.00
    6    5    0      0.22      0.00
    7    5    0     -0.48      0.00
    8    5    0      0.81      0.00
    9    5    0      0.71      0.00
   10    5    0      0.68      0.00
   11    5    0     -2.38      0.00
   12    5    0     -2.14      0.00
   13    5    0      0.44      0.00
    0    6    0     -0.47      0.00
    1    6    0     -4.22      0.00
    2    6    0     -3.96      0.00
    3    6    0     -4.80      0.00
    4    6    0      3.08      0.00
    5    6    0     -0.27      0.00
    6    6    0      1.48      0.00
    7    6    0     -0.16      0.00
    8    6    0     -0.56      0.00
    9    6    0      1.35      0.00
   10    6    0     -1.19      0.00
   11    6    0      1.21      0.00
   12    6    0      0.76      0.00
    1    7    0     -5.15      0.00
    2    7    0      1.35      0.00
    3    7    0      0.35      0.00
    4    7    0     -4.06      0.00
    5    7    0      0.91      0.00
    6    7    0      0.16      0.00
    7    7    0     -2.07      0.00
    8    7    0     -0.27      0.00
    9    7    0      0.42      0.00
   10    7    0      0.18      0.00
   11    7    0     -0.87      0.00
   12    7    0     -0.85      0.00
    0    8    0     -8.35      0.00
    1    8    0     -0.28      0.00
    2    8    0      0.81      0.00
    3    8    0      1.27      0.00
    4    8    0     -0.11      0.00
    5    8    0      0.91      0.00
    6    8    0      0.25      0.00
    7    8    0      0.28      0.00
    8    8    0     -0.92      0.00
    9    8    0     -0.85      0.00
   10    8    0      1.68      0.00
   11    8    0      0.98      0.00
   12    8    0      0.43      0.00
    1    9    0      0.16      0.00
    2    9    0      1.32      0.00
    3    9    0     -3.28      0.00
    4    9    0     -0.67      0.00
    5    9    0      0.14      0.00
    6    9    0     -0.70      0.00
    7    9    0     -0.61      0.00
    8    9    0     -0.18      0.00
    9    9    0     -0.48      0.00
   10    9    0     -1.18      0.00
   11    9    0      1.33      0.00
   12    9    0      0.92      0.00
    0   10    0      1.40      0.00
    1   10    0      1.05      0.00
    2   10    0     -0.73      0.00
    3   10    0      0.68      0.00
    4   10    0     -0.23      0.00
    5   10    0     -0.05      0.00
    6   10    0     -0.32      0.00
    7   10    0      0.50      0.00
    8   10    0      0.64      0.00
    9   10    0     -1.08      0.00
   10   10    0      0.04      0.00
   11   10    0     -1.96      0.00
    1   11    0      0.13      0.00
    2   11    0     -1.46      0.00
    3   11    0     -0.42      0.00
    4   11    0      1.63      0.00
    5   11    0      0.33      0.00
    6   11    0     -0.03      0.00
    7   11    0      0.44      0.00
    8   11    0      0.28      0.00
    9   11    0     -0.30      0.00
   10   11    0     -1.32      0.00
   11   11    0      1.08      0.00
    0   12    0      1.24      0.00
    1   12    0      0.60      0.00
    2   12    0      0.16      0.00
    3   12    0      0.19      0.00
    4   12    0     -0.42      0.00
    5   12    0      0.84      0.00
    6   12    0      0.95      0.00
    7   12    0      0.03      0.00
    8   12    0     -0.88      0.00
    9   12    0     -1.51      0.00
   10   12    0     -1.29      0.00
   11   12    0     -0.47      0.00
    1   13    0      0.76      0.00
    2   13    0      0.40      0.00
    3   13    0      0.57      0.00
    4   13    0      0.65      0.00
    5   13    0     -0.59      0.00
    6   13    0      1.13      0.00
    7   13    0      0.18      0.00
    8   13    0     -0.68      0.00
    9   13    0     -0.07      0.00
   10   13    0     -0.42      0.00
    0   14    0     -0.05      0.00
    1   14    0     -0.94      0.00
    2   14    0     -0.81      0.00
    3   14    0      0.42      0.00
    4   14    0      0.63      0.00
    5   14    0      0.67      0.00
    6   14    0     -0.96      0.00
    7   14    0      1.23      0.00
    8   14    0      0.80      0.00
    9   14    0     -1.04      0.00
   10   14    0      1.15      0.00
    1   15    0     -0.53      0.00
    2   15    0     -0.92      0.00
    3   15    0     -0.99      0.00
    4   15    0      0.45      0.00
    5   15    0      1.36      0.00
    6   15    0     -0.29      0.00
    7   15    0     -0.25      0.00
    8   15    0     -0.31      0.00
    9   15    0      1.57      0.00
    0   16    0      0.10      0.00
    1   16    0     -2.16      0.00
    2   16    0     -0.55      0.00
    3   16    0      0.77      0.00
    4   16    0      0.99      0.00
    5   16    0     -0.28      0.00
    6   16    0      1.43      0.00
    7   16    0     -1.08      0.00
    8   16    0      0.21      0.00
    1   17    0      0.92      0.00
    2   17    0      0.24      0.00
    3   17    0     -0.28      0.00
    4   17    0      0.55      0.00
    5   17    0     -0.88      0.00
    6   17    0     -0.67      0.00
    7   17    0      1.15      0.00
    8   17    0      1.28      0.00
    0   18    0      0.14      0.00
    1   18    0     -1.59      0.00
    2   18    0     -0.34      0.00
    3   18    0     -0.35      0.00
    4   18    0      1.18      0.00
    5   18    0      1.47      0.00
    6   18    0     -1.07      0.00
    7   18    0     -0.31      0.00
    1   19    0     -0.16      0.00
    2   19    0     -0.60      0.00
    3   19    0      3.14      0.00
    4   19    0      0.60      0.00
    5   19    0      1.01      0.00
    6   19    0     -0.75      0.00
    0   20    0     -0.73      0.00
    1   20    0     -2.40      0.00
    2   20    0      0.78      0.00
    3   20    0      0.45      0.00
    1   21    0      1.16      0.00
    2   21    0      0.94      0.00
  -11    0    1      0.93      0.00
   -9    0    1     -0.18      0.00
   -7    0    1     -1.30      0.00
   -5    0    1     -3.97      0.00
   -3    0    1      3.56      0.00
   -1    0    1    -59.76      0.00
    3    0    1      0.64      0.00
    5    0    1     -2.64      0.00
    7    0    1     -2.26      0.00
    9    0    1      0.78      0.00
   11    0    1     -1.38      0.00
  -11    1    1     -3.46      0.00
  -10    1    1     -1.00      0.00
   -9    1    1     -0.11      0.00
   -8    1    1     -0.58      0.00
   -7    1    1     -0.93      0.00
   -6    1    1     -1.98      0.00
   -5    1    1      0.75      0.00
   -4    1    1     -4.78      0.00
   -3    1    1      2.37      0.00
   -2    1    1     -3.95      0.00
   -1    1    1    -94.29      0.00
    0    1    1     32.55      0.00
    1    1    1     98.55      0.00
    2    1    1     -5.29      0.00
    3    1    1      2.97      0.00
    4    1    1     -9.90      0.00
    5    1    1      0.35      0.00
    6    1    1     -2.25      0.00
    7    1    1      0.44      0.00
    8    1    1     -0.01      0.00
    9    1    1     -0.98      0.00
   10    1    1     -1.04      0.00
   11    1    1      4.23      0.00
   12    1    1      0.54      0.00
  -11    2    1     -0.48      0.00
  -10    2    1     -2.44      0.00
   -9    2    1     -1.20      0.00
   -8    2    1      0.91      0.00
   -7    2    1     -0.60      0.00
   -6    2    1      3.35      0.00
   -5    2    1     -1.43      0.00
   -4    2    1     -0.76      0.00
   -3    2    1     -8.14      0.00
   -2    2    1     -5.58      0.00
    0    2    1     14.24      0.00
    1    2    1     11.54      0.00
    2    2    1      1.66      0.00
    3    2    1    -10.10      0.00
    4    2    1      1.33      0.00
    5    2    1     -3.63      0.00
    6    2    1     -2.17      0.00
    7    2    1     -0.74      0.00
    8    2    1     -1.43      0.00
    9    2    1     -0.64      0.00
   10    2    1      2.14      0.00
   11    2    1     -0.45      0.00
   12    2    1      2.59      0.00
  -12    3    1     -0.41      0.00
  -11    3    1     -2.52      0.00
  -10    3    1     -0.81      0.00
   -9    3    1      0.27      0.00
   -8    3    1      1.96      0.00
   -7    3    1      1.20      0.00
   -6    3    1     -1.12      0.00
   -5    3    1     -2.88      0.00
   -4    3    1     -3.46      0.00
   -3    3    1     -7.14      0.00
   -2    3    1    -23.48      0.00
   -1    3    1     -8.72      0.00
    0    3    1     16.35      0.00
    1    3    1     16.78      0.00
    2    3    1    -25.55      0.00
    3    3    1      6.88      0.00
    4    3    1     -0.54      0.00
    5    3    1      2.13      0.00
    6    3    1     -1.60      0.00
    7    3    1     -0.35      0.00
    8    3    1      0.80      0.00
    9    3    1     -0.49      0.00
   10    3    1      0.02      0.00
   11    3    1      0.97      0.00
   12    3    1     -1.86      0.00
   13    3    1     -0.28      0.00
  -12    4    1     -4.70      0.00
  -11    4    1     -0.58      0.00
  -10    4    1      0.80      0.00
   -9    4    1     -0.44      0.00
   -8    4    1     -0.78      0.00
   -7    4    1     -0.14      0.00
   -6    4    1     -0.54      0.00
   -5    4    1     -3.72      0.00
   -4    4    1      1.30      0.00
   -3    4    1     -6.29      0.00
   -2    4    1    -13.50      0.00
   -1    4    1     -0.73      0.00
    0    4    1      1.84      0.00
    1    4    1      3.84      0.00
    2    4    1     16.05      0.00
    3    4    1     -5.59      0.00
    4    4    1     -2.49      0.00
    5    4    1     -3.62      0.00
    6    4    1      0.70      0.00
    7    4    1      0.05      0.00
    8    4    1      0.23      0.00
    9    4    1      0.90      0.00
   10    4    1     -1.72      0.00
   11    4    1     -0.09      0.00
   12    4    1      4.92      0.00
   13    4    1      0.72      0.00
  -13    5    1      1.57      0.00
  -12    5    1      0.95      0.00
  -11    5    1     -2.19      0.00
  -10    5    1      0.58      0.00
   -9    5    1      2.47      0.00
   -8    5    1      0.37      0.00
   -7    5    1      3.26      0.00
   -6    5    1     -2.55      0.00
   -5    5    1     -1.07      0.00
   -4    5    1     -7.58      0.00
   -3    5    1     -5.92      0.00
   -2    5    1     -3.85      0.00
   -1    5    1      9.55      0.00
    0    5    1      2.03      0.00
    1    5    1     -5.97      0.00
    2    5    1     -2.37      0.00
    3    5    1      1.84      0.00
    4    5    1     -7.95      0.00
    5    5    1      0.96      0.00
    6    5    1     -1.94      0.00
    7    5    1     -1.57      0.00
    8    5    1      1.12      0.00
    9    5    1     -3.16      0.00
   10    5    1      0.79      0.00
   11    5    1      2.03      0.00
   12    5    1      2.37      0.00
  -12    6    1      1.90      0.00
  -11    6    1      0.89      0.00
  -10    6    1      0.60      0.00
   -9    6    1      0.83      0.00
   -8    6    1      1.69      0.00
   -7    6    1      0.01      0.00
   -6    6    1     -0.08      0.00
   -5    6    1     -2.20      0.00
   -4    6    1     -2.79      0.00
   -3    6    1     -7.14      0.00
   -2    6    1     -1.34      0.00
   -1    6    1      3.87      0.00
    0    6    1      1.27      0.00
    1    6    1      1.91      0.00
    2    6    1     -0.37      0.00
    3    6    1     -6.37      0.00
    4    6    1      1.40      0.00
    5    6    1     -1.73      0.00
    6    6    1     -0.30      0.00
    7    6    1      1.22      0.00
    8    6    1      0.07      0.00
    9    6    1      0.58      0.00
   10    6    1     -1.79      0.00
   11    6    1      1.92      0.00
   12    6    1     -2.90      0.00
  -12    7    1      0.26      0.00
  -11    7    1     -0.18      0.00
  -10    7    1      1.09      0.00
   -9    7    1      0.40      0.00
   -8    7    1     -0.61      0.00
   -7    7    1     -0.23      0.00
   -6    7    1     -0.83      0.00
   -5    7    1     -1.40      0.00
   -4    7    1     -4.30      0.00
   -3    7    1      2.62      0.00
   -2    7    1      2.45      0.00
   -1    7    1      0.63      0.00
    0    7    1      2.05      0.00
    1    7    1     -0.61      0.00
    2    7    1      0.01      0.00
    3    7    1     -2.77      0.00
    4    7    1     -3.39      0.00
    5    7    1      0.24      0.00
    6    7    1     -1.56      0.00
    7    7    1     -0.08      0.00
    8    7    1      0.38      0.00
    9    7    1      0.22      0.00
   10    7    1      1.83      0.00
   11    7    1     -1.23      0.00
   12    7    1      0.25      0.00
  -12    8    1      1.52      0.00
  -11    8    1      0.39      0.00
  -10    8    1     -0.49      0.00
   -9    8    1     -1.67      0.00
   -8    8    1      1.01      0.00
   -7    8    1      0.26      0.00
   -6    8    1     -0.35      0.00
   -5    8    1     -2.76      0.00
   -4    8    1      0.24      0.00
   -3    8    1      0.54      0.00
   -2    8    1      4.69      0.00
   -1    8    1      1.36      0.00
    0    8    1     -0.91      0.00
    1    8    1      1.05      0.00
    2    8    1     -3.85      0.00
    3    8    1     -0.98      0.00
    4    8    1     -0.82      0.00
    5    8    1     -2.17      0.00
    6    8    1      0.71      0.00
    7    8    1      0.97      0.00
    8    8    1     -2.19      0.00
    9    8    1     -0.99      0.00
   10    8    1      0.30      0.00
   11    8    1      0.68      0.00
   12    8    1     -2.81      0.00
  -12    9    1      0.24      0.00
  -11    9    1     -0.42      0.00
  -10    9    1     -1.10      0.00
   -9    9    1      0.09      0.00
   -8    9    1      0.13      0.00
   -7    9    1     -1.90      0.00
   -6    9    1      1.25      0.00
   -5    9    1     -1.12      0.00
   -4    9    1     -0.14      0.00
   -3    9    1      1.03      0.00
   -2    9    1      1.72      0.00
   -1    9    1      3.77      0.00
    0    9    1     -1.06      0.00
    1    9    1     -4.32      0.00
    2    9    1      0.15      0.00
    3    9    1      0.04      0.00
    4    9    1     -0.59      0.00
    5    9    1      0.34      0.00
    6    9    1      1.11      0.00
    7    9    1      2.61      0.00
    8    9    1      0.76      0.00
    9    9    1     -0.31      0.00
   10    9    1     -1.39      0.00
   11    9    1      0.18      0.00
   12    9    1      0.77      0.00
  -11   10    1     -0.44      0.00
  -10   10    1     -0.93      0.00
   -9   10    1     -0.50      0.00
   -8   10    1     -0.39      0.00
   -7   10    1      0.32      0.00
   -6   10    1     -1.72      0.00
   -5   10    1     -0.57      0.00
   -4   10    1      0.79      0.00
   -3   10    1      2.64      0.00
   -2   10    1     -0.59      0.00
   -1   10    1     -0.95      0.00
    0   10    1     -1.13      0.00
    1   10    1     -1.23      0.00
    2   10    1      0.32      0.00
    3   10    1      1.53      0.00
    4   10    1     -0.40      0.00
    5   10    1     -0.77      0.00
    6   10    1      0.55      0.00
    7   10    1     -0.14      0.00
    8   10    1     -0.56      0.00
    9   10    1     -0.02      0.00
   10   10    1      1.46      0.00
   11   10    1      0.04      0.00
  -11   11    1     -0.85      0.00
  -10   11    1     -0.61      0.00
   -9   11    1      0.41      0.00
   -8   11    1     -0.36      0.00
   -7   11    1      0.18      0.00
   -6   11    1      0.96      0.00
   -5   11    1     -0.68      0.00
   -4   11    1      1.59      0.00
   -3   11    1      0.34      0.00
   -2   11    1      1.08      0.00
   -1   11    1     -2.00      0.00
    0   11    1     -1.31      0.00
    1   11    1     -0.17      0.00
    2   11    1      1.31      0.00
    3   11    1      0.07      0.00
    4   11    1      0.95      0.00
    5   11    1      0.95      0.00
    6   11    1      0.30      0.00
    7   11    1     -0.75      0.00
    8   11    1     -0.53      0.00
    9   11    1     -0.78      0.00
   10   11    1      0.21      0.00
   11   11    1      1.02      0.00
  -11   12    1     -1.15      0.00
  -10   12    1      0.73      0.00
   -9   12    1      0.16      0.00
   -8   12    1     -0.29      0.00
   -7   12    1     -0.48      0.00
   -6   12    1     -0.02      0.00
   -5   12    1      1.25      0.00
   -4   12    1      1.27      0.00
   -3   12    1      0.13      0.00
   -2   12    1     -0.98      0.00
   -1   12    1      0.55      0.00
    0   12    1     -0.05      0.00
    1   12    1      0.87      0.00
    2   12    1      0.17      0.00
    3   12    1     -0.09      0.00
    4   12    1     -0.53      0.00
    5   12    1      1.04      0.00
    6   12    1      0.54      0.00
    7   12    1     -0.99      0.00
    8   12    1     -0.08      0.00
    9   12    1      0.51      0.00
   10   12    1     -0.42      0.00
  -10   13    1     -0.25      0.00
   -9   13    1      1.83      0.00
   -8   13    1     -1.05      0.00
   -7   13    1      0.31      0.00
   -6   13    1      0.75      0.00
   -5   13    1      1.18      0.00
   -4   13    1      1.46      0.00
   -3   13    1      0.01      0.00
   -2   13    1      0.04      0.00
   -1   13    1     -0.90      0.00
    0   13    1     -1.39      0.00
    1   13    1      0.44      0.00
    2   13    1      0.77      0.00
    3   13    1      1.10      0.00
    4   13    1      0.65      0.00
    5   13    1     -0.56      0.00
    6   13    1      0.60      0.00
    7   13    1      0.67      0.00
    8   13    1     -1.75      0.00
    9   13    1      0.30      0.00
   10   13    1      0.49      0.00
  -10   14    1      1.90      0.00
   -9   14    1     -1.11      0.00
   -8   14    1     -0.02      0.00
   -7   14    1     -0.06      0.00
   -6   14    1      1.18      0.00
   -5   14    1      1.18      0.00
   -4   14    1     -0.94      0.00
   -3   14    1      0.51      0.00
   -2   14    1     -0.55      0.00
   -1   14    1     -0.33      0.00
    0   14    1     -0.20      0.00
    1   14    1      0.16      0.00
    2   14    1      0.76      0.00
    3   14    1      0.66      0.00
    4   14    1      0.40      0.00
    5   14    1     -0.15      0.00
    6   14    1     -0.65      0.00
    7   14    1      0.03      0.00
    8   14    1      0.51      0.00
    9   14    1     -1.18      0.00
   10   14    1     -1.49      0.00
   -9   15    1     -0.40      0.00
   -8   15    1     -0.24      0.00
   -7   15    1      0.50      0.00
   -6   15    1     -0.82      0.00
   -5   15    1     -0.36      0.00
   -4   15    1     -0.47      0.00
   -3   15    1     -0.84      0.00
   -2   15    1     -0.04      0.00
   -1   15    1     -0.27      0.00
    0   15    1     -0.48      0.00
    1   15    1     -0.16      0.00
    2   15    1      0.07      0.00
    3   15    1      0.26      0.00
    4   15    1      0.05      0.00
    5   15    1      0.41      0.00
    6   15    1     -1.29      0.00
    7   15    1     -0.35      0.00
    8   15    1      0.22      0.00
    9   15    1      1.13      0.00
   -8   16    1      1.14      0.00
   -7   16    1      0.24      0.00
   -6   16    1     -0.33      0.00
   -5   16    1     -1.73      0.00
   -4   16    1      0.41      0.00
   -3   16    1     -0.89      0.00
   -2   16    1     -0.22      0.00
   -1   16    1      0.59      0.00
    0   16    1     -0.27      0.00
    1   16    1      0.23      0.00
    2   16    1      0.90      0.00
    3   16    1     -0.57      0.00
    4   16    1     -1.47      0.00
    5   16    1     -1.00      0.00
    6   16    1      0.16      0.00
    7   16    1     -1.75      0.00
    8   16    1      0.07      0.00
   -8   17    1     -0.72      0.00
   -7   17    1      0.59      0.00
   -6   17    1     -1.21      0.00
   -5   17    1      1.00      0.00
   -4   17    1      0.76      0.00
   -3   17    1     -0.07      0.00
   -2   17    1     -0.22      0.00
   -1   17    1      0.76      0.00
    0   17    1     -0.71      0.00
    1   17    1     -0.13      0.00
    2   17    1     -1.05      0.00
    3   17    1     -0.21      0.00
    4   17    1      1.10      0.00
    5   17    1     -1.64      0.00
    6   17    1     -0.09      0.00
    7   17    1     -1.01      0.00
    8   17    1     -0.44      0.00
   -7   18    1     -1.27      0.00
   -6   18    1      1.88      0.00
   -5   18    1     -0.34      0.00
   -4   18    1      3.01      0.00
   -3   18    1      0.50      0.00
   -2   18    1     -1.61      0.00
   -1   18    1     -0.16      0.00
    0   18    1      0.36      0.00
    1   18    1     -0.82      0.00
    2   18    1      1.50      0.00
    3   18    1      0.36      0.00
    4   18    1     -1.12      0.00
    5   18    1     -0.47      0.00
    6   18    1     -3.35      0.00
    7   18    1      0.25      0.00
   -6   19    1     -1.11      0.00
   -5   19    1     -0.11      0.00
   -4   19    1     -0.76      0.00
   -3   19    1      1.04      0.00
   -2   19    1     -1.03      0.00
   -1   19    1      0.33      0.00
    0   19    1     -1.89      0.00
    1   19    1      0.68      0.00
    2   19    1     -0.28      0.00
    3   19    1     -0.30      0.00
    4   19    1     -0.82      0.00
    5   19    1      0.67      0.00
    6   19    1     -0.96      0.00
   -2   20    1      0.40      0.00
   -1   20    1     -0.84      0.00
    0   20    1      0.48      0.00
    1   20    1     -1.16      0.00
    2   20    1     -0.38      0.00
    3   20    1     -2.15      0.00
   -2   21    1     -3.04      0.00
   -1   21    1      0.47      0.00
    0   21    1     -0.08      0.00
  -10    0    2      0.40      0.00
   -8    0    2     -1.14      0.00
   -6    0    2      2.01      0.00
   -4    0    2     -0.47      0.00
   -2    0    2    -11.87      0.00
    0    0    2    251.37      0.00
    2    0    2      3.74      0.00
    4    0    2      2.24      0.00
    6    0    2      1.19      0.00
    8    0    2     -1.16      0.00
   10    0    2     -0.12      0.00
   12    0    2     -3.99      0.00
  -11    1    2     -0.05      0.00
  -10    1    2      0.88      0.00
   -9    1    2      0.54      0.00
   -8    1    2     -0.66      0.00
   -7    1    2      0.95      0.00
   -6    1    2      0.52      0.00
   -5    1    2     -1.54      0.00
   -4    1    2     -1.60      0.00
   -3    1    2     -1.41      0.00
   -2    1    2     24.60      0.00
   -1    1    2     42.34      0.00
    0    1    2     27.13      0.00
    1    1    2     28.79      0.00
    2    1    2    -41.37      0.00
    3    1    2      8.53      0.00
    4    1    2     -4.45      0.00
    5    1    2      1.47      0.00
    6    1    2      0.94      0.00
    7    1    2      1.06      0.00
    8    1    2      0.48      0.00
    9    1    2      0.54      0.00
   10    1    2      0.66      0.00
   11    1    2     -1.56      0.00
   12    1    2     -1.97      0.00
   13    1    2      1.19      0.00
  -11    2    2     -0.09      0.00
  -10    2    2      0.44      0.00
   -9    2    2      1.37      0.00
   -8    2    2      1.08      0.00
   -7    2    2     -0.83      0.00
   -6    2    2     -1.37      0.00
   -5    2    2     -3.76      0.00
   -4    2    2     -2.65      0.00
   -3    2    2      0.83      0.00
   -2    2    2     23.42      0.00
   -1    2    2     14.95      0.00
    0    2    2     24.47      0.00
    1    2    2     -4.05      0.00
    2    2    2     23.05      0.00
    3    2    2      7.92      0.00
    4    2    2     -0.17      0.00
    5    2    2     -2.28      0.00
    6    2    2      0.37      0.00
    7    2    2     -0.77      0.00
    8    2    2      1.65      0.00
    9    2    2     -0.74      0.00
   10    2    2     -1.83      0.00
   11    2    2     -1.94      0.00
   12    2    2      1.49      0.00
   13    2    2     -1.13      0.00
  -12    3    2     -0.09      0.00
  -11    3    2      0.73      0.00
  -10    3    2      0.13      0.00
   -9    3    2     -1.00      0.00
   -8    3    2     -0.71      0.00
   -7    3    2      0.07      0.00
   -6    3    2     -1.40      0.00
   -5    3    2      3.46      0.00
   -4    3    2      4.98      0.00
   -3    3    2      3.69      0.00
   -2    3    2     13.13      0.00
   -1    3    2     17.59      0.00
    0    3    2      9.83      0.00
    1    3    2     37.01      0.00
    2    3    2     -4.98      0.00
    3    3    2      0.67      0.00
    4    3    2     -3.40      0.00
    5    3    2      3.08      0.00
    6    3    2     -0.86      0.00
    7    3    2      1.03      0.00
    8    3    2     -0.22      0.00
    9    3    2     -0.89      0.00
   10    3    2     -0.83      0.00
   11    3    2      1.49      0.00
   12    3    2      0.71      0.00
   13    3    2     -0.24      0.00
  -12    4    2     -0.80      0.00
  -11    4    2      0.48      0.00
  -10    4    2      1.14      0.00
   -9    4    2     -0.71      0.00
   -8    4    2      1.50      0.00
   -7    4    2     -0.01      0.00
   -6    4    2      0.56      0.00
   -5    4    2      1.09      0.00
   -4    4    2     -0.21      0.00
   -3    4    2     12.60      0.00
   -2    4    2      5.42      0.00
   -1    4    2      3.93      0.00
    0    4    2     -1.03      0.00
    1    4    2      7.10      0.00
    2    4    2      4.64      0.00
    3    4    2    -12.98      0.00
    4    4    2      1.98      0.00
    5    4    2      0.80      0.00
    6    4    2      0.64      0.00
    7    4    2      0.95      0.00
    8    4    2      0.26      0.00
    9    4    2     -0.44      0.00
   10    4    2      1.27      0.00
   11    4    2      1.39      0.00
   12    4    2     -1.04      0.00
  -13    5    2     -0.68      0.00
  -12    5    2      2.59      0.00
  -11    5    2     -2.22      0.00
  -10    5    2     -0.10      0.00
   -9    5    2      1.48      0.00
   -8    5    2     -1.47      0.00
   -7    5    2     -1.22      0.00
   -6    5    2     -0.77      0.00
   -5    5    2      0.79      0.00
   -4    5    2      2.60      0.00
   -3    5    2      6.66      0.00
   -2    5    2      7.74      0.00
   -1    5    2     -1.45      0.00
    0    5    2     -0.31      0.00
    1    5    2      0.07      0.00
    2    5    2     -3.81      0.00
    3    5    2      6.77      0.00
    4    5    2      0.56      0.00
    5    5    2      0.72      0.00
    6    5    2      0.39      0.00
    7    5    2      0.54      0.00
    8    5    2     -0.66      0.00
    9    5    2     -0.76      0.00
   10    5    2      0.90      0.00
   11    5    2     -1.76      0.00
   12    5    2     -2.05      0.00
  -12    6    2     -0.12      0.00
  -11    6    2     -0.88      0.00
  -10    6    2      0.07      0.00
   -9    6    2     -0.87      0.00
   -8    6    2     -1.47      0.00
   -7    6    2      0.31      0.00
   -6    6    2      1.60      0.00
   -5    6    2     -0.08      0.00
   -4    6    2      3.43      0.00
   -3    6    2      5.54      0.00
   -2    6    2     -5.06      0.00
   -1    6    2      4.10      0.00
    0    6    2      0.54      0.00
    1    6    2     -4.39      0.00
    2    6    2     -1.08      0.00
    3    6    2     -2.10      0.00
    4    6    2      0.65      0.00
    5    6    2     -0.89      0.00
    6    6    2      1.09      0.00
    7    6    2      1.12      0.00
    8    6    2      0.00      0.00
    9    6    2      0.46      0.00
   10    6    2     -1.51      0.00
   11    6    2      0.20      0.00
   12    6    2      1.14      0.00
  -12    7    2      1.29      0.00
  -11    7    2     -0.45      0.00
  -10    7    2      0.22      0.00
   -9    7    2     -0.40      0.00
   -8    7    2      0.41      0.00
   -7    7    2     -0.92      0.00
   -6    7    2     -0.28      0.00
   -5    7    2      1.05      0.00
   -4    7    2      4.63      0.00
   -3    7    2     -0.31      0.00
   -2    7    2     -3.54      0.00
   -1    7    2     -6.37      0.00
    0    7    2      0.42      0.00
    1    7    2     -1.26      0.00
    2    7    2     -0.03      0.00
    3    7    2      0.19      0.00
    4    7    2     -2.50      0.00
    5    7    2      0.67      0.00
    6    7    2      0.43      0.00
    7    7    2     -2.14      0.00
    8    7    2      0.75      0.00
    9    7    2      0.55      0.00
   10    7    2      0.26      0.00
   11    7    2     -0.84      0.00
   12    7    2     -0.52      0.00
  -12    8    2     -0.04      0.00
  -11    8    2     -0.32      0.00
  -10    8    2      1.00      0.00
   -9    8    2      0.79      0.00
   -8    8    2      0.61      0.00
   -7    8    2      0.13      0.00
   -6    8    2      1.14      0.00
   -5    8    2     -0.97      0.00
   -4    8    2      0.35      0.00
   -3    8    2     -2.52      0.00
   -2    8    2      0.26      0.00
   -1    8    2      0.51      0.00
    0    8    2     -5.58      0.00
    1    8    2     -0.90      0.00
    2    8    2      1.95      0.00
    3    8    2      0.01      0.00
    4    8    2     -0.79      0.00
    5    8    2      1.43      0.00
    6    8    2      0.04      0.00
    7    8    2      0.93      0.00
    8    8    2     -2.05      0.00
    9    8    2     -0.22      0.00
   10    8    2      0.69      0.00
   11    8    2      1.55      0.00
   12    8    2      0.44      0.00
  -12    9    2     -1.94      0.00
  -11    9    2      1.16      0.00
  -10    9    2      0.42      0.00
   -9    9    2      0.10      0.00
   -8    9    2     -0.07      0.00
   -7    9    2     -0.75      0.00
   -6    9    2      0.64      0.00
   -5    9    2      1.29      0.00
   -4    9    2     -0.54      0.00
   -3    9    2     -3.26      0.00
   -2    9    2     -1.97      0.00
   -1    9    2      0.76      0.00
    0    9    2     -0.48      0.00
    1    9    2      0.66      0.00
    2    9    2     -0.19      0.00
    3    9    2     -1.93      0.00
    4    9    2     -1.29      0.00
    5    9    2     -1.10      0.00
    6    9    2      0.11      0.00
    7    9    2     -0.56      0.00
    8    9    2      0.37      0.00
    9    9    2     -0.88      0.00
   10    9    2     -1.22      0.00
   11    9    2      0.86      0.00
  -11   10    2      0.01      0.00
  -10   10    2     -0.05      0.00
   -9   10    2      1.58      0.00
   -8   10    2      0.40      0.00
   -7   10    2      0.67      0.00
   -6   10    2      0.24      0.00
   -5   10    2      0.17      0.00
   -4   10    2     -0.64      0.00
   -3   10    2     -1.46      0.00
   -2   10    2     -0.56      0.00
   -1   10    2     -0.84      0.00
    0   10    2      1.76      0.00
    1   10    2      1.25      0.00
    2   10    2     -0.14      0.00
    3   10    2     -0.19      0.00
    4   10    2      0.17      0.00
    5   10    2      0.20      0.00
    6   10    2     -1.04      0.00
    7   10    2      1.99      0.00
    8   10    2      0.56      0.00
    9   10    2      0.07      0.00
   10   10    2     -0.37      0.00
   11   10    2     -3.39      0.00
  -11   11    2      0.18      0.00
  -10   11    2      0.76      0.00
   -9   11    2     -0.46      0.00
   -8   11    2      0.35      0.00
   -7   11    2      0.59      0.00
   -6   11    2      1.46      0.00
   -5   11    2     -0.36      0.00
   -4   11    2     -2.30      0.00
   -3   11    2     -0.62      0.00
   -2   11    2      1.82      0.00
   -1   11    2      1.58      0.00
    0   11    2      0.83      0.00
    1   11    2      0.02      0.00
    2   11    2     -1.51      0.00
    3   11    2      0.01      0.00
    4   11    2      0.73      0.00
    5   11    2      1.11      0.00
    6   11    2      0.80      0.00
    7   11    2      0.55      0.00
    8   11    2      1.06      0.00
    9   11    2     -0.37      0.00
   10   11    2     -1.37      0.00
   11   11    2      1.15      0.00
  -11   12    2      0.02      0.00
  -10   12    2     -0.70      0.00
   -9   12    2      1.27      0.00
   -8   12    2     -0.87      0.00
   -7   12    2      0.27      0.00
   -6   12    2      0.07      0.00
   -5   12    2     -0.41      0.00
   -4   12    2      0.15      0.00
   -3   12    2     -0.58      0.00
   -2   12    2      1.17      0.00
   -1   12    2     -0.38      0.00
    0   12    2      0.79      0.00
    1   12    2      0.23      0.00
    2   12    2      0.17      0.00
    3   12    2     -0.26      0.00
    4   12    2      0.31      0.00
    5   12    2      0.39      0.00
    6   12    2      1.32      0.00
    7   12    2      0.50      0.00
    8   12    2     -0.50      0.00
    9   12    2     -0.86      0.00
   10   12    2     -1.63      0.00
  -10   13    2     -1.05      0.00
   -9   13    2      0.36      0.00
   -8   13    2     -0.82      0.00
   -7   13    2      0.04      0.00
   -6   13    2     -0.50      0.00
   -5   13    2     -1.21      0.00
   -4   13    2     -1.39      0.00
   -3   13    2      1.17      0.00
   -2   13    2     -0.68      0.00
   -1   13    2      0.48      0.00
    0   13    2      0.15      0.00
    1   13    2      1.17      0.00
    2   13    2      0.44      0.00
    3   13    2      0.02      0.00
    4   13    2     -0.92      0.00
    5   13    2      1.00      0.00
    6   13    2      1.21      0.00
    7   13    2      0.63      0.00
    8   13    2     -1.12      0.00
    9   13    2     -0.59      0.00
   10   13    2     -2.50      0.00
  -10   14    2      0.09      0.00
   -9   14    2      0.41      0.00
   -8   14    2      0.21      0.00
   -7   14    2     -0.48      0.00
   -6   14    2     -0.80      0.00
   -5   14    2     -0.83      0.00
   -4   14    2     -0.01      0.00
   -3   14    2      0.18      0.00
   -2   14    2     -0.20      0.00
   -1   14    2      0.57      0.00
    0   14    2      0.15      0.00
    1   14    2     -0.86      0.00
    2   14    2     -1.49      0.00
    3   14    2      0.54      0.00
    4   14    2      1.01      0.00
    5   14    2      0.99      0.00
    6   14    2      0.31      0.00
    7   14    2      2.59      0.00
    8   14    2      0.01      0.00
    9   14    2     -1.64      0.00
   -9   15    2      1.83      0.00
   -8   15    2      0.70      0.00
   -7   15    2     -0.51      0.00
   -6   15    2     -0.16      0.00
   -5   15    2      0.61      0.00
   -4   15    2      0.21      0.00
   -3   15    2     -0.12      0.00
   -2   15    2      1.04      0.00
   -1   15    2     -0.75      0.00
    0   15    2      0.61      0.00
    1   15    2     -0.80      0.00
    2   15    2     -0.09      0.00
    3   15    2     -1.10      0.00
    4   15    2      1.21      0.00
    5   15    2      0.82      0.00
    6   15    2     -0.18      0.00
    7   15    2      0.34      0.00
    8   15    2      0.18      0.00
    9   15    2      0.24      0.00
   -8   16    2     -0.28      0.00
   -7   16    2      0.80      0.00
   -6   16    2     -0.56      0.00
   -5   16    2      1.03      0.00
   -4   16    2      0.51      0.00
   -3   16    2     -0.54      0.00
   -2   16    2     -0.10      0.00
   -1   16    2      0.92      0.00
    0   16    2     -0.21      0.00
    1   16    2     -1.79      0.00
    2   16    2     -0.67      0.00
    3   16    2      0.16      0.00
    4   16    2      0.70      0.00
    5   16    2      0.79      0.00
    6   16    2      2.20      0.00
    7   16    2     -0.75      0.00
    8   16    2      1.37      0.00
   -8   17    2     -2.09      0.00
   -7   17    2      0.48      0.00
   -6   17    2      2.10      0.00
   -5   17    2      0.93      0.00
   -4   17    2     -0.31      0.00
   -3   17    2     -0.95      0.00
   -2   17    2     -0.58      0.00
   -1   17    2      1.33      0.00
    0   17    2      0.02      0.00
    1   17    2     -0.25      0.00
    2   17    2     -0.63      0.00
    3   17    2      0.43      0.00
    4   17    2      0.15      0.00
    5   17    2     -1.66      0.00
    6   17    2      1.23      0.00
    7   17    2      0.95      0.00
   -7   18    2      0.90      0.00
   -6   18    2     -0.68      0.00
   -5   18    2     -0.69      0.00
   -4   18    2      1.28      0.00
   -3   18    2     -1.18      0.00
   -2   18    2     -0.83      0.00
   -1   18    2      2.08      0.00
    0   18    2     -0.36      0.00
    1   18    2     -0.80      0.00
    2   18    2     -0.16      0.00
    3   18    2     -0.46      0.00
    4   18    2      0.39      0.00
    5   18    2      0.95      0.00
    6   18    2     -0.61      0.00
    7   18    2     -0.12      0.00
   -6   19    2     -0.30      0.00
   -5   19    2     -0.15      0.00
   -4   19    2     -1.16      0.00
   -3   19    2      2.94      0.00
   -2   19    2      0.03      0.00
   -1   19    2      0.36      0.00
    0   19    2     -0.36      0.00
    1   19    2     -0.68      0.00
    2   19    2     -1.13      0.00
    3   19    2      1.26      0.00
    4   19    2      0.93      0.00
    5   19    2      0.87      0.00
   -2   20    2     -0.04      0.00
   -1   20    2      2.28      0.00
    0   20    2     -0.63      0.00
    1   20    2     -2.52      0.00
    2   20    2      0.92      0.00
    3   20    2      0.97      0.00
    4   20    2      0.36      0.00
   -1   21    2      0.13      0.00
  -11    0    3      3.27      0.00
   -9    0    3     -1.94      0.00
   -7    0    3      1.44      0.00
   -5    0    3     -3.41      0.00
   -3    0    3      2.77      0.00
   -1    0    3    -13.50      0.00
    1    0    3    -72.14      0.00
    5    0    3      0.71      0.00
    7    0    3     -1.09      0.00
    9    0    3      0.95      0.00
   11    0    3     -2.13      0.00
   13    0    3      4.48      0.00
  -11    1    3     -1.47      0.00
  -10    1    3     -0.36      0.00
   -9    1    3      0.01      0.00
   -8    1    3     -0.48      0.00
   -7    1    3     -0.56      0.00
   -6    1    3     -2.17      0.00
   -5    1    3      0.83      0.00
   -4    1    3      1.73      0.00
   -3    1    3      3.60      0.00
   -2    1    3      2.92      0.00
   -1    1    3    -55.74      0.00
    0    1    3     43.48      0.00
    1    1    3     69.78      0.00
    2    1    3      2.03      0.00
    4    1    3     -9.08      0.00
    5    1    3      1.73      0.00
    6    1    3     -1.57      0.00
    7    1    3      0.27      0.00
    8    1    3      0.26      0.00
    9    1    3     -2.91      0.00
   10    1    3     -0.41      0.00
   11    1    3      2.87      0.00
   12    1    3      1.72      0.00
   13    1    3     -0.27      0.00
  -11    2    3      0.08      0.00
  -10    2    3     -1.25      0.00
   -9    2    3     -0.55      0.00
   -8    2    3      0.37      0.00
   -7    2    3     -1.47      0.00
   -6    2    3      3.94      0.00
   -5    2    3      1.75      0.00
   -4    2    3      2.80      0.00
   -3    2    3     -3.67      0.00
   -2    2    3     -5.67      0.00
   -1    2    3      0.21      0.00
    0    2    3     32.45      0.00
    1    2    3     21.04      0.00
    2    2    3     -4.78      0.00
    3    2    3     -7.98      0.00
    4    2    3     -1.38      0.00
    5    2    3     -2.90      0.00
    6    2    3     -1.93      0.00
    7    2    3     -1.22      0.00
    8    2    3     -1.54      0.00
    9    2    3     -0.11      0.00
   10    2    3      0.57      0.00
   11    2    3      0.95      0.00
   12    2    3      2.59      0.00
   13    2    3      0.02      0.00
  -12    3    3      0.43      0.00
  -11    3    3     -2.91      0.00
  -10    3    3     -0.66      0.00
   -9    3    3      0.25      0.00
   -8    3    3      1.45      0.00
   -7    3    3      1.99      0.00
   -6    3    3      1.21      0.00
   -5    3    3     -1.49      0.00
   -4    3    3     -6.24      0.00
   -3    3    3     -5.69      0.00
   -2    3    3    -17.87      0.00
   -1    3    3      1.04      0.00
    0    3    3     21.63      0.00
    1    3    3     16.58      0.00
    2    3    3    -21.42      0.00
    3    3    3      3.39      0.00
    4    3    3      0.93      0.00
    5    3    3      0.21      0.00
    6    3    3     -0.57      0.00
    7    3    3     -0.83      0.00
    8    3    3     -0.61      0.00
    9    3    3     -0.33      0.00
   10    3    3      0.53      0.00
   11    3    3     -0.40      0.00
   12    3    3     -1.96      0.00
  -12    4    3     -2.62      0.00
  -11    4    3     -0.90      0.00
  -10    4    3     -0.79      0.00
   -9    4    3     -1.09      0.00
   -8    4    3     -0.39      0.00
   -7    4    3     -0.36      0.00
   -6    4    3      0.74      0.00
   -5    4    3     -2.90      0.00
   -4    4    3      0.23      0.00
   -3    4    3     -4.01      0.00
   -2    4    3     -5.77      0.00
   -1    4    3     -1.49      0.00
    0    4    3      5.72      0.00
    1    4    3      8.73      0.00
    2    4    3     10.12      0.00
    3    4    3     -1.27      0.00
    4    4    3     -3.27      0.00
    5    4    3     -3.22      0.00
    6    4    3     -0.25      0.00
    7    4    3     -0.30      0.00
    8    4    3     -0.89      0.00
    9    4    3      1.29      0.00
   10    4    3     -0.81      0.00
   11    4    3     -0.02      0.00
   12    4    3      3.25      0.00
  -13    5    3      0.99      0.00
  -12    5    3     -0.02      0.00
  -11    5    3     -1.25      0.00
  -10    5    3      0.43      0.00
   -9    5    3      1.21      0.00
   -8    5    3     -0.15      0.00
   -7    5    3      4.38      0.00
   -6    5    3     -1.97      0.00
   -5    5    3     -0.45      0.00
   -4    5    3     -5.11      0.00
   -3    5    3     -4.22      0.00
   -2    5    3     -2.72      0.00
   -1    5    3      9.57      0.00
    0    5    3      0.18      0.00
    1    5    3     -1.26      0.00
    2    5    3      1.33      0.00
    3    5    3     -4.49      0.00
    4    5    3     -6.05      0.00
    5    5    3      0.34      0.00
    6    5    3     -1.11      0.00
    7    5    3     -0.92      0.00
    8    5    3      0.56      0.00
    9    5    3     -1.98      0.00
   10    5    3      0.03      0.00
   11    5    3      1.09      0.00
   12    5    3      2.61      0.00
  -13    6    3     -1.91      0.00
  -12    6    3      0.55      0.00
  -11    6    3      0.47      0.00
  -10    6    3     -1.10      0.00
   -9    6    3      0.29      0.00
   -8    6    3      2.07      0.00
   -7    6    3     -0.05      0.00
   -6    6    3     -0.22      0.00
   -5    6    3     -1.81      0.00
   -4    6    3     -2.85      0.00
   -3    6    3     -6.62      0.00
   -2    6    3     -1.57      0.00
   -1    6    3      4.20      0.00
    0    6    3      2.90      0.00
    1    6    3      1.96      0.00
    2    6    3     -1.97      0.00
    3    6    3     -4.09      0.00
    4    6    3     -0.46      0.00
    5    6    3     -0.63      0.00
    6    6    3     -0.31      0.00
    7    6    3      1.69      0.00
    8    6    3      1.76      0.00
    9    6    3     -0.75      0.00
   10    6    3     -0.96      0.00
   11    6    3      1.90      0.00
   12    6    3     -2.44      0.00
  -12    7    3      0.52      0.00
  -11    7    3     -2.30      0.00
  -10    7    3      0.53      0.00
   -9    7    3      0.90      0.00
   -8    7    3     -0.64      0.00
   -7    7    3     -0.41      0.00
   -6    7    3     -1.24      0.00
   -5    7    3     -2.33      0.00
   -4    7    3     -4.19      0.00
   -3    7    3      2.28      0.00
   -2    7    3      3.54      0.00
   -1    7    3      1.64      0.00
    0    7    3      1.09      0.00
    1    7    3     -1.05      0.00
    2    7    3     -1.59      0.00
    3    7    3     -3.14      0.00
    4    7    3     -1.29      0.00
    5    7    3     -0.77      0.00
    6    7    3     -3.30      0.00
    7    7    3      0.19      0.00
    8    7    3      0.77      0.00
    9    7    3      0.15      0.00
   10    7    3      1.61      0.00
   11    7    3     -1.15      0.00
   12    7    3     -0.22      0.00
  -12    8    3     -0.16      0.00
  -11    8    3      1.01      0.00
  -10    8    3     -0.59      0.00
   -9    8    3     -1.30      0.00
   -8    8    3     -0.30      0.00
   -7    8    3     -0.52      0.00
   -6    8    3     -0.44      0.00
   -5    8    3     -3.27      0.00
   -4    8    3     -0.14      0.00
   -3    8    3      1.18      0.00
   -2    8    3      3.98      0.00
   -1    8    3     -0.50      0.00
    0    8    3     -2.75      0.00
    1    8    3     -1.16      0.00
    2    8    3     -2.73      0.00
    3    8    3     -1.56      0.00
    4    8    3     -1.72      0.00
    5    8    3     -1.60      0.00
    6    8    3      0.71      0.00
    7    8    3      0.56      0.00
    8    8    3     -2.09      0.00
    9    8    3     -0.48      0.00
   10    8    3     -0.39      0.00
   11    8    3      1.04      0.00
   12    8    3     -2.93      0.00
  -12    9    3     -0.08      0.00
  -11    9    3     -0.51      0.00
  -10    9    3     -0.17      0.00
   -9    9    3      0.04      0.00
   -8    9    3     -0.23      0.00
   -7    9    3     -0.79      0.00
   -6    9    3      0.57      0.00
   -5    9    3     -1.13      0.00
   -4    9    3     -0.11      0.00
   -3    9    3      1.67      0.00
   -2    9    3      1.02      0.00
   -1    9    3      1.43      0.00
    0    9    3     -1.35      0.00
    1    9    3     -3.58      0.00
    2    9    3     -1.31      0.00
    3    9    3      0.20      0.00
    4    9    3     -0.91      0.00
    5    9    3     -1.38      0.00
    6    9    3      0.57      0.00
    7    9    3      2.79      0.00
    8    9    3      0.80      0.00
    9    9    3     -0.42      0.00
   10    9    3     -1.30      0.00
   11    9    3     -0.24      0.00
  -11   10    3     -0.38      0.00
  -10   10    3     -0.28      0.00
   -9   10    3     -0.12      0.00
   -8   10    3      0.04      0.00
   -7   10    3      0.31      0.00
   -6   10    3     -2.08      0.00
   -5   10    3     -0.60      0.00
   -4   10    3      0.78      0.00
   -3   10    3      2.68      0.00
   -2   10    3     -0.42      0.00
   -1   10    3     -1.21      0.00
    0   10    3     -2.02      0.00
    1   10    3     -1.74      0.00
    2   10    3     -0.70      0.00
    3   10    3      0.64      0.00
    4   10    3     -0.64      0.00
    5   10    3     -1.06      0.00
    6   10    3     -0.62      0.00
    7   10    3     -0.15      0.00
    8   10    3     -1.86      0.00
    9   10    3      0.43      0.00
   10   10    3      1.45      0.00
   11   10    3      0.85      0.00
  -11   11    3     -0.35      0.00
  -10   11    3     -1.07      0.00
   -9   11    3      0.47      0.00
   -8   11    3     -0.17      0.00
   -7   11    3     -0.36      0.00
   -6   11    3      1.18      0.00
   -5   11    3     -0.05      0.00
   -4   11    3      1.43      0.00
   -3   11    3      0.66      0.00
   -2   11    3      0.26      0.00
   -1   11    3     -3.88      0.00
    0   11    3     -2.07      0.00
    1   11    3     -1.16      0.00
    2   11    3      0.49      0.00
    3   11    3      0.21      0.00
    4   11    3      0.27      0.00
    5   11    3      0.38      0.00
    6   11    3     -0.28      0.00
    7   11    3     -0.70      0.00
    8   11    3     -0.64      0.00
    9   11    3     -1.17      0.00
   10   11    3      0.91      0.00
   11   11    3      0.81      0.00
  -11   12    3     -1.71      0.00
  -10   12    3      0.89      0.00
   -9   12    3     -0.47      0.00
   -8   12    3     -0.13      0.00
   -7   12    3     -0.26      0.00
   -6   12    3      0.73      0.00
   -5   12    3      1.15      0.00
   -4   12    3      1.17      0.00
   -3   12    3     -0.72      0.00
   -2   12    3     -1.60      0.00
   -1   12    3     -0.38      0.00
    0   12    3      0.09      0.00
    1   12    3      0.95      0.00
    2   12    3      0.03      0.00
    3   12    3     -1.14      0.00
    4   12    3     -0.15      0.00
    5   12    3      0.24      0.00
    6   12    3      0.64      0.00
    7   12    3     -1.63      0.00
    8   12    3     -0.58      0.00
    9   12    3      0.66      0.00
   10   12    3     -0.37      0.00
  -10   13    3     -0.22      0.00
   -9   13    3      2.75      0.00
   -8   13    3     -0.83      0.00
   -7   13    3      2.15      0.00
   -6   13    3     -0.04      0.00
   -5   13    3      0.20      0.00
   -4   13    3      1.91      0.00
   -3   13    3      0.27      0.00
   -2   13    3     -1.10      0.00
   -1   13    3     -0.38      0.00
    0   13    3     -1.36      0.00
    1   13    3     -0.16      0.00
    2   13    3      0.35      0.00
    3   13    3      1.44      0.00
    4   13    3      0.14      0.00
    5   13    3      0.91      0.00
    6   13    3     -0.38      0.00
    7   13    3      0.74      0.00
    8   13    3     -2.72      0.00
    9   13    3      1.39      0.00
   10   13    3      1.14      0.00
  -10   14    3      0.93      0.00
   -9   14    3      0.22      0.00
   -8   14    3      0.40      0.00
   -7   14    3     -0.28      0.00
   -6   14    3      1.06      0.00
   -5   14    3      1.53      0.00
   -4   14    3     -0.74      0.00
   -3   14    3      0.26      0.00
   -2   14    3     -0.79      0.00
   -1   14    3     -0.71      0.00
    0   14    3     -0.42      0.00
    1   14    3     -0.11      0.00
    2   14    3      1.03      0.00
    3   14    3      0.61      0.00
    4   14    3     -0.32      0.00
    5   14    3     -0.89      0.00
    6   14    3     -0.16      0.00
    7   14    3     -0.70      0.00
    8   14    3     -0.46      0.00
    9   14    3     -0.25      0.00
   -9   15    3      1.35      0.00
   -8   15    3     -0.26      0.00
   -7   15    3     -0.01      0.00
   -6   15    3     -0.38      0.00
   -5   15    3      0.11      0.00
   -4   15    3     -0.46      0.00
   -3   15    3     -0.66      0.00
   -2   15    3     -0.63      0.00
   -1   15    3     -0.71      0.00
    0   15    3     -0.07      0.00
    1   15    3     -0.24      0.00
    2   15    3      0.16      0.00
    3   15    3     -0.56      0.00
    4   15    3      0.59      0.00
    5   15    3     -0.01      0.00
    6   15    3     -0.70      0.00
    7   15    3     -0.58      0.00
    8   15    3      0.84      0.00
    9   15    3      0.65      0.00
   -8   16    3      1.52      0.00
   -7   16    3      1.44      0.00
   -6   16    3      0.62      0.00
   -5   16    3     -1.09      0.00
   -4   16    3     -1.05      0.00
   -3   16    3     -0.39      0.00
   -2   16    3      0.60      0.00
   -1   16    3      0.31      0.00
    0   16    3     -0.21      0.00
    1   16    3     -0.17      0.00
    2   16    3      0.51      0.00
    3   16    3      0.23      0.00
    4   16    3     -0.91      0.00
    5   16    3      0.54      0.00
    6   16    3     -0.90      0.00
    7   16    3     -2.21      0.00
    8   16    3      0.51      0.00
   -8   17    3     -0.70      0.00
   -7   17    3      0.92      0.00
   -6   17    3     -0.98      0.00
   -5   17    3     -0.23      0.00
   -4   17    3     -0.66      0.00
   -3   17    3     -0.86      0.00
   -2   17    3      0.92      0.00
   -1   17    3      1.09      0.00
    0   17    3     -0.89      0.00
    1   17    3      0.08      0.00
    2   17    3     -0.81      0.00
    3   17    3     -0.33      0.00
    4   17    3      0.50      0.00
    5   17    3     -1.11      0.00
    6   17    3      0.62      0.00
   -7   18    3     -1.65      0.00
   -6   18    3     -0.68      0.00
   -5   18    3     -0.54      0.00
   -4   18    3      2.90      0.00
   -3   18    3      0.63      0.00
   -2   18    3     -0.17      0.00
   -1   18    3      0.73      0.00
    0   18    3      0.76      0.00
    1   18    3     -0.51      0.00
    2   18    3      0.13      0.00
    3   18    3      0.31      0.00
    4   18    3     -0.26      0.00
    5   18    3     -0.76      0.00
    6   18    3     -3.04      0.00
   -6   19    3     -1.23      0.00
   -5   19    3      0.18      0.00
   -4   19    3      1.02      0.00
   -3   19    3      1.28      0.00
   -2   19    3     -0.91      0.00
   -1   19    3      1.67      0.00
    0   19    3     -0.97      0.00
    1   19    3      1.05      0.00
    2   19    3      0.10      0.00
    3   19    3      0.28      0.00
    4   19    3      0.31      0.00
    5   19    3      0.18      0.00
   -2   20    3     -0.07      0.00
   -1   20    3      0.23      0.00
    0   20    3      0.82      0.00
    1   20    3     -0.72      0.00
    2   20    3      0.24      0.00
    3   20    3     -2.43      0.00
    4   20    3      0.43      0.00
    0   21    3      1.20      0.00
  -10    0    4      0.40      0.00
   -8    0    4     -0.85      0.00
   -6    0    4     -0.48      0.00
   -4    0    4     -1.14      0.00
   -2    0    4     -6.70      0.00
    0    0    4    140.22      0.00
    2    0    4     -0.37      0.00
    4    0    4      3.10      0.00
    6    0    4      0.25      0.00
    8    0    4     -0.44      0.00
   10    0    4      0.46      0.00
   12    0    4     -2.35      0.00
  -11    1    4     -0.04      0.00
  -10    1    4      1.46      0.00
   -9    1    4      0.03      0.00
   -8    1    4     -2.76      0.00
   -7    1    4      0.11      0.00
   -6    1    4      2.20      0.00
   -5    1    4     -1.11      0.00
   -4    1    4     -1.55      0.00
   -3    1    4     -7.55      0.00
   -2    1    4      7.21      0.00
   -1    1    4     19.51      0.00
    0    1    4     32.30      0.00
    1    1    4     -1.04      0.00
    2    1    4    -27.92      0.00
    4    1    4     -4.93      0.00
    5    1    4      3.55      0.00
    6    1    4      0.00      0.00
    7    1    4      1.31      0.00
    8    1    4      1.28      0.00
    9    1    4      1.43      0.00
   10    1    4      2.12      0.00
   11    1    4     -1.54      0.00
   12    1    4     -1.86      0.00
  -12    2    4     -2.90      0.00
  -11    2    4     -0.07      0.00
  -10    2    4      0.75      0.00
   -9    2    4      0.03      0.00
   -8    2    4      0.58      0.00
   -7    2    4      0.23      0.00
   -6    2    4     -1.80      0.00
   -5    2    4     -6.50      0.00
   -4    2    4     -3.29      0.00
   -3    2    4      2.51      0.00
   -2    2    4      8.22      0.00
   -1    2    4     13.55      0.00
    0    2    4     23.13      0.00
    1    2    4      4.77      0.00
    2    2    4     10.06      0.00
    3    2    4     10.93      0.00
    4    2    4      0.56      0.00
    5    2    4     -1.70      0.00
    6    2    4      0.20      0.00
    7    2    4     -0.94      0.00
    8    2    4      3.14      0.00
    9    2    4      0.01      0.00
   10    2    4     -1.98      0.00
   11    2    4     -1.48      0.00
   12    2    4      1.14      0.00
  -12    3    4      0.89      0.00
  -11    3    4     -0.50      0.00
  -10    3    4     -0.06      0.00
   -9    3    4     -0.16      0.00
   -8    3    4     -0.25      0.00
   -7    3    4     -0.25      0.00
   -6    3    4     -1.96      0.00
   -5    3    4      0.70      0.00
   -4    3    4      4.85      0.00
   -3    3    4      5.42      0.00
   -2    3    4      9.22      0.00
   -1    3    4      8.81      0.00
    0    3    4     17.12      0.00
    1    3    4     33.35      0.00
    2    3    4      4.02      0.00
    3    3    4      1.50      0.00
    4    3    4     -2.40      0.00
    5    3    4      1.15      0.00
    6    3    4     -1.16      0.00
    7    3    4      0.21      0.00
    8    3    4     -0.16      0.00
    9    3    4      0.57      0.00
   10    3    4     -1.21      0.00
   11    3    4      0.42      0.00
   12    3    4      1.52      0.00
  -12    4    4     -0.49      0.00
  -11    4    4      1.31      0.00
  -10    4    4      0.21      0.00
   -9    4    4      0.48      0.00
   -8    4    4      1.49      0.00
   -7    4    4     -0.38      0.00
   -6    4    4     -0.19      0.00
   -5    4    4      2.52      0.00
   -4    4    4      0.11      0.00
   -3    4    4      7.13      0.00
   -2    4    4      0.36      0.00
   -1    4    4      2.06      0.00
    0    4    4      8.22      0.00
    1    4    4     15.30      0.00
    2    4    4      1.59      0.00
    3    4    4     -7.74      0.00
    4    4    4      1.82      0.00
    5    4    4      0.71      0.00
    6    4    4     -0.15      0.00
    7    4    4      1.40      0.00
    8    4    4     -0.03      0.00
    9    4    4     -1.10      0.00
   10    4    4      0.20      0.00
   11    4    4      0.57      0.00
   12    4    4      0.05      0.00
  -13    5    4     -1.75      0.00
  -12    5    4      2.53      0.00
  -11    5    4     -1.45      0.00
  -10    5    4     -0.43      0.00
   -9    5    4      0.74      0.00
   -8    5    4     -0.86      0.00
   -7    5    4     -1.20      0.00
   -6    5    4     -1.30      0.00
   -5    5    4      0.72      0.00
   -4    5    4      1.36      0.00
   -3    5    4      3.55      0.00
   -2    5    4      4.85      0.00
   -1    5    4      2.52      0.00
    0    5    4      2.79      0.00
    1    5    4      7.18      0.00
    2    5    4     -1.19      0.00
    3    5    4      2.89      0.00
    4    5    4      3.27      0.00
    5    5    4     -0.28      0.00
    6    5    4      0.25      0.00
    7    5    4      0.84      0.00
    8    5    4     -1.21      0.00
    9    5    4     -1.60      0.00
   10    5    4      0.37      0.00
   11    5    4     -0.20      0.00
   12    5    4     -2.25      0.00
  -13    6    4      0.77      0.00
  -12    6    4     -0.70      0.00
  -11    6    4     -0.09      0.00
  -10    6    4      0.96      0.00
   -9    6    4      0.20      0.00
   -8    6    4     -1.44      0.00
   -7    6    4     -0.06      0.00
   -6    6    4      1.26      0.00
   -5    6    4      0.09      0.00
   -4    6    4      2.35      0.00
   -3    6    4      4.63      0.00
   -2    6    4     -2.48      0.00
   -1    6    4      4.71      0.00
    0    6    4      3.96      0.00
    1    6    4     -3.07      0.00
    2    6    4      0.45      0.00
    3    6    4     -0.01      0.00
    4    6    4     -2.67      0.00
    5    6    4     -1.66      0.00
    6    6    4      0.57      0.00
    7    6    4      2.28      0.00
    8    6    4     -0.12      0.00
    9    6    4     -0.96      0.00
   10    6    4     -0.33      0.00
   11    6    4     -1.83      0.00
   12    6    4      0.68      0.00
  -12    7    4      1.57      0.00
  -11    7    4     -0.12      0.00
  -10    7    4      0.95      0.00
   -9    7    4     -0.91      0.00
   -8    7    4      0.02      0.00
   -7    7    4     -0.42      0.00
   -6    7    4     -0.05      0.00
   -5    7    4      1.51      0.00
   -4    7    4      4.21      0.00
   -3    7    4     -0.35      0.00
   -2    7    4     -3.89      0.00
   -1    7    4     -3.89      0.00
    0    7    4      0.61      0.00
    1    7    4      1.84      0.00
    2    7    4     -0.08      0.00
    3    7    4     -1.43      0.00
    4    7    4     -1.19      0.00
    5    7    4     -0.39      0.00
    6    7    4      0.86      0.00
    7    7    4     -0.69      0.00
    8    7    4      1.40      0.00
    9    7    4      0.02      0.00
   10    7    4      0.03      0.00
   11    7    4     -0.09      0.00
   12    7    4     -0.72      0.00
  -12    8    4     -0.35      0.00
  -11    8    4      0.06      0.00
  -10    8    4     -0.72      0.00
   -9    8    4      0.17      0.00
   -8    8    4      0.93      0.00
   -7    8    4      0.47      0.00
   -6    8    4      1.58      0.00
   -5    8    4     -0.53      0.00
   -4    8    4      0.65      0.00
   -3    8    4     -2.99      0.00
   -2    8    4      1.02      0.00
   -1    8    4      2.26      0.00
    0    8    4     -0.35      0.00
    1    8    4     -0.70      0.00
    2    8    4      1.82      0.00
    3    8    4     -0.61      0.00
    4    8    4     -2.03      0.00
    5    8    4      2.04      0.00
    6    8    4      0.16      0.00
    7    8    4      1.18      0.00
    8    8    4     -1.52      0.00
    9    8    4      0.00      0.00
   10    8    4     -0.60      0.00
   11    8    4      1.62      0.00
   12    8    4      0.20      0.00
  -12    9    4     -2.60      0.00
  -11    9    4      0.38      0.00
  -10    9    4     -0.31      0.00
   -9    9    4      0.04      0.00
   -8    9    4     -1.40      0.00
   -7    9    4     -0.99      0.00
   -6    9    4      0.30      0.00
   -5    9    4      1.66      0.00
   -4    9    4     -1.22      0.00
   -3    9    4     -1.68      0.00
   -2    9    4     -1.25      0.00
   -1    9    4      2.94      0.00
    0    9    4     -0.13      0.00
    1    9    4      0.48      0.00
    2    9    4     -1.18      0.00
    3    9    4     -1.24      0.00
    4    9    4     -0.91      0.00
    5    9    4     -1.66      0.00
    6    9    4      1.53      0.00
    7    9    4     -0.34      0.00
    8    9    4      0.33      0.00
    9    9    4     -0.23      0.00
   10    9    4     -0.83      0.00
   11    9    4      0.30      0.00
  -11   10    4     -0.90      0.00
  -10   10    4     -0.80      0.00
   -9   10    4      1.07      0.00
   -8   10    4     -0.43      0.00
   -7   10    4      0.83      0.00
   -6   10    4      0.41      0.00
   -5   10    4     -0.07      0.00
   -4   10    4     -0.80      0.00
   -3   10    4     -0.97      0.00
   -2   10    4      0.63      0.00
   -1   10    4     -0.74      0.00
    0   10    4      1.82      0.00
    1   10    4      0.24      0.00
    2   10    4     -0.07      0.00
    3   10    4     -0.13      0.00
    4   10    4      0.04      0.00
    5   10    4      0.21      0.00
    6   10    4     -1.14      0.00
    7   10    4      2.67      0.00
    8   10    4      0.28      0.00
    9   10    4      0.38      0.00
   10   10    4     -0.47      0.00
   11   10    4     -3.71      0.00
  -11   11    4     -1.23      0.00
  -10   11    4     -0.09      0.00
   -9   11    4     -0.73      0.00
   -8   11    4      0.83      0.00
   -7   11    4      0.97      0.00
   -6   11    4      2.29      0.00
   -5   11    4     -0.73      0.00
   -4   11    4     -2.21      0.00
   -3   11    4     -0.30      0.00
   -2   11    4      1.88      0.00
   -1   11    4      2.35      0.00
    0   11    4      1.29      0.00
    1   11    4      0.50      0.00
    2   11    4     -1.88      0.00
    3   11    4     -0.01      0.00
    4   11    4      0.16      0.00
    5   11    4      1.19      0.00
    6   11    4      0.45      0.00
    7   11    4      0.61      0.00
    8   11    4      1.35      0.00
    9   11    4     -0.15      0.00
   10   11    4     -0.91      0.00
   11   11    4      0.71      0.00
  -11   12    4     -0.03      0.00
  -10   12    4     -0.37      0.00
   -9   12    4      0.69      0.00
   -8   12    4      0.01      0.00
   -7   12    4      0.29      0.00
   -6   12    4     -0.86      0.00
   -5   12    4      0.38      0.00
   -4   12    4      1.11      0.00
   -3   12    4     -0.31      0.00
   -2   12    4      2.56      0.00
   -1   12    4     -0.19      0.00
    0   12    4     -0.37      0.00
    1   12    4     -0.32      0.00
    2   12    4     -0.07      0.00
    3   12    4     -0.61      0.00
    4   12    4      1.04      0.00
    5   12    4     -0.28      0.00
    6   12    4      1.00      0.00
    7   12    4      1.06      0.00
    8   12    4     -0.25      0.00
    9   12    4      0.32      0.00
   10   12    4     -1.38      0.00
  -10   13    4     -0.92      0.00
   -9   13    4      0.04      0.00
   -8   13    4     -1.55      0.00
   -7   13    4      0.24      0.00
   -6   13    4     -0.14      0.00
   -5   13    4     -0.24      0.00
   -4   13    4     -0.53      0.00
   -3   13    4      1.29      0.00
   -2   13    4     -0.37      0.00
   -1   13    4      0.15      0.00
    0   13    4     -0.26      0.00
    1   13    4      0.93      0.00
    2   13    4      0.69      0.00
    3   13    4     -0.23      0.00
    4   13    4     -1.49      0.00
    5   13    4      1.67      0.00
    6   13    4      0.56      0.00
    7   13    4      0.58      0.00
    8   13    4     -0.53      0.00
    9   13    4     -0.17      0.00
   10   13    4     -2.89      0.00
  -10   14    4     -0.65      0.00
   -9   14    4      1.11      0.00
   -8   14    4     -1.51      0.00
   -7   14    4     -0.01      0.00
   -6   14    4      0.44      0.00
   -5   14    4     -0.85      0.00
   -4   14    4      0.04      0.00
   -3   14    4      0.53      0.00
   -2   14    4     -0.25      0.00
   -1   14    4      0.16      0.00
    0   14    4      0.23      0.00
    1   14    4     -0.28      0.00
    2   14    4     -1.53      0.00
    3   14    4      0.05      0.00
    4   14    4      0.42      0.00
    5   14    4      1.39      0.00
    6   14    4      0.89      0.00
    7   14    4      3.72      0.00
    8   14    4     -0.42      0.00
    9   14    4     -0.50      0.00
   -9   15    4      1.18      0.00
   -8   15    4      0.27      0.00
   -7   15    4      0.11      0.00
   -6   15    4     -0.19      0.00
   -5   15    4     -0.45      0.00
   -4   15    4      0.59      0.00
   -3   15    4      0.74      0.00
   -2   15    4      0.04      0.00
   -1   15    4     -0.92      0.00
    0   15    4      1.04      0.00
    1   15    4     -1.16      0.00
    2   15    4      0.50      0.00
    3   15    4     -0.74      0.00
    4   15    4      1.21      0.00
    5   15    4     -0.69      0.00
    6   15    4      0.36      0.00
    7   15    4      0.55      0.00
    8   15    4      1.03      0.00
    9   15    4     -1.11      0.00
   -8   16    4      0.61      0.00
   -7   16    4      0.57      0.00
   -6   16    4     -1.95      0.00
   -5   16    4      0.49      0.00
   -4   16    4     -0.41      0.00
   -3   16    4      0.18      0.00
   -2   16    4      0.13      0.00
   -1   16    4     -1.06      0.00
    0   16    4     -0.63      0.00
    1   16    4     -1.22      0.00
    2   16    4     -0.50      0.00
    3   16    4     -0.47      0.00
    4   16    4      0.12      0.00
    5   16    4      0.54      0.00
    6   16    4      1.80      0.00
    7   16    4      0.02      0.00
    8   16    4      1.42      0.00
   -8   17    4     -1.87      0.00
   -7   17    4     -0.35      0.00
   -6   17    4      1.55      0.00
   -5   17    4      1.59      0.00
   -4   17    4      0.41      0.00
   -3   17    4     -0.41      0.00
   -2   17    4     -0.09      0.00
   -1   17    4      0.44      0.00
    0   17    4     -0.12      0.00
    1   17    4     -1.00      0.00
    2   17    4     -1.24      0.00
    3   17    4      0.03      0.00
    4   17    4     -0.05      0.00
    5   17    4     -0.85      0.00
    6   17    4      1.94      0.00
    7   17    4      0.60      0.00
   -7   18    4      0.62      0.00
   -6   18    4     -0.36      0.00
   -5   18    4      1.45      0.00
   -4   18    4      1.20      0.00
   -3   18    4     -1.76      0.00
   -2   18    4     -0.97      0.00
   -1   18    4      1.63      0.00
    0   18    4     -1.10      0.00
    1   18    4     -0.32      0.00
    2   18    4     -0.46      0.00
    3   18    4      0.87      0.00
    4   18    4     -0.83      0.00
    5   18    4      1.44      0.00
    6   18    4      0.41      0.00
   -6   19    4     -0.61      0.00
   -5   19    4     -1.26      0.00
   -4   19    4     -1.36      0.00
   -3   19    4      1.03      0.00
   -2   19    4      0.25      0.00
   -1   19    4      0.44      0.00
    0   19    4     -1.02      0.00
    1   19    4     -0.92      0.00
    2   19    4     -1.35      0.00
    3   19    4     -0.36      0.00
    4   19    4      1.91      0.00
    5   19    4     -0.27      0.00
   -2   20    4     -0.69      0.00
   -1   20    4      2.27      0.00
    0   20    4     -0.33      0.00
    1   20    4     -1.75      0.00
    2   20    4      0.34      0.00
    3   20    4      0.79      0.00
    0   21    4     -0.02      0.00
  -11    0    5      3.01      0.00
   -9    0    5     -3.05      0.00
   -7    0    5      3.00      0.00
   -5    0    5     -2.28      0.00
   -3    0    5     -3.79      0.00
   -1    0    5      8.69      0.00
    1    0    5    -34.30      0.00
    3    0    5      1.04      0.00
    5    0    5      3.47      0.00
    7    0    5      0.09      0.00
    9    0    5      0.49      0.00
   11    0    5     -1.93      0.00
  -12    1    5      2.49      0.00
  -11    1    5      0.22      0.00
  -10    1    5     -0.14      0.00
   -9    1    5     -0.36      0.00
   -8    1    5      0.34      0.00
   -7    1    5      0.43      0.00
   -6    1    5     -2.52      0.00
   -5    1    5      0.11      0.00
   -4    1    5      3.60      0.00
   -3    1    5      0.17      0.00
   -2    1    5      3.64      0.00
   -1    1    5    -11.58      0.00
    0    1    5     48.10      0.00
    1    1    5     34.43      0.00
    2    1    5      7.93      0.00
    3    1    5      3.20      0.00
    4    1    5     -5.28      0.00
    5    1    5      2.78      0.00
    6    1    5      0.21      0.00
    7    1    5      0.48      0.00
    8    1    5      0.23      0.00
    9    1    5     -3.11      0.00
   10    1    5     -0.08      0.00
   11    1    5      0.34      0.00
   12    1    5      2.53      0.00
  -12    2    5      0.36      0.00
  -11    2    5     -0.22      0.00
  -10    2    5     -0.23      0.00
   -9    2    5      0.59      0.00
   -8    2    5      0.14      0.00
   -7    2    5     -1.84      0.00
   -6    2    5      2.58      0.00
   -5    2    5      3.08      0.00
   -4    2    5      5.62      0.00
   -3    2    5     -1.98      0.00
   -2    2    5     -1.66      0.00
   -1    2    5      3.35      0.00
    0    2    5     31.47      0.00
    1    2    5     20.71      0.00
    2    2    5    -10.79      0.00
    3    2    5     -5.79      0.00
    4    2    5     -4.52      0.00
    5    2    5     -0.59      0.00
    6    2    5     -1.68      0.00
    7    2    5     -0.11      0.00
    8    2    5     -1.11      0.00
    9    2    5     -0.35      0.00
   10    2    5     -0.19      0.00
   11    2    5      2.53      0.00
   12    2    5      2.05      0.00
  -12    3    5      0.34      0.00
  -11    3    5     -2.69      0.00
  -10    3    5      0.48      0.00
   -9    3    5     -0.02      0.00
   -8    3    5     -0.03      0.00
   -7    3    5      1.09      0.00
   -6    3    5      2.71      0.00
   -5    3    5      0.37      0.00
   -4    3    5     -7.04      0.00
   -3    3    5     -3.88      0.00
   -2    3    5    -12.45      0.00
   -1    3    5      6.43      0.00
    0    3    5     22.44      0.00
    1    3    5     10.18      0.00
    2    3    5    -13.84      0.00
    3    3    5     -1.30      0.00
    4    3    5      1.43      0.00
    5    3    5     -0.29      0.00
    6    3    5      0.80      0.00
    7    3    5     -1.74      0.00
    8    3    5     -0.70      0.00
    9    3    5      0.57      0.00
   10    3    5      0.01      0.00
   11    3    5      0.15      0.00
   12    3    5     -0.13      0.00
  -12    4    5     -0.90      0.00
  -11    4    5     -0.88      0.00
  -10    4    5     -2.20      0.00
   -9    4    5     -0.50      0.00
   -8    4    5     -0.52      0.00
   -7    4    5      0.02      0.00
   -6    4    5      1.94      0.00
   -5    4    5     -1.67      0.00
   -4    4    5     -0.60      0.00
   -3    4    5     -1.96      0.00
   -2    4    5      0.25      0.00
   -1    4    5     -0.16      0.00
    0    4    5      9.57      0.00
    1    4    5     10.46      0.00
    2    4    5      1.68      0.00
    3    4    5      3.04      0.00
    4    4    5     -2.09      0.00
    5    4    5     -2.72      0.00
    6    4    5     -1.13      0.00
    7    4    5     -0.66      0.00
    8    4    5     -1.04      0.00
    9    4    5      0.89      0.00
   10    4    5      1.49      0.00
   11    4    5     -0.23      0.00
   12    4    5      1.93      0.00
  -12    5    5     -0.20      0.00
  -11    5    5      0.00      0.00
  -10    5    5      0.45      0.00
   -9    5    5      0.99      0.00
   -8    5    5      0.35      0.00
   -7    5    5      3.62      0.00
   -6    5    5     -0.70      0.00
   -5    5    5     -0.01      0.00
   -4    5    5     -2.16      0.00
   -3    5    5      0.48      0.00
   -2    5    5     -2.39      0.00
   -1    5    5      7.47      0.00
    1    5    5      1.76      0.00
    2    5    5      3.23      0.00
    3    5    5     -6.99      0.00
    4    5    5     -3.62      0.00
    5    5    5      0.16      0.00
    6    5    5     -0.86      0.00
    7    5    5     -0.64      0.00
    8    5    5     -0.54      0.00
    9    5    5      0.00      0.00
   10    5    5     -1.11      0.00
   11    5    5     -0.15      0.00
   12    5    5      1.30      0.00
  -13    6    5     -0.82      0.00
  -12    6    5     -0.36      0.00
  -11    6    5      1.29      0.00
  -10    6    5     -1.48      0.00
   -9    6    5     -0.07      0.00
   -8    6    5      0.94      0.00
   -7    6    5      0.56      0.00
   -6    6    5     -0.04      0.00
   -5    6    5     -0.90      0.00
   -4    6    5     -1.85      0.00
   -3    6    5     -5.07      0.00
   -2    6    5     -1.34      0.00
   -1    6    5      0.66      0.00
    0    6    5      3.05      0.00
    1    6    5      3.05      0.00
    2    6    5     -1.64      0.00
    3    6    5     -1.75      0.00
    4    6    5     -0.75      0.00
    5    6    5      0.42      0.00
    6    6    5      0.28      0.00
    7    6    5      0.52      0.00
    8    6    5      2.31      0.00
    9    6    5     -1.88      0.00
   10    6    5      0.68      0.00
   11    6    5      0.54      0.00
  -12    7    5      0.89      0.00
  -11    7    5     -3.36      0.00
  -10    7    5      0.78      0.00
   -9    7    5      0.39      0.00
   -8    7    5      0.26      0.00
   -7    7    5     -0.11      0.00
   -6    7    5     -1.28      0.00
   -5    7    5     -2.61      0.00
   -4    7    5     -3.47      0.00
   -3    7    5      1.07      0.00
   -2    7    5      3.08      0.00
   -1    7    5      2.00      0.00
    0    7    5      0.12      0.00
    1    7    5     -0.24      0.00
    2    7    5     -1.08      0.00
    3    7    5     -3.08      0.00
    4    7    5      0.63      0.00
    5    7    5     -1.18      0.00
    6    7    5     -4.51      0.00
    7    7    5      1.03      0.00
    8    7    5      0.34      0.00
    9    7    5     -0.46      0.00
   10    7    5      0.82      0.00
   11    7    5     -0.07      0.00
   12    7    5     -1.12      0.00
  -12    8    5     -0.89      0.00
  -11    8    5      1.73      0.00
  -10    8    5     -0.82      0.00
   -9    8    5     -0.29      0.00
   -8    8    5     -0.50      0.00
   -7    8    5     -0.40      0.00
   -6    8    5     -1.16      0.00
   -5    8    5     -2.31      0.00
   -4    8    5     -1.03      0.00
   -3    8    5      0.80      0.00
   -2    8    5      2.38      0.00
   -1    8    5     -1.77      0.00
    0    8    5     -3.50      0.00
    1    8    5     -2.24      0.00
    2    8    5     -2.11      0.00
    3    8    5     -0.60      0.00
    4    8    5     -2.44      0.00
    5    8    5     -0.82      0.00
    6    8    5      0.18      0.00
    7    8    5     -0.33      0.00
    8    8    5     -0.62      0.00
    9    8    5     -0.37      0.00
   10    8    5     -1.26      0.00
   11    8    5      0.80      0.00
  -12    9    5      0.07      0.00
  -11    9    5     -0.47      0.00
  -10    9    5      0.54      0.00
   -9    9    5     -0.06      0.00
   -8    9    5     -0.15      0.00
   -7    9    5      0.58      0.00
   -6    9    5     -0.36      0.00
   -5    9    5     -0.96      0.00
   -4    9    5      0.22      0.00
   -3    9    5      1.36      0.00
   -2    9    5     -0.69      0.00
   -1    9    5     -0.78      0.00
    0    9    5     -1.47      0.00
    1    9    5     -2.26      0.00
    2    9    5     -1.00      0.00
    3    9    5     -0.88      0.00
    4    9    5     -0.75      0.00
    5    9    5     -3.04      0.00
    6    9    5      0.22      0.00
    7    9    5      2.39      0.00
    8    9    5      0.08      0.00
    9    9    5     -0.24      0.00
   10    9    5     -1.46      0.00
   11    9    5     -0.64      0.00
  -12   10    5     -2.00      0.00
  -11   10    5     -0.36      0.00
  -10   10    5     -0.15      0.00
   -9   10    5      0.77      0.00
   -8   10    5      1.05      0.00
   -7   10    5     -0.35      0.00
   -6   10    5     -1.58      0.00
   -5   10    5     -0.40      0.00
   -4   10    5      0.18      0.00
   -3   10    5      1.96      0.00
   -2   10    5     -0.69      0.00
   -1   10    5     -0.90      0.00
    0   10    5     -0.66      0.00
    1   10    5     -1.41      0.00
    2   10    5     -1.19      0.00
    3   10    5      0.57      0.00
    4   10    5     -1.66      0.00
    5   10    5     -1.23      0.00
    6   10    5     -0.98      0.00
    7   10    5      0.13      0.00
    8   10    5     -2.00      0.00
    9   10    5      0.27      0.00
   10   10    5      1.24      0.00
   11   10    5      1.14      0.00
  -11   11    5     -0.25      0.00
  -10   11    5     -1.27      0.00
   -9   11    5      1.10      0.00
   -8   11    5     -0.31      0.00
   -7   11    5     -0.74      0.00
   -6   11    5      0.87      0.00
   -5   11    5      0.21      0.00
   -4   11    5      0.98      0.00
   -3   11    5      0.40      0.00
   -2   11    5     -0.12      0.00
   -1   11    5     -3.61      0.00
    0   11    5     -1.16      0.00
    1   11    5     -0.87      0.00
    2   11    5     -0.62      0.00
    3   11    5      0.04      0.00
    4   11    5      0.24      0.00
    5   11    5     -0.55      0.00
    6   11    5     -0.30      0.00
    7   11    5      0.50      0.00
    8   11    5     -0.75      0.00
    9   11    5     -1.26      0.00
   10   11    5      0.52      0.00
  -11   12    5     -2.16      0.00
  -10   12    5      0.37      0.00
   -9   12    5     -1.26      0.00
   -8   12    5      0.44      0.00
   -7   12    5     -0.30      0.00
   -6   12    5      1.53      0.00
   -5   12    5      1.37      0.00
   -4   12    5      0.18      0.00
   -3   12    5     -0.89      0.00
   -2   12    5     -1.53      0.00
   -1   12    5     -0.76      0.00
    0   12    5      0.87      0.00
    1   12    5      1.23      0.00
    2   12    5      0.65      0.00
    3   12    5     -1.58      0.00
    4   12    5     -0.19      0.00
    5   12    5     -0.55      0.00
    6   12    5      0.52      0.00
    7   12    5     -2.02      0.00
    8   12    5     -0.68      0.00
    9   12    5      0.41      0.00
   10   12    5     -0.34      0.00
  -10   13    5     -0.11      0.00
   -9   13    5      1.91      0.00
   -8   13    5     -0.75      0.00
   -7   13    5      3.31      0.00
   -6   13    5     -0.48      0.00
   -5   13    5     -1.07      0.00
   -4   13    5      1.83      0.00
   -3   13    5     -0.65      0.00
   -2   13    5     -0.89      0.00
   -1   13    5      0.51      0.00
    0   13    5     -0.72      0.00
    1   13    5     -0.07      0.00
    2   13    5     -0.17      0.00
    3   13    5      1.01      0.00
    4   13    5     -0.05      0.00
    5   13    5      1.60      0.00
    6   13    5     -1.14      0.00
    7   13    5      1.13      0.00
    8   13    5     -3.16      0.00
    9   13    5      1.07      0.00
   10   13    5      0.72      0.00
  -10   14    5     -0.83      0.00
   -9   14    5      0.69      0.00
   -8   14    5     -0.01      0.00
   -7   14    5      0.46      0.00
   -6   14    5      0.22      0.00
   -5   14    5      1.05      0.00
   -4   14    5     -0.13      0.00
   -3   14    5     -0.10      0.00
   -2   14    5     -0.71      0.00
   -1   14    5      0.10      0.00
    0   14    5     -0.24      0.00
    1   14    5     -0.32      0.00
    2   14    5      0.60      0.00
    3   14    5      0.03      0.00
    4   14    5     -0.41      0.00
    5   14    5     -0.34      0.00
    6   14    5      0.43      0.00
    7   14    5     -0.72      0.00
    8   14    5     -2.23      0.00
    9   14    5     -0.16      0.00
   -9   15    5      2.65      0.00
   -8   15    5     -0.03      0.00
   -7   15    5     -0.29      0.00
   -6   15    5     -0.49      0.00
   -5   15    5      0.50      0.00
   -4   15    5     -0.11      0.00
   -3   15    5      0.09      0.00
   -2   15    5     -1.01      0.00
   -1   15    5     -0.46      0.00
    0   15    5      0.16      0.00
    1   15    5     -0.22      0.00
    2   15    5      0.50      0.00
    3   15    5     -0.89      0.00
    4   15    5      0.75      0.00
    5   15    5      0.13      0.00
    6   15    5      0.95      0.00
    7   15    5     -1.56      0.00
    8   15    5      1.09      0.00
   -8   16    5      0.75      0.00
   -7   16    5      0.53      0.00
   -6   16    5      1.58      0.00
   -5   16    5      0.04      0.00
   -4   16    5     -1.19      0.00
   -3   16    5      0.47      0.00
   -2   16    5      0.77      0.00
   -1   16    5     -0.46      0.00
    0   16    5      0.40      0.00
    1   16    5     -0.11      0.00
    2   16    5     -0.35      0.00
    3   16    5      1.10      0.00
    4   16    5      0.64      0.00
    5   16    5      1.69      0.00
    6   16    5     -1.15      0.00
    7   16    5     -1.33      0.00
    8   16    5     -0.01      0.00
   -8   17    5     -0.97      0.00
   -7   17    5      1.42      0.00
   -6   17    5      0.38      0.00
   -5   17    5     -0.36      0.00
   -4   17    5     -1.31      0.00
   -3   17    5     -1.57      0.00
   -2   17    5      0.76      0.00
   -1   17    5      0.60      0.00
    0   17    5     -0.51      0.00
    1   17    5      0.04      0.00
    2   17    5     -0.45      0.00
    3   17    5     -0.52      0.00
    4   17    5      0.31      0.00
    5   17    5     -0.05      0.00
    6   17    5      0.08      0.00
    7   17    5     -2.23      0.00
   -7   18    5     -0.63      0.00
   -6   18    5     -1.29      0.00
   -5   18    5     -0.59      0.00
   -4   18    5      0.89      0.00
   -3   18    5      0.62      0.00
   -2   18    5      1.21      0.00
   -1   18    5      0.53      0.00
    0   18    5      0.68      0.00
    1   18    5     -0.12      0.00
    2   18    5     -0.75      0.00
    3   18    5      0.07      0.00
    4   18    5     -0.92      0.00
    5   18    5     -0.77      0.00
    6   18    5     -2.45      0.00
   -6   19    5     -1.31      0.00
   -5   19    5     -0.40      0.00
   -4   19    5      2.75      0.00
   -3   19    5      0.73      0.00
   -2   19    5     -0.10      0.00
   -1   19    5      1.96      0.00
    0   19    5      0.13      0.00
    1   19    5      1.26      0.00
    2   19    5     -0.51      0.00
    3   19    5      0.75      0.00
    4   19    5      0.38      0.00
    5   19    5     -0.79      0.00
   -1   20    5      1.12      0.00
    0   20    5      0.25      0.00
    1   20    5     -0.40      0.00
    2   20    5      0.51      0.00
  -12    0    6      1.93      0.00
  -10    0    6      0.06      0.00
   -8    0    6      0.05      0.00
   -6    0    6     -2.20      0.00
   -4    0    6      1.04      0.00
   -2    0    6      8.83      0.00
    0    0    6     54.60      0.00
    4    0    6      4.77      0.00
    6    0    6      0.21      0.00
    8    0    6      0.94      0.00
   10    0    6      0.77      0.00
   12    0    6      0.60      0.00
  -12    1    6     -1.23      0.00
  -11    1    6      0.30      0.00
  -10    1    6      1.44      0.00
   -9    1    6     -0.34      0.00
   -8    1    6     -3.06      0.00
   -7    1    6     -0.43      0.00
   -6    1    6      2.04      0.00
   -5    1    6      0.16      0.00
   -4    1    6      0.20      0.00
   -3    1    6     -4.86      0.00
   -2    1    6     -1.21      0.00
   -1    1    6      4.25      0.00
    0    1    6     19.89      0.00
    1    1    6    -14.47      0.00
    2    1    6    -14.33      0.00
    3    1    6      0.46      0.00
    4    1    6     -2.01      0.00
    5    1    6      6.03      0.00
    6    1    6     -0.05      0.00
    7    1    6      0.92      0.00
    8    1    6      0.99      0.00
    9    1    6      1.95      0.00
   10    1    6      2.61      0.00
   11    1    6     -0.58      0.00
   12    1    6     -0.65      0.00
  -12    2    6     -2.30      0.00
  -11    2    6      0.29      0.00
  -10    2    6      0.88      0.00
   -9    2    6     -1.48      0.00
   -8    2    6     -0.76      0.00
   -7    2    6      0.58      0.00
   -6    2    6     -1.46      0.00
   -5    2    6     -5.60      0.00
   -4    2    6     -1.94      0.00
   -3    2    6      2.24      0.00
   -2    2    6     -1.25      0.00
   -1    2    6      7.87      0.00
    0    2    6     23.15      0.00
    1    2    6     10.95      0.00
    2    2    6      2.98      0.00
    3    2    6     11.03      0.00
    4    2    6      2.00      0.00
    5    2    6      0.70      0.00
    6    2    6     -0.04      0.00
    7    2    6      0.23      0.00
    8    2    6      2.83      0.00
    9    2    6      0.49      0.00
   10    2    6     -0.88      0.00
   11    2    6     -0.04      0.00
   12    2    6     -0.11      0.00
  -13    3    6     -0.99      0.00
  -12    3    6      2.36      0.00
  -11    3    6     -1.05      0.00
  -10    3    6      0.03      0.00
   -9    3    6     -0.61      0.00
   -8    3    6      0.36      0.00
   -7    3    6      0.48      0.00
   -6    3    6     -1.60      0.00
   -5    3    6     -1.15      0.00
   -4    3    6      3.93      0.00
   -3    3    6      4.85      0.00
   -2    3    6      3.34      0.00
   -1    3    6      8.57      0.00
    0    3    6     20.08      0.00
    1    3    6     25.07      0.00
    2    3    6      8.29      0.00
    3    3    6      2.59      0.00
    4    3    6     -0.99      0.00
    5    3    6     -0.66      0.00
    6    3    6     -1.10      0.00
    7    3    6     -0.77      0.00
    8    3    6      1.00      0.00
    9    3    6      0.92      0.00
   10    3    6     -1.49      0.00
   11    3    6      0.16      0.00
   12    3    6      2.02      0.00
  -13    4    6     -0.59      0.00
  -12    4    6     -0.06      0.00
  -11    4    6      1.41      0.00
  -10    4    6     -0.28      0.00
   -9    4    6      1.78      0.00
   -8    4    6      0.50      0.00
   -7    4    6     -0.36      0.00
   -6    4    6     -0.68      0.00
   -5    4    6      2.72      0.00
   -4    4    6      1.07      0.00
   -3    4    6      1.63      0.00
   -2    4    6     -3.68      0.00
   -1    4    6      1.60      0.00
    0    4    6     14.33      0.00
    3    4    6     -3.89      0.00
    4    4    6      0.51      0.00
    5    4    6      0.57      0.00
    6    4    6     -0.28      0.00
    7    4    6      1.48      0.00
    8    4    6     -0.65      0.00
    9    4    6     -0.89      0.00
   10    4    6     -1.22      0.00
   11    4    6     -0.97      0.00
   12    4    6      1.52      0.00
  -12    5    6      1.88      0.00
  -11    5    6     -0.17      0.00
  -10    5    6     -1.64      0.00
   -9    5    6     -0.32      0.00
   -8    5    6     -0.66      0.00
   -7    5    6     -0.83      0.00
   -6    5    6     -0.95      0.00
   -5    5    6      1.18      0.00
   -4    5    6      0.29      0.00
   -3    5    6      0.57      0.00
   -2    5    6      0.71      0.00
   -1    5    6      5.65      0.00
    0    5    6      6.97      0.00
    2    5    6     -0.20      0.00
    3    5    6      0.42      0.00
    4    5    6      3.80      0.00
    5    5    6     -0.87      0.00
    6    5    6     -0.73      0.00
    7    5    6      0.20      0.00
    8    5    6     -0.54      0.00
    9    5    6     -1.88      0.00
   10    5    6      0.01      0.00
   11    5    6      1.36      0.00
   12    5    6     -1.58      0.00
  -13    6    6      0.34      0.00
  -12    6    6     -0.63      0.00
  -11    6    6      0.56      0.00
  -10    6    6      0.96      0.00
   -9    6    6      0.48      0.00
   -8    6    6     -0.13      0.00
   -7    6    6     -0.08      0.00
   -6    6    6      0.84      0.00
   -5    6    6      0.57      0.00
   -4    6    6      0.47      0.00
   -3    6    6      3.55      0.00
   -2    6    6      0.83      0.00
   -1    6    6      4.81      0.00
    0    6    6      8.17      0.00
    1    6    6     -0.12      0.00
    2    6    6      0.60      0.00
    3    6    6     -0.22      0.00
    4    6    6     -3.57      0.00
    5    6    6     -2.51      0.00
    6    6    6     -0.06      0.00
    7    6    6      2.22      0.00
    8    6    6     -0.50      0.00
    9    6    6     -1.67      0.00
   10    6    6      1.06      0.00
   11    6    6     -2.86      0.00
   12    6    6      0.10      0.00
  -12    7    6      1.42      0.00
  -11    7    6      0.14      0.00
  -10    7    6      1.39      0.00
   -9    7    6     -0.08      0.00
   -8    7    6      0.11      0.00
   -7    7    6     -0.87      0.00
   -6    7    6      0.84      0.00
   -5    7    6      1.05      0.00
   -4    7    6      2.83      0.00
   -3    7    6      0.24      0.00
   -2    7    6     -1.93      0.00
   -1    7    6     -0.63      0.00
    0    7    6      0.72      0.00
    1    7    6      2.59      0.00
    2    7    6     -0.25      0.00
    3    7    6     -2.98      0.00
    4    7    6     -1.00      0.00
    5    7    6     -1.23      0.00
    6    7    6      0.83      0.00
    7    7    6      0.70      0.00
    8    7    6      1.16      0.00
    9    7    6     -0.77      0.00
   10    7    6     -0.12      0.00
   11    7    6      0.47      0.00
  -12    8    6      0.11      0.00
  -11    8    6      0.14      0.00
  -10    8    6     -1.05      0.00
   -9    8    6     -0.17      0.00
   -8    8    6      0.68      0.00
   -7    8    6      0.61      0.00
   -6    8    6      0.72      0.00
   -5    8    6      0.71      0.00
   -4    8    6     -0.13      0.00
   -3    8    6     -2.51      0.00
   -2    8    6      1.87      0.00
   -1    8    6      3.03      0.00
    0    8    6      2.29      0.00
    1    8    6     -0.56      0.00
    2    8    6      0.16      0.00
    3    8    6     -0.91      0.00
    4    8    6     -2.74      0.00
    5    8    6      1.63      0.00
    6    8    6     -0.23      0.00
    7    8    6      0.67      0.00
    8    8    6     -0.43      0.00
    9    8    6     -0.62      0.00
   10    8    6     -1.45      0.00
   11    8    6      1.43      0.00
  -12    9    6     -2.07      0.00
  -11    9    6     -0.08      0.00
  -10    9    6     -0.06      0.00
   -9    9    6     -0.22      0.00
   -8    9    6     -2.31      0.00
   -7    9    6     -0.79      0.00
   -6    9    6     -0.04      0.00
   -5    9    6      1.19      0.00
   -4    9    6     -1.04      0.00
   -3    9    6     -0.77      0.00
   -2    9    6     -0.57      0.00
   -1    9    6      4.27      0.00
    0    9    6     -0.38      0.00
    1    9    6     -0.55      0.00
    2    9    6     -1.60      0.00
    3    9    6     -1.42      0.00
    4    9    6     -0.20      0.00
    5    9    6     -1.13      0.00
    6    9    6      2.17      0.00
    7    9    6     -0.24      0.00
    8    9    6     -0.49      0.00
    9    9    6      0.77      0.00
   10    9    6     -0.22      0.00
   11    9    6     -0.12      0.00
  -11   10    6     -0.15      0.00
  -10   10    6     -1.08      0.00
   -9   10    6      0.57      0.00
   -8   10    6     -1.40      0.00
   -7   10    6      0.34      0.00
   -6   10    6      0.22      0.00
   -5   10    6     -0.59      0.00
   -4   10    6     -1.20      0.00
   -3   10    6      0.04      0.00
   -2   10    6      1.52      0.00
   -1   10    6     -0.36      0.00
    0   10    6      0.46      0.00
    1   10    6     -1.91      0.00
    2   10    6     -0.80      0.00
    3   10    6      0.24      0.00
    4   10    6     -0.42      0.00
    5   10    6     -0.11      0.00
    6   10    6     -0.45      0.00
    7   10    6      2.37      0.00
    8   10    6     -0.15      0.00
    9   10    6     -0.57      0.00
   10   10    6     -0.43      0.00
   11   10    6     -3.09      0.00
  -11   11    6     -2.04      0.00
  -10   11    6     -0.36      0.00
   -9   11    6     -0.56      0.00
   -8   11    6      0.96      0.00
   -7   11    6      1.38      0.00
   -6   11    6      1.88      0.00
   -5   11    6     -0.93      0.00
   -4   11    6     -1.53      0.00
   -3   11    6      0.03      0.00
   -2   11    6      1.29      0.00
   -1   11    6      1.34      0.00
    0   11    6      0.79      0.00
    1   11    6     -0.27      0.00
    2   11    6     -1.86      0.00
    3   11    6     -0.41      0.00
    4   11    6      0.10      0.00
    5   11    6      0.36      0.00
    6   11    6     -0.18      0.00
    7   11    6      0.12      0.00
    8   11    6      0.54      0.00
    9   11    6      0.26      0.00
   10   11    6     -0.06      0.00
  -11   12    6     -0.23      0.00
  -10   12    6     -0.26      0.00
   -9   12    6      0.44      0.00
   -8   12    6      1.31      0.00
   -7   12    6     -0.07      0.00
   -6   12    6     -1.29      0.00
   -5   12    6      0.31      0.00
   -4   12    6      1.17      0.00
   -3   12    6      0.32      0.00
   -2   12    6      2.36      0.00
   -1   12    6     -0.68      0.00
    0   12    6     -1.49      0.00
    1   12    6     -0.56      0.00
    2   12    6     -0.63      0.00
    3   12    6     -1.00      0.00
    4   12    6      0.50      0.00
    5   12    6     -0.80      0.00
    6   12    6      0.33      0.00
    7   12    6      1.10      0.00
    8   12    6     -0.44      0.00
    9   12    6      1.17      0.00
   10   12    6     -0.84      0.00
  -10   13    6     -0.79      0.00
   -9   13    6     -0.09      0.00
   -8   13    6     -0.99      0.00
   -7   13    6      0.33      0.00
   -6   13    6     -0.50      0.00
   -5   13    6      0.69      0.00
   -4   13    6      0.52      0.00
   -3   13    6      0.82      0.00
   -2   13    6      0.56      0.00
   -1   13    6     -0.82      0.00
    0   13    6     -0.42      0.00
    1   13    6      0.22      0.00
    2   13    6      0.41      0.00
    3   13    6     -0.21      0.00
    4   13    6     -1.10      0.00
    5   13    6      1.11      0.00
    6   13    6     -0.42      0.00
    7   13    6     -0.11      0.00
    8   13    6     -0.76      0.00
    9   13    6      0.88      0.00
  -10   14    6     -0.16      0.00
   -9   14    6      2.10      0.00
   -8   14    6     -1.78      0.00
   -7   14    6      0.09      0.00
   -6   14    6      1.00      0.00
   -5   14    6     -0.70      0.00
   -4   14    6      0.33      0.00
   -3   14    6      0.43      0.00
   -2   14    6     -0.80      0.00
   -1   14    6     -0.10      0.00
    0   14    6     -0.09      0.00
    1   14    6      0.32      0.00
    2   14    6     -0.79      0.00
    3   14    6     -0.71      0.00
    4   14    6     -0.14      0.00
    5   14    6      0.75      0.00
    6   14    6     -0.08      0.00
    7   14    6      2.92      0.00
    8   14    6     -0.13      0.00
    9   14    6      1.30      0.00
   -9   15    6      0.39      0.00
   -8   15    6     -1.20      0.00
   -7   15    6      0.97      0.00
   -6   15    6      0.02      0.00
   -5   15    6     -0.81      0.00
   -4   15    6      0.64      0.00
   -3   15    6      0.73      0.00
   -2   15    6     -1.09      0.00
   -1   15    6     -0.85      0.00
    0   15    6      1.08      0.00
    1   15    6     -0.52      0.00
    2   15    6      0.48      0.00
    3   15    6     -0.09      0.00
    4   15    6     -0.08      0.00
    5   15    6     -1.54      0.00
    6   15    6     -0.61      0.00
    7   15    6      0.41      0.00
    8   15    6      2.13      0.00
   -8   16    6      1.27      0.00
   -7   16    6      0.51      0.00
   -6   16    6     -1.50      0.00
   -5   16    6     -0.56      0.00
   -4   16    6     -0.98      0.00
   -3   16    6      0.08      0.00
   -2   16    6     -0.04      0.00
   -1   16    6     -1.48      0.00
    0   16    6     -0.26      0.00
    1   16    6     -1.30      0.00
    2   16    6     -0.23      0.00
    3   16    6     -0.89      0.00
    4   16    6     -0.12      0.00
    5   16    6     -1.17      0.00
    6   16    6      1.50      0.00
    7   16    6      0.04      0.00
    8   16    6      0.52      0.00
   -8   17    6     -0.93      0.00
   -7   17    6     -0.05      0.00
   -6   17    6     -0.42      0.00
   -5   17    6      0.70      0.00
   -4   17    6      0.28      0.00
   -3   17    6      0.48      0.00
   -2   17    6      0.55      0.00
   -1   17    6     -0.50      0.00
    0   17    6     -0.08      0.00
    1   17    6     -1.32      0.00
    2   17    6     -1.56      0.00
    3   17    6     -0.58      0.00
    4   17    6      0.05      0.00
    5   17    6      0.00      0.00
    6   17    6      1.28      0.00
    7   17    6      0.76      0.00
   -7   18    6     -0.77      0.00
   -6   18    6     -0.53      0.00
   -5   18    6      2.04      0.00
   -4   18    6      1.50      0.00
   -3   18    6     -0.99      0.00
   -2   18    6     -0.70      0.00
   -1   18    6      0.45      0.00
    0   18    6     -1.20      0.00
    1   18    6     -0.02      0.00
    2   18    6     -0.79      0.00
    3   18    6      1.22      0.00
    4   18    6     -1.46      0.00
    5   18    6      2.77      0.00
    6   18    6      0.84      0.00
   -6   19    6     -0.53      0.00
   -5   19    6     -1.31      0.00
   -4   19    6     -0.69      0.00
   -3   19    6     -0.20      0.00
   -2   19    6      1.27      0.00
   -1   19    6      0.05      0.00
    0   19    6     -1.30      0.00
    1   19    6     -1.24      0.00
    2   19    6     -1.55      0.00
    3   19    6     -0.45      0.00
    4   19    6      2.12      0.00
    0   20    6     -0.17      0.00
    1   20    6     -0.04      0.00
    2   20    6     -0.46      0.00
  -13    0    7      0.03      0.00
  -11    0    7      0.27      0.00
   -9    0    7     -2.06      0.00
   -7    0    7      1.97      0.00
   -5    0    7     -1.18      0.00
   -3    0    7    -11.00      0.00
   -1    0    7      3.81      0.00
    1    0    7    -12.14      0.00
    3    0    7      2.89      0.00
    5    0    7      2.97      0.00
    7    0    7      0.10      0.00
    9    0    7     -0.54      0.00
   11    0    7     -1.26      0.00
  -13    1    7     -0.92      0.00
  -12    1    7      0.37      0.00
  -11    1    7      0.90      0.00
  -10    1    7     -0.71      0.00
   -9    1    7     -1.03      0.00
   -8    1    7      0.77      0.00
   -7    1    7      0.72      0.00
   -6    1    7     -1.95      0.00
   -5    1    7     -0.49      0.00
   -4    1    7      1.47      0.00
   -3    1    7     -2.19      0.00
   -2    1    7     -2.47      0.00
   -1    1    7     11.62      0.00
    0    1    7     37.34      0.00
    1    1    7     12.74      0.00
    2    1    7      5.79      0.00
    3    1    7      0.93      0.00
    4    1    7     -2.98      0.00
    5    1    7      3.43      0.00
    6    1    7      0.91      0.00
    7    1    7      0.27      0.00
    8    1    7      0.50      0.00
    9    1    7     -1.29      0.00
   10    1    7     -0.44      0.00
   11    1    7     -1.45      0.00
   12    1    7      1.78      0.00
  -13    2    7      2.34      0.00
  -12    2    7      0.43      0.00
  -11    2    7     -1.28      0.00
  -10    2    7     -0.17      0.00
   -9    2    7      0.65      0.00
   -8    2    7      0.27      0.00
   -7    2    7     -0.86      0.00
   -6    2    7      1.35      0.00
   -5    2    7      2.39      0.00
   -4    2    7      4.91      0.00
   -3    2    7     -3.14      0.00
   -2    2    7      3.87      0.00
   -1    2    7      4.34      0.00
    0    2    7     20.59      0.00
    1    2    7     12.26      0.00
    2    2    7    -11.69      0.00
    3    2    7     -5.44      0.00
    4    2    7     -5.37      0.00
    6    2    7     -0.80      0.00
    7    2    7      1.82      0.00
    8    2    7     -0.38      0.00
    9    2    7     -0.61      0.00
   10    2    7      0.63      0.00
   11    2    7      2.71      0.00
   12    2    7      1.03      0.00
  -13    3    7     -1.81      0.00
  -12    3    7      0.03      0.00
  -11    3    7     -2.57      0.00
  -10    3    7      1.31      0.00
   -9    3    7     -0.81      0.00
   -8    3    7     -0.48      0.00
   -7    3    7     -0.80      0.00
   -6    3    7      1.04      0.00
   -5    3    7      0.98      0.00
   -4    3    7     -5.66      0.00
   -3    3    7     -2.03      0.00
   -2    3    7     -7.59      0.00
   -1    3    7      7.67      0.00
    0    3    7     16.02      0.00
    2    3    7     -6.91      0.00
    3    3    7     -2.76      0.00
    4    3    7      1.95      0.00
    5    3    7      1.19      0.00
    7    3    7     -1.65      0.00
    8    3    7      0.25      0.00
    9    3    7      1.16      0.00
   10    3    7     -0.73      0.00
   11    3    7      2.05      0.00
   12    3    7      1.46      0.00
  -13    4    7     -1.51      0.00
  -12    4    7     -0.63      0.00
  -11    4    7     -1.10      0.00
  -10    4    7     -2.95      0.00
   -9    4    7      0.05      0.00
   -8    4    7     -1.54      0.00
   -7    4    7      0.63      0.00
   -6    4    7      1.95      0.00
   -5    4    7     -0.99      0.00
   -4    4    7     -0.77      0.00
   -3    4    7     -0.67      0.00
   -2    4    7      2.23      0.00
   -1    4    7      0.75      0.00
    0    4    7     12.02      0.00
    1    4    7     10.65      0.00
    2    4    7     -1.42      0.00
    3    4    7      4.62      0.00
    4    4    7      1.06      0.00
    5    4    7     -1.35      0.00
    6    4    7     -1.12      0.00
    7    4    7     -0.58      0.00
    8    4    7     -0.30      0.00
    9    4    7      0.99      0.00
   10    4    7      2.98      0.00
   11    4    7     -0.14      0.00
   12    4    7      1.79      0.00
  -12    5    7     -0.40      0.00
  -11    5    7      0.30      0.00
  -10    5    7     -0.10      0.00
   -9    5    7      1.23      0.00
   -8    5    7      0.45      0.00
   -7    5    7      1.98      0.00
   -6    5    7      0.10      0.00
   -5    5    7     -0.08      0.00
   -4    5    7      0.04      0.00
   -3    5    7      3.47      0.00
   -2    5    7     -3.81      0.00
   -1    5    7      5.44      0.00
    0    5    7      0.15      0.00
    1    5    7      3.73      0.00
    2    5    7      2.69      0.00
    3    5    7     -4.30      0.00
    4    5    7     -2.20      0.00
    5    5    7      0.31      0.00
    6    5    7     -0.64      0.00
    7    5    7      0.02      0.00
    8    5    7     -0.54      0.00
    9    5    7      0.93      0.00
   10    5    7     -0.99      0.00
   11    5    7     -1.35      0.00
   12    5    7     -0.03      0.00
  -13    6    7      0.03      0.00
  -12    6    7     -0.82      0.00
  -11    6    7      1.82      0.00
  -10    6    7     -0.88      0.00
   -9    6    7      0.04      0.00
   -8    6    7     -0.44      0.00
   -7    6    7      0.41      0.00
   -6    6    7      0.02      0.00
   -5    6    7     -0.38      0.00
   -4    6    7     -0.12      0.00
   -3    6    7     -2.37      0.00
   -2    6    7     -2.07      0.00
   -1    6    7     -2.40      0.00
    0    6    7      3.49      0.00
    1    6    7      3.67      0.00
    2    6    7     -0.41      0.00
    3    6    7     -0.74      0.00
    4    6    7      0.64      0.00
    5    6    7      0.54      0.00
    6    6    7      0.84      0.00
    7    6    7     -0.71      0.00
    8    6    7      1.76      0.00
    9    6    7     -1.54      0.00
   10    6    7      1.01      0.00
   11    6    7     -0.69      0.00
  -12    7    7      0.53      0.00
  -11    7    7     -2.30      0.00
  -10    7    7      0.93      0.00
   -9    7    7     -0.48      0.00
   -8    7    7      0.48      0.00
   -7    7    7      0.27      0.00
   -6    7    7     -0.42      0.00
   -5    7    7     -1.86      0.00
   -4    7    7     -1.41      0.00
   -3    7    7     -0.30      0.00
   -2    7    7      2.62      0.00
   -1    7    7      1.13      0.00
    0    7    7      0.62      0.00
    1    7    7      1.72      0.00
    2    7    7      0.36      0.00
    3    7    7     -2.54      0.00
    4    7    7      1.03      0.00
    5    7    7     -1.07      0.00
    6    7    7     -4.37      0.00
    7    7    7      1.59      0.00
    8    7    7      0.27      0.00
    9    7    7     -1.20      0.00
   10    7    7      0.41      0.00
   11    7    7      0.52      0.00
  -12    8    7     -0.21      0.00
  -11    8    7      1.30      0.00
  -10    8    7     -0.70      0.00
   -9    8    7     -0.34      0.00
   -8    8    7      0.47      0.00
   -7    8    7      0.00      0.00
   -6    8    7     -1.39      0.00
   -5    8    7      0.65      0.00
   -4    8    7     -2.56      0.00
   -3    8    7      0.86      0.00
   -2    8    7      1.12      0.00
   -1    8    7     -0.97      0.00
    0    8    7     -1.87      0.00
    1    8    7     -0.75      0.00
    2    8    7     -1.13      0.00
    3    8    7      0.37      0.00
    4    8    7     -2.26      0.00
    5    8    7     -0.40      0.00
    6    8    7     -0.35      0.00
    7    8    7     -0.52      0.00
    8    8    7      0.79      0.00
    9    8    7      0.17      0.00
   10    8    7     -1.53      0.00
   11    8    7      0.46      0.00
  -12    9    7      0.27      0.00
  -11    9    7     -0.41      0.00
  -10    9    7      0.16      0.00
   -9    9    7     -0.33      0.00
   -8    9    7     -0.01      0.00
   -7    9    7      1.59      0.00
   -6    9    7     -0.58      0.00
   -5    9    7     -0.86      0.00
   -4    9    7      1.18      0.00
   -3    9    7      0.41      0.00
   -2    9    7     -0.64      0.00
   -1    9    7     -0.57      0.00
    0    9    7     -0.93      0.00
    1    9    7     -0.45      0.00
    2    9    7     -0.49      0.00
    3    9    7     -2.00      0.00
    4    9    7     -0.84      0.00
    5    9    7     -3.48      0.00
    6    9    7      0.01      0.00
    7    9    7      1.92      0.00
    8    9    7     -0.49      0.00
    9    9    7     -0.08      0.00
   10    9    7     -1.83      0.00
   11    9    7     -0.86      0.00
  -11   10    7     -0.43      0.00
  -10   10    7     -0.52      0.00
   -9   10    7      0.92      0.00
   -8   10    7      1.31      0.00
   -7   10    7     -0.70      0.00
   -6   10    7     -0.81      0.00
   -5   10    7      0.49      0.00
   -4   10    7     -0.34      0.00
   -3   10    7      1.64      0.00
   -2   10    7     -0.87      0.00
   -1   10    7      0.10      0.00
    0   10    7      1.14      0.00
    1   10    7     -0.64      0.00
    2   10    7     -0.67      0.00
    3   10    7      0.32      0.00
    4   10    7     -2.44      0.00
    5   10    7     -0.99      0.00
    6   10    7     -0.63      0.00
    7   10    7      0.03      0.00
    8   10    7     -1.06      0.00
    9   10    7     -0.18      0.00
   10   10    7      1.18      0.00
   11   10    7      0.81      0.00
  -11   11    7     -0.98      0.00
  -10   11    7     -1.11      0.00
   -9   11    7      1.60      0.00
   -8   11    7     -0.54      0.00
   -7   11    7     -0.80      0.00
   -6   11    7      0.43      0.00
   -5   11    7      0.18      0.00
   -4   11    7      0.85      0.00
   -3   11    7     -0.34      0.00
   -2   11    7     -0.10      0.00
   -1   11    7     -1.26      0.00
    0   11    7      0.75      0.00
    1   11    7     -0.33      0.00
    2   11    7     -1.33      0.00
    3   11    7     -0.48      0.00
    4   11    7      0.24      0.00
    5   11    7     -1.06      0.00
    6   11    7     -0.03      0.00
    7   11    7      1.70      0.00
    8   11    7     -0.46      0.00
    9   11    7     -0.86      0.00
   10   11    7     -0.76      0.00
  -11   12    7     -2.50      0.00
  -10   12    7     -0.29      0.00
   -9   12    7     -1.30      0.00
   -8   12    7      0.77      0.00
   -7   12    7     -0.35      0.00
   -6   12    7      2.03      0.00
   -5   12    7      1.70      0.00
   -4   12    7     -0.29      0.00
   -3   12    7     -0.11      0.00
   -2   12    7     -0.86      0.00
   -1   12    7      0.06      0.00
    0   12    7      1.99      0.00
    1   12    7      0.89      0.00
    2   12    7      1.03      0.00
    3   12    7     -1.54      0.00
    4   12    7     -0.08      0.00
    5   12    7     -0.97      0.00
    6   12    7      0.55      0.00
    7   12    7     -1.78      0.00
    8   12    7     -0.24      0.00
    9   12    7     -0.06      0.00
   10   12    7     -0.13      0.00
  -10   13    7     -0.49      0.00
   -9   13    7      1.43      0.00
   -8   13    7     -0.69      0.00
   -7   13    7      3.01      0.00
   -6   13    7     -0.03      0.00
   -5   13    7     -1.23      0.00
   -4   13    7      1.58      0.00
   -3   13    7     -1.13      0.00
   -2   13    7      0.34      0.00
   -1   13    7      0.98      0.00
    0   13    7      0.29      0.00
    1   13    7     -0.16      0.00
    2   13    7     -0.21      0.00
    3   13    7      0.48      0.00
    4   13    7     -0.26      0.00
    5   13    7      1.13      0.00
    6   13    7     -1.13      0.00
    7   13    7      2.08      0.00
    8   13    7     -2.89      0.00
    9   13    7      0.71      0.00
  -10   14    7     -1.91      0.00
   -9   14    7     -0.53      0.00
   -8   14    7     -0.26      0.00
   -7   14    7      1.32      0.00
   -6   14    7     -0.21      0.00
   -5   14    7      0.57      0.00
   -4   14    7      0.47      0.00
   -3   14    7     -0.31      0.00
   -2   14    7      0.15      0.00
   -1   14    7      1.20      0.00
    0   14    7      0.01      0.00
    1   14    7      0.32      0.00
    2   14    7     -0.25      0.00
    3   14    7     -0.80      0.00
    4   14    7      0.02      0.00
    5   14    7      0.03      0.00
    6   14    7      1.19      0.00
    7   14    7      0.76      0.00
    8   14    7     -2.77      0.00
    9   14    7     -1.02      0.00
   -9   15    7      2.33      0.00
   -8   15    7      0.21      0.00
   -7   15    7      0.56      0.00
   -6   15    7     -0.67      0.00
   -5   15    7      0.72      0.00
   -4   15    7     -0.20      0.00
   -3   15    7      0.79      0.00
   -2   15    7     -0.40      0.00
   -1   15    7      0.34      0.00
    0   15    7      0.09      0.00
    1   15    7     -0.10      0.00
    2   15    7      0.65      0.00
    3   15    7     -0.61      0.00
    4   15    7      0.28      0.00
    5   15    7      1.00      0.00
    6   15    7      2.00      0.00
    7   15    7     -1.59      0.00
    8   15    7      0.66      0.00
   -8   16    7     -0.12      0.00
   -7   16    7     -1.01      0.00
   -6   16    7      1.66      0.00
   -5   16    7      0.42      0.00
   -4   16    7     -0.45      0.00
   -3   16    7      0.93      0.00
   -2   16    7      0.73      0.00
   -1   16    7     -0.91      0.00
    0   16    7      0.28      0.00
    1   16    7     -0.09      0.00
    2   16    7     -0.29      0.00
    3   16    7      1.55      0.00
    4   16    7      1.71      0.00
    5   16    7      1.86      0.00
    6   16    7      0.35      0.00
    7   16    7     -1.05      0.00
   -8   17    7     -1.32      0.00
   -7   17    7      1.48      0.00
   -6   17    7      0.89      0.00
   -5   17    7      0.97      0.00
   -4   17    7     -0.46      0.00
   -3   17    7     -1.56      0.00
   -2   17    7     -0.63      0.00
   -1   17    7     -0.45      0.00
    0   17    7      0.29      0.00
    1   17    7      0.36      0.00
    2   17    7     -0.72      0.00
    3   17    7     -0.05      0.00
    4   17    7      0.27      0.00
    5   17    7      1.07      0.00
    6   17    7     -0.81      0.00
    7   17    7     -1.14      0.00
   -7   18    7      0.31      0.00
   -6   18    7      0.85      0.00
   -5   18    7     -0.13      0.00
   -4   18    7      0.07      0.00
   -3   18    7      0.37      0.00
   -2   18    7      1.46      0.00
   -1   18    7     -0.61      0.00
    0   18    7      0.82      0.00
    1   18    7     -0.38      0.00
    2   18    7     -0.43      0.00
    3   18    7     -0.47      0.00
    4   18    7     -0.65      0.00
    5   18    7     -0.79      0.00
    6   18    7     -1.85      0.00
   -5   19    7     -0.83      0.00
   -4   19    7      3.13      0.00
   -3   19    7      0.17      0.00
   -2   19    7      0.21      0.00
   -1   19    7      0.74      0.00
    0   19    7      0.71      0.00
    1   19    7      1.45      0.00
    2   19    7     -1.08      0.00
    3   19    7      1.30      0.00
    1   20    7     -0.38      0.00
    2   20    7     -0.11      0.00
  -12    0    8      2.62      0.00
  -10    0    8      0.13      0.00
   -8    0    8      0.77      0.00
   -6    0    8     -1.34      0.00
   -4    0    8      3.42      0.00
   -2    0    8     16.21      0.00
    0    0    8     21.96      0.00
    2    0    8     -3.41      0.00
    4    0    8      4.51      0.00
    6    0    8      0.78      0.00
    8    0    8      1.01      0.00
   10    0    8      0.34      0.00
  -13    1    8      1.29      0.00
  -12    1    8     -0.20      0.00
  -11    1    8      1.17      0.00
  -10    1    8      0.28      0.00
   -9    1    8      0.08      0.00
   -8    1    8     -1.20      0.00
   -7    1    8      1.00      0.00
   -6    1    8      0.83      0.00
   -5    1    8      0.14      0.00
   -4    1    8      1.80      0.00
   -3    1    8      0.21      0.00
   -2    1    8     -3.00      0.00
   -1    1    8      1.01      0.00
    0    1    8      8.48      0.00
    1    1    8     -9.33      0.00
    2    1    8     -9.45      0.00
    3    1    8      0.11      0.00
    4    1    8      0.79      0.00
    5    1    8      7.36      0.00
    6    1    8      0.09      0.00
    7    1    8      0.38      0.00
    8    1    8      0.37      0.00
    9    1    8      0.76      0.00
   10    1    8      1.56      0.00
   11    1    8      0.30      0.00
  -13    2    8     -0.24      0.00
  -12    2    8     -0.57      0.00
  -11    2    8      0.20      0.00
  -10    2    8      1.12      0.00
   -9    2    8     -2.07      0.00
   -8    2    8     -1.22      0.00
   -7    2    8     -0.74      0.00
   -6    2    8     -0.89      0.00
   -5    2    8     -2.12      0.00
   -4    2    8     -0.59      0.00
   -3    2    8      1.47      0.00
   -2    2    8     -2.50      0.00
   -1    2    8      2.67      0.00
    0    2    8     21.92      0.00
    1    2    8     10.87      0.00
    2    2    8      1.61      0.00
    3    2    8      7.46      0.00
    4    2    8      2.87      0.00
    5    2    8      3.02      0.00
    6    2    8      0.83      0.00
    7    2    8      0.96      0.00
    8    2    8      0.86      0.00
    9    2    8      0.91      0.00
   10    2    8      0.34      0.00
   11    2    8      0.70      0.00
  -13    3    8      0.11      0.00
  -12    3    8      2.91      0.00
  -11    3    8     -0.74      0.00
  -10    3    8      0.11      0.00
   -9    3    8     -1.53      0.00
   -8    3    8      0.65      0.00
   -7    3    8      0.89      0.00
   -6    3    8     -0.72      0.00
   -5    3    8     -0.23      0.00
   -4    3    8      3.21      0.00
   -3    3    8      2.15      0.00
   -2    3    8     -0.75      0.00
   -1    3    8     10.26      0.00
    0    3    8     18.67      0.00
    1    3    8     16.52      0.00
    2    3    8      5.10      0.00
    3    3    8      2.37      0.00
    4    3    8      0.19      0.00
    5    3    8     -1.30      0.00
    6    3    8     -1.21      0.00
    7    3    8     -1.08      0.00
    8    3    8      1.99      0.00
    9    3    8      0.30      0.00
   10    3    8     -1.28      0.00
   11    3    8      1.05      0.00
  -13    4    8     -1.48      0.00
  -12    4    8      0.37      0.00
  -11    4    8      0.90      0.00
  -10    4    8      0.03      0.00
   -9    4    8      1.40      0.00
   -8    4    8     -0.39      0.00
   -7    4    8      0.64      0.00
   -6    4    8     -0.83      0.00
   -5    4    8      1.75      0.00
   -4    4    8      1.21      0.00
   -3    4    8     -1.92      0.00
   -2    4    8     -5.25      0.00
   -1    4    8      4.70      0.00
    0    4    8     13.85      0.00
    1    4    8     11.53      0.00
    2    4    8      0.11      0.00
    3    4    8     -3.32      0.00
    4    4    8     -0.56      0.00
    5    4    8      0.80      0.00
    6    4    8      0.48      0.00
    7    4    8      1.37      0.00
    8    4    8     -0.83      0.00
    9    4    8     -0.09      0.00
   10    4    8     -2.27      0.00
   11    4    8     -1.55      0.00
  -12    5    8      1.09      0.00
  -11    5    8      0.72      0.00
  -10    5    8     -2.41      0.00
   -9    5    8     -0.57      0.00
   -8    5    8     -1.29      0.00
   -7    5    8     -0.53      0.00
   -6    5    8     -0.42      0.00
   -5    5    8      1.59      0.00
   -4    5    8      0.17      0.00
   -3    5    8     -1.77      0.00
   -2    5    8     -1.17      0.00
   -1    5    8      6.58      0.00
    0    5    8      8.76      0.00
    1    5    8     12.10      0.00
    2    5    8     -0.20      0.00
    3    5    8      0.72      0.00
    4    5    8      2.62      0.00
    5    5    8     -0.21      0.00
    6    5    8     -1.14      0.00
    7    5    8     -0.58      0.00
    8    5    8      0.23      0.00
    9    5    8     -1.95      0.00
   10    5    8      0.50      0.00
   11    5    8      1.68      0.00
  -12    6    8     -0.33      0.00
  -11    6    8      0.89      0.00
  -10    6    8      0.61      0.00
   -9    6    8     -0.01      0.00
   -8    6    8      0.80      0.00
   -7    6    8      0.03      0.00
   -6    6    8      0.76      0.00
   -5    6    8      0.96      0.00
   -4    6    8     -1.08      0.00
   -3    6    8      2.42      0.00
   -2    6    8      1.92      0.00
   -1    6    8      3.20      0.00
    0    6    8      9.17      0.00
    1    6    8      2.55      0.00
    2    6    8      0.49      0.00
    3    6    8     -0.50      0.00
    4    6    8     -0.92      0.00
    5    6    8     -2.62      0.00
    6    6    8     -0.25      0.00
    7    6    8      1.63      0.00
    8    6    8     -0.88      0.00
    9    6    8     -1.39      0.00
   10    6    8      0.87      0.00
   11    6    8     -1.78      0.00
  -12    7    8      0.84      0.00
  -11    7    8      0.44      0.00
  -10    7    8      0.67      0.00
   -9    7    8      1.15      0.00
   -8    7    8      0.23      0.00
   -7    7    8     -1.13      0.00
   -6    7    8      1.51      0.00
   -5    7    8     -0.54      0.00
   -4    7    8      0.53      0.00
   -3    7    8      0.57      0.00
   -2    7    8     -0.29      0.00
   -1    7    8      0.29      0.00
    0    7    8      1.25      0.00
    1    7    8      2.33      0.00
    2    7    8     -0.61      0.00
    3    7    8     -2.58      0.00
    4    7    8     -0.70      0.00
    5    7    8     -0.81      0.00
    6    7    8      0.67      0.00
    7    7    8      0.83      0.00
    8    7    8      0.89      0.00
    9    7    8     -1.37      0.00
   10    7    8      0.28      0.00
   11    7    8      0.17      0.00
  -12    8    8      0.66      0.00
  -11    8    8     -0.21      0.00
  -10    8    8      0.48      0.00
   -9    8    8     -0.26      0.00
   -8    8    8      0.98      0.00
   -7    8    8      0.18      0.00
   -6    8    8     -0.56      0.00
   -5    8    8      0.95      0.00
   -4    8    8     -1.90      0.00
   -3    8    8     -1.22      0.00
   -2    8    8      1.74      0.00
   -1    8    8      1.63      0.00
    0    8    8      1.52      0.00
    1    8    8     -1.02      0.00
    2    8    8     -1.17      0.00
    3    8    8     -1.20      0.00
    4    8    8     -1.95      0.00
    5    8    8      0.32      0.00
    6    8    8     -0.78      0.00
    7    8    8      0.14      0.00
    8    8    8     -0.10      0.00
    9    8    8     -0.96      0.00
   10    8    8     -1.90      0.00
   11    8    8      1.38      0.00
  -12    9    8     -0.67      0.00
  -11    9    8      0.44      0.00
  -10    9    8      0.71      0.00
   -9    9    8     -0.03      0.00
   -8    9    8     -1.71      0.00
   -7    9    8     -0.12      0.00
   -6    9    8     -0.35      0.00
   -5    9    8      0.62      0.00
   -4    9    8     -0.45      0.00
   -3    9    8     -1.17      0.00
   -2    9    8     -0.48      0.00
   -1    9    8      3.02      0.00
    0    9    8     -1.73      0.00
    1    9    8     -1.33      0.00
    2    9    8     -1.58      0.00
    3    9    8     -1.13      0.00
    4    9    8      0.37      0.00
    5    9    8      0.11      0.00
    6    9    8      1.29      0.00
    7    9    8     -0.40      0.00
    8    9    8     -1.12      0.00
    9    9    8      0.78      0.00
   10    9    8      0.87      0.00
   11    9    8     -0.29      0.00
  -11   10    8      0.98      0.00
  -10   10    8     -0.44      0.00
   -9   10    8      0.59      0.00
   -8   10    8     -1.50      0.00
   -7   10    8     -0.05      0.00
   -6   10    8     -0.08      0.00
   -5   10    8     -0.92      0.00
   -4   10    8     -1.94      0.00
   -3   10    8      0.35      0.00
   -2   10    8      1.25      0.00
   -1   10    8     -0.03      0.00
    0   10    8     -1.10      0.00
    1   10    8     -2.94      0.00
    2   10    8     -1.26      0.00
    3   10    8      0.19      0.00
    4   10    8     -0.57      0.00
    5   10    8     -0.51      0.00
    6   10    8     -0.23      0.00
    7   10    8      1.90      0.00
    8   10    8     -0.47      0.00
    9   10    8     -1.45      0.00
   10   10    8     -0.69      0.00
  -11   11    8     -1.42      0.00
  -10   11    8      0.42      0.00
   -9   11    8     -0.08      0.00
   -8   11    8      0.74      0.00
   -7   11    8      1.43      0.00
   -6   11    8      0.83      0.00
   -5   11    8     -0.98      0.00
   -4   11    8     -1.05      0.00
   -3   11    8      0.05      0.00
   -2   11    8      0.60      0.00
   -1   11    8      0.26      0.00
    0   11    8     -0.42      0.00
    1   11    8     -1.39      0.00
    2   11    8     -1.18      0.00
    3   11    8     -0.69      0.00
    4   11    8      0.26      0.00
    5   11    8     -0.46      0.00
    6   11    8     -0.08      0.00
    7   11    8     -0.55      0.00
    8   11    8     -0.46      0.00
    9   11    8      0.21      0.00
   10   11    8      0.73      0.00
  -11   12    8     -0.78      0.00
  -10   12    8      0.07      0.00
   -9   12    8      0.55      0.00
   -8   12    8      1.72      0.00
   -7   12    8     -0.34      0.00
   -6   12    8     -1.09      0.00
   -5   12    8     -0.43      0.00
   -4   12    8      0.68      0.00
   -3   12    8      0.45      0.00
   -2   12    8      0.87      0.00
   -1   12    8     -1.16      0.00
    0   12    8     -1.61      0.00
    1   12    8     -0.79      0.00
    2   12    8     -0.49      0.00
    3   12    8     -1.22      0.00
    4   12    8     -0.36      0.00
    5   12    8     -1.01      0.00
    6   12    8      0.24      0.00
    7   12    8      0.14      0.00
    8   12    8     -1.01      0.00
    9   12    8      1.10      0.00
  -10   13    8     -1.77      0.00
   -9   13    8      0.56      0.00
   -8   13    8     -0.34      0.00
   -7   13    8      0.36      0.00
   -6   13    8     -1.22      0.00
   -5   13    8      0.63      0.00
   -4   13    8      0.79      0.00
   -3   13    8      0.30      0.00
   -2   13    8      0.81      0.00
   -1   13    8     -1.70      0.00
    0   13    8      0.32      0.00
    1   13    8      0.15      0.00
    2   13    8     -0.11      0.00
    3   13    8      0.08      0.00
    4   13    8     -0.77      0.00
    5   13    8      0.46      0.00
    6   13    8     -1.18      0.00
    7   13    8     -0.69      0.00
    8   13    8     -2.18      0.00
    9   13    8      1.63      0.00
  -10   14    8      0.33      0.00
   -9   14    8      2.12      0.00
   -8   14    8      0.18      0.00
   -7   14    8     -0.29      0.00
   -6   14    8      0.77      0.00
   -5   14    8     -0.99      0.00
   -4   14    8      0.33      0.00
   -3   14    8      0.29      0.00
   -2   14    8     -1.19      0.00
   -1   14    8     -0.12      0.00
    0   14    8      0.02      0.00
    1   14    8      0.60      0.00
    2   14    8      0.13      0.00
    3   14    8     -1.61      0.00
    4   14    8      0.01      0.00
    5   14    8     -0.86      0.00
    6   14    8     -0.74      0.00
    7   14    8      0.62      0.00
    8   14    8     -0.13      0.00
   -9   15    8     -0.19      0.00
   -8   15    8     -2.25      0.00
   -7   15    8      1.13      0.00
   -6   15    8      0.05      0.00
   -5   15    8     -0.50      0.00
   -4   15    8      0.38      0.00
   -3   15    8      0.40      0.00
   -2   15    8     -1.04      0.00
   -1   15    8     -0.76      0.00
    0   15    8      0.78      0.00
    1   15    8      0.92      0.00
    2   15    8     -0.08      0.00
    3   15    8      0.67      0.00
    4   15    8     -1.65      0.00
    5   15    8     -0.64      0.00
    6   15    8     -3.02      0.00
    7   15    8      0.37      0.00
    8   15    8      2.20      0.00
   -8   16    8      0.65      0.00
   -7   16    8      0.37      0.00
   -6   16    8     -0.06      0.00
   -5   16    8     -0.82      0.00
   -4   16    8     -0.73      0.00
   -3   16    8     -0.84      0.00
   -2   16    8     -0.21      0.00
   -1   16    8      0.09      0.00
    0   16    8      0.74      0.00
    1   16    8     -0.90      0.00
    2   16    8      0.33      0.00
    3   16    8     -1.45      0.00
    4   16    8      0.28      0.00
    5   16    8     -2.38      0.00
    6   16    8      1.29      0.00
    7   16    8     -1.00      0.00
   -7   17    8      1.11      0.00
   -6   17    8     -1.59      0.00
   -5   17    8      0.05      0.00
   -4   17    8     -1.25      0.00
   -3   17    8      0.47      0.00
   -2   17    8      0.75      0.00
   -1   17    8     -0.19      0.00
    0   17    8      1.01      0.00
    1   17    8     -1.77      0.00
    2   17    8     -1.55      0.00
    3   17    8     -0.04      0.00
    4   17    8     -0.19      0.00
    5   17    8      0.13      0.00
    6   17    8      0.43      0.00
   -6   18    8     -0.59      0.00
   -5   18    8      0.27      0.00
   -4   18    8      1.98      0.00
   -3   18    8     -0.93      0.00
   -2   18    8     -0.45      0.00
   -1   18    8     -0.58      0.00
    0   18    8     -0.84      0.00
    1   18    8      0.39      0.00
    2   18    8     -0.97      0.00
    3   18    8      0.22      0.00
    4   18    8     -0.96      0.00
    5   18    8      2.74      0.00
   -5   19    8     -0.62      0.00
   -4   19    8      0.16      0.00
   -3   19    8      0.25      0.00
   -2   19    8      1.92      0.00
   -1   19    8     -0.52      0.00
    0   19    8     -0.63      0.00
    1   19    8     -1.72      0.00
    2   19    8     -1.62      0.00
    3   19    8      0.02      0.00
    2   20    8     -1.18      0.00
  -13    0    9      0.90      0.00
  -11    0    9     -1.86      0.00
   -9    0    9      0.07      0.00
   -7    0    9      0.22      0.00
   -5    0    9     -0.66      0.00
   -3    0    9    -12.60      0.00
   -1    0    9     -3.45      0.00
    1    0    9    -10.83      0.00
    3    0    9      3.34      0.00
    5    0    9      0.45      0.00
    7    0    9     -0.49      0.00
    9    0    9     -0.69      0.00
   11    0    9      0.15      0.00
  -13    1    9     -0.22      0.00
  -12    1    9     -1.33      0.00
  -11    1    9      0.88      0.00
  -10    1    9     -1.12      0.00
   -9    1    9     -0.71      0.00
   -8    1    9      0.40      0.00
   -7    1    9      0.45      0.00
   -6    1    9     -0.83      0.00
   -5    1    9     -0.44      0.00
   -4    1    9     -0.30      0.00
   -3    1    9     -1.09      0.00
   -2    1    9     -5.48      0.00
   -1    1    9     12.91      0.00
    0    1    9     20.56      0.00
    1    1    9      4.83      0.00
    2    1    9      0.46      0.00
    3    1    9      2.57      0.00
    4    1    9     -2.16      0.00
    5    1    9      3.41      0.00
    6    1    9     -0.29      0.00
    7    1    9      0.26      0.00
    8    1    9      1.09      0.00
    9    1    9      0.09      0.00
   10    1    9     -0.58      0.00
   11    1    9     -1.35      0.00
  -13    2    9      1.37      0.00
  -12    2    9     -0.41      0.00
  -11    2    9     -1.93      0.00
  -10    2    9     -0.52      0.00
   -9    2    9     -0.08      0.00
   -8    2    9      0.56      0.00
   -7    2    9      0.51      0.00
   -6    2    9      2.49      0.00
   -5    2    9      1.51      0.00
   -4    2    9      1.85      0.00
   -3    2    9     -2.93      0.00
   -2    2    9      6.55      0.00
   -1    2    9      2.56      0.00
    0    2    9     11.35      0.00
    1    2    9      4.47      0.00
    2    2    9     -6.60      0.00
    3    2    9     -4.71      0.00
    4    2    9     -3.41      0.00
    6    2    9     -0.38      0.00
    7    2    9      1.87      0.00
    8    2    9      0.32      0.00
    9    2    9     -0.39      0.00
   10    2    9      1.47      0.00
   11    2    9      1.50      0.00
  -13    3    9     -2.39      0.00
  -12    3    9     -0.37      0.00
  -11    3    9     -2.11      0.00
  -10    3    9      0.94      0.00
   -9    3    9     -1.51      0.00
   -8    3    9      0.62      0.00
   -7    3    9     -1.56      0.00
   -6    3    9     -1.89      0.00
   -5    3    9      0.49      0.00
   -4    3    9     -3.25      0.00
   -3    3    9     -0.73      0.00
   -2    3    9     -3.13      0.00
   -1    3    9      6.95      0.00
    0    3    9      9.28      0.00
    1    3    9      5.30      0.00
    2    3    9     -1.97      0.00
    3    3    9     -0.44      0.00
    4    3    9      2.11      0.00
    5    3    9      2.42      0.00
    6    3    9      2.23      0.00
    7    3    9     -0.57      0.00
    8    3    9      0.65      0.00
    9    3    9      0.59      0.00
   10    3    9     -0.85      0.00
   11    3    9      3.37      0.00
  -13    4    9     -1.98      0.00
  -12    4    9     -0.81      0.00
  -11    4    9     -1.55      0.00
  -10    4    9     -2.91      0.00
   -9    4    9      0.00      0.00
   -8    4    9     -1.95      0.00
   -7    4    9      0.92      0.00
   -6    4    9      0.98      0.00
   -5    4    9     -0.76      0.00
   -4    4    9     -0.27      0.00
   -3    4    9      0.63      0.00
   -2    4    9      2.01      0.00
   -1    4    9      1.93      0.00
    0    4    9     11.73      0.00
    1    4    9     11.24      0.00
    2    4    9      0.82      0.00
    3    4    9      3.88      0.00
    4    4    9      3.19      0.00
    5    4    9      0.31      0.00
    6    4    9     -0.90      0.00
    7    4    9     -0.53      0.00
    8    4    9      0.21      0.00
    9    4    9      1.25      0.00
   10    4    9      2.67      0.00
   11    4    9      0.10      0.00
  -13    5    9     -1.60      0.00
  -12    5    9     -0.94      0.00
  -11    5    9     -0.22      0.00
  -10    5    9     -0.74      0.00
   -9    5    9      0.34      0.00
   -8    5    9     -0.43      0.00
   -7    5    9      0.71      0.00
   -6    5    9      0.35      0.00
   -5    5    9     -0.10      0.00
   -4    5    9      1.02      0.00
   -3    5    9      3.38      0.00
   -2    5    9     -4.89      0.00
   -1    5    9      3.43      0.00
    0    5    9      5.68      0.00
    1    5    9      5.55      0.00
    2    5    9      2.75      0.00
    3    5    9     -0.60      0.00
    4    5    9     -1.90      0.00
    5    5    9      0.05      0.00
    6    5    9     -0.14      0.00
    7    5    9      0.33      0.00
    8    5    9      0.05      0.00
    9    5    9      0.63      0.00
   10    5    9      0.12      0.00
   11    5    9     -1.69      0.00
  -12    6    9     -0.77      0.00
  -11    6    9      0.85      0.00
  -10    6    9     -0.79      0.00
   -9    6    9      0.01      0.00
   -8    6    9     -1.40      0.00
   -7    6    9      0.03      0.00
   -6    6    9     -0.29      0.00
   -5    6    9     -0.74      0.00
   -4    6    9      1.41      0.00
   -3    6    9      0.19      0.00
   -2    6    9     -3.31      0.00
   -1    6    9     -1.12      0.00
    0    6    9      5.79      0.00
    1    6    9      4.76      0.00
    2    6    9     -0.11      0.00
    3    6    9     -0.24      0.00
    4    6    9      1.23      0.00
    5    6    9     -0.19      0.00
    6    6    9      0.94      0.00
    7    6    9     -0.92      0.00
    8    6    9      0.81      0.00
    9    6    9     -0.70      0.00
   10    6    9      0.23      0.00
   11    6    9     -0.59      0.00
  -12    7    9     -0.47      0.00
  -11    7    9     -0.47      0.00
  -10    7    9      0.28      0.00
   -9    7    9     -0.58      0.00
   -8    7    9     -0.08      0.00
   -7    7    9      0.42      0.00
   -6    7    9      0.17      0.00
   -5    7    9     -0.52      0.00
   -4    7    9      1.46      0.00
   -3    7    9     -0.80      0.00
   -2    7    9      2.73      0.00
   -1    7    9      0.69      0.00
    0    7    9      3.15      0.00
    1    7    9      3.25      0.00
    2    7    9      0.68      0.00
    3    7    9     -2.22      0.00
    4    7    9      0.45      0.00
    5    7    9     -0.97      0.00
    6    7    9     -3.31      0.00
    7    7    9      1.58      0.00
    8    7    9      0.53      0.00
    9    7    9     -1.42      0.00
   10    7    9     -0.15      0.00
   11    7    9      0.01      0.00
  -12    8    9      0.83      0.00
  -11    8    9      0.21      0.00
  -10    8    9      0.00      0.00
   -9    8    9     -1.33      0.00
   -8    8    9      1.42      0.00
   -7    8    9     -0.08      0.00
   -6    8    9     -0.60      0.00
   -5    8    9      3.50      0.00
   -4    8    9     -3.30      0.00
   -3    8    9      1.71      0.00
   -2    8    9      0.42      0.00
   -1    8    9      0.35      0.00
    0    8    9      0.66      0.00
    1    8    9      1.55      0.00
    2    8    9      0.12      0.00
    3    8    9      0.18      0.00
    4    8    9     -0.97      0.00
    5    8    9     -0.68      0.00
    6    8    9     -0.16      0.00
    7    8    9     -0.18      0.00
    8    8    9      0.78      0.00
    9    8    9      0.62      0.00
   10    8    9     -1.04      0.00
  -12    9    9      0.29      0.00
  -11    9    9     -0.79      0.00
  -10    9    9     -0.81      0.00
   -9    9    9     -0.53      0.00
   -8    9    9     -0.11      0.00
   -7    9    9      1.60      0.00
   -6    9    9      0.11      0.00
   -5    9    9     -0.82      0.00
   -4    9    9      1.39      0.00
   -3    9    9     -0.68      0.00
   -2    9    9      0.51      0.00
   -1    9    9      1.15      0.00
    0    9    9     -0.10      0.00
    1    9    9      0.77      0.00
    2    9    9     -1.10      0.00
    3    9    9     -2.08      0.00
    4    9    9     -1.26      0.00
    5    9    9     -2.94      0.00
    6    9    9     -0.27      0.00
    7    9    9      1.92      0.00
    8    9    9     -0.42      0.00
    9    9    9     -0.15      0.00
   10    9    9     -1.97      0.00
  -11   10    9     -0.21      0.00
  -10   10    9     -0.86      0.00
   -9   10    9      0.06      0.00
   -8   10    9      0.79      0.00
   -7   10    9     -0.38      0.00
   -6   10    9     -0.32      0.00
   -5   10    9      1.15      0.00
   -4   10    9     -0.45      0.00
   -3   10    9      1.58      0.00
   -2   10    9     -0.27      0.00
   -1   10    9      0.47      0.00
    0   10    9      1.62      0.00
    1   10    9     -0.70      0.00
    2   10    9     -0.43      0.00
    3   10    9     -0.53      0.00
    4   10    9     -2.05      0.00
    5   10    9     -0.19      0.00
    6   10    9     -0.17      0.00
    7   10    9      0.06      0.00
    8   10    9     -0.32      0.00
    9   10    9     -0.38      0.00
   10   10    9      1.10      0.00
  -11   11    9     -1.78      0.00
  -10   11    9     -0.62      0.00
   -9   11    9      1.08      0.00
   -8   11    9     -0.27      0.00
   -7   11    9     -0.59      0.00
   -6   11    9      0.21      0.00
   -5   11    9      0.11      0.00
   -4   11    9      0.53      0.00
   -3   11    9     -0.82      0.00
   -2   11    9     -0.26      0.00
   -1   11    9      0.97      0.00
    0   11    9      0.66      0.00
    1   11    9     -0.73      0.00
    2   11    9     -1.42      0.00
    3   11    9     -1.01      0.00
    4   11    9     -0.03      0.00
    5   11    9     -0.66      0.00
    6   11    9     -0.10      0.00
    7   11    9      1.38      0.00
    8   11    9      0.22      0.00
    9   11    9     -0.50      0.00
  -11   12    9     -2.33      0.00
  -10   12    9     -0.29      0.00
   -9   12    9     -0.29      0.00
   -8   12    9      0.63      0.00
   -7   12    9     -0.21      0.00
   -6   12    9      1.72      0.00
   -5   12    9      1.59      0.00
   -4   12    9     -0.07      0.00
   -3   12    9     -0.02      0.00
   -2   12    9     -0.10      0.00
   -1   12    9      0.79      0.00
    0   12    9      2.09      0.00
    1   12    9     -0.35      0.00
    2   12    9      0.53      0.00
    3   12    9     -1.34      0.00
    4   12    9      0.00      0.00
    5   12    9     -1.24      0.00
    6   12    9      0.41      0.00
    7   12    9     -1.26      0.00
    8   12    9      0.52      0.00
    9   12    9     -0.05      0.00
  -10   13    9     -0.46      0.00
   -9   13    9      2.61      0.00
   -8   13    9     -0.53      0.00
   -7   13    9      1.92      0.00
   -6   13    9      0.29      0.00
   -5   13    9     -0.64      0.00
   -4   13    9      1.17      0.00
   -3   13    9     -0.58      0.00
   -2   13    9      0.69      0.00
   -1   13    9      1.20      0.00
    0   13    9      0.79      0.00
    1   13    9     -1.17      0.00
    2   13    9     -0.17      0.00
    3   13    9     -0.52      0.00
    4   13    9     -0.45      0.00
    5   13    9      0.17      0.00
    6   13    9     -0.47      0.00
    7   13    9      2.50      0.00
    8   13    9     -2.35      0.00
    9   13    9      0.78      0.00
  -10   14    9     -1.69      0.00
   -9   14    9     -1.59      0.00
   -8   14    9      0.17      0.00
   -7   14    9      1.25      0.00
   -6   14    9      0.08      0.00
   -5   14    9     -0.09      0.00
   -4   14    9      1.04      0.00
   -3   14    9     -0.10      0.00
   -2   14    9      1.07      0.00
   -1   14    9      1.01      0.00
    0   14    9     -0.10      0.00
    1   14    9      1.04      0.00
    2   14    9     -0.84      0.00
    3   14    9     -1.01      0.00
    4   14    9      0.40      0.00
    5   14    9     -0.50      0.00
    6   14    9      1.35      0.00
    7   14    9      1.69      0.00
    8   14    9     -1.89      0.00
   -9   15    9      1.00      0.00
   -8   15    9      0.43      0.00
   -7   15    9      1.42      0.00
   -6   15    9     -0.48      0.00
   -5   15    9      0.50      0.00
   -4   15    9     -0.72      0.00
   -3   15    9      0.84      0.00
   -2   15    9      0.57      0.00
   -1   15    9      0.69      0.00
    0   15    9      0.04      0.00
    1   15    9      0.60      0.00
    2   15    9      0.46      0.00
    3   15    9      0.05      0.00
    4   15    9     -0.41      0.00
    5   15    9      1.03      0.00
    6   15    9      0.85      0.00
    7   15    9     -0.10      0.00
    8   15    9     -0.20      0.00
   -8   16    9     -0.51      0.00
   -7   16    9     -1.45      0.00
   -6   16    9      0.84      0.00
   -5   16    9     -0.25      0.00
   -4   16    9     -0.53      0.00
   -3   16    9      0.84      0.00
   -2   16    9      0.77      0.00
   -1   16    9     -0.49      0.00
    0   16    9     -0.66      0.00
    1   16    9     -0.42      0.00
    2   16    9      0.77      0.00
    3   16    9      0.97      0.00
    4   16    9      1.55      0.00
    5   16    9      1.00      0.00
    6   16    9      2.02      0.00
    7   16    9     -1.62      0.00
   -7   17    9      0.85      0.00
   -6   17    9     -0.09      0.00
   -5   17    9      1.94      0.00
   -4   17    9      0.36      0.00
   -3   17    9     -0.96      0.00
   -2   17    9     -1.48      0.00
   -1   17    9     -1.31      0.00
    0   17    9      0.45      0.00
    1   17    9      0.69      0.00
    2   17    9     -0.98      0.00
    3   17    9      1.02      0.00
    4   17    9     -1.01      0.00
    5   17    9      2.12      0.00
    6   17    9     -1.18      0.00
   -6   18    9      2.85      0.00
   -5   18    9      0.52      0.00
   -4   18    9      1.24      0.00
   -3   18    9     -0.18      0.00
   -2   18    9      1.16      0.00
   -1   18    9     -1.67      0.00
    0   18    9      1.72      0.00
    1   18    9     -0.80      0.00
    2   18    9      0.32      0.00
    3   18    9     -0.75      0.00
    4   18    9      0.79      0.00
   -5   19    9     -0.46      0.00
   -4   19    9      2.27      0.00
   -3   19    9      0.27      0.00
   -2   19    9     -0.46      0.00
   -1   19    9     -0.78      0.00
    0   19    9      0.62      0.00
    1   19    9      1.32      0.00
    2   19    9     -0.91      0.00
    3   19    9      1.52      0.00
  -12    0   10      1.70      0.00
  -10    0   10      0.23      0.00
   -8    0   10      0.66      0.00
   -6    0   10      0.16      0.00
   -4    0   10      3.16      0.00
   -2    0   10      9.32      0.00
    0    0   10     15.76      0.00
    2    0   10      2.62      0.00
    4    0   10      0.37      0.00
    8    0   10     -1.00      0.00
   10    0   10     -0.41      0.00
  -13    1   10      1.11      0.00
  -12    1   10      0.10      0.00
  -11    1   10      1.48      0.00
  -10    1   10     -0.84      0.00
   -9    1   10      0.66      0.00
   -8    1   10      0.53      0.00
   -7    1   10      3.14      0.00
   -6    1   10      0.30      0.00
   -5    1   10     -1.26      0.00
   -4    1   10      1.80      0.00
   -3    1   10      0.46      0.00
   -2    1   10     -3.00      0.00
   -1    1   10     -0.03      0.00
    0    1   10      5.48      0.00
    1    1   10     -1.10      0.00
    2    1   10     -9.47      0.00
    3    1   10     -0.67      0.00
    4    1   10      0.58      0.00
    6    1   10     -0.65      0.00
    7    1   10      0.52      0.00
    8    1   10     -0.56      0.00
    9    1   10     -1.45      0.00
   10    1   10      0.20      0.00
   11    1   10      0.39      0.00
  -13    2   10      0.37      0.00
  -12    2   10      0.81      0.00
  -11    2   10     -0.22      0.00
  -10    2   10      1.32      0.00
   -9    2   10     -1.59      0.00
   -8    2   10     -0.49      0.00
   -7    2   10     -2.02      0.00
   -6    2   10     -0.56      0.00
   -5    2   10      0.76      0.00
   -4    2   10     -0.58      0.00
   -3    2   10      0.49      0.00
   -2    2   10     -2.07      0.00
   -1    2   10      1.86      0.00
    0    2   10     17.00      0.00
    1    2   10      6.65      0.00
    2    2   10      0.57      0.00
    3    2   10      1.79      0.00
    4    2   10      2.06      0.00
    5    2   10      3.20      0.00
    6    2   10      2.23      0.00
    7    2   10      0.23      0.00
    8    2   10     -0.20      0.00
    9    2   10      1.00      0.00
   10    2   10      0.83      0.00
   11    2   10      0.47      0.00
  -13    3   10      1.64      0.00
  -12    3   10      2.14      0.00
  -11    3   10      0.11      0.00
  -10    3   10      0.00      0.00
   -9    3   10     -1.23      0.00
   -8    3   10      0.72      0.00
   -7    3   10      0.33      0.00
   -6    3   10      0.08      0.00
   -5    3   10      1.79      0.00
   -4    3   10      2.70      0.00
   -3    3   10     -0.30      0.00
   -2    3   10     -1.17      0.00
   -1    3   10      8.46      0.00
    0    3   10     14.67      0.00
    1    3   10      9.05      0.00
    2    3   10     -0.93      0.00
    3    3   10      0.89      0.00
    4    3   10      0.45      0.00
    5    3   10     -0.09      0.00
    6    3   10     -1.23      0.00
    7    3   10     -0.22      0.00
    8    3   10      1.34      0.00
    9    3   10      0.19      0.00
   10    3   10     -0.47      0.00
   11    3   10      1.75      0.00
  -13    4   10     -1.70      0.00
  -12    4   10      0.41      0.00
  -11    4   10      0.58      0.00
  -10    4   10      0.59      0.00
   -9    4   10     -0.20      0.00
   -8    4   10     -0.54      0.00
   -7    4   10      1.61      0.00
   -6    4   10     -0.62      0.00
   -5    4   10      0.61      0.00
   -4    4   10      0.52      0.00
   -3    4   10     -2.91      0.00
   -2    4   10     -4.74      0.00
   -1    4   10      8.03      0.00
    0    4   10      9.87      0.00
    1    4   10      5.87      0.00
    2    4   10     -0.98      0.00
    3    4   10     -3.78      0.00
    4    4   10     -0.19      0.00
    5    4   10      1.56      0.00
    6    4   10      1.36      0.00
    7    4   10      1.11      0.00
    8    4   10      0.24      0.00
    9    4   10      0.63      0.00
   10    4   10     -2.02      0.00
   11    4   10     -1.06      0.00
  -13    5   10     -0.68      0.00
  -12    5   10      0.29      0.00
  -11    5   10      0.44      0.00
  -10    5   10     -1.88      0.00
   -9    5   10     -0.63      0.00
   -8    5   10     -1.16      0.00
   -7    5   10     -0.39      0.00
   -6    5   10     -0.49      0.00
   -5    5   10      1.40      0.00
   -4    5   10      0.62      0.00
   -3    5   10     -2.34      0.00
   -2    5   10     -0.82      0.00
   -1    5   10      6.59      0.00
    0    5   10      8.85      0.00
    1    5   10      6.48      0.00
    2    5   10      0.13      0.00
    3    5   10      1.79      0.00
    4    5   10      1.73      0.00
    5    5   10      1.38      0.00
    6    5   10     -0.35      0.00
    7    5   10     -0.86      0.00
    8    5   10      0.34      0.00
    9    5   10     -1.36      0.00
   10    5   10      1.38      0.00
   11    5   10      1.01      0.00
  -12    6   10     -0.38      0.00
  -11    6   10      0.71      0.00
  -10    6   10      0.51      0.00
   -9    6   10      0.02      0.00
   -8    6   10      0.32      0.00
   -7    6   10      0.04      0.00
   -6    6   10      0.72      0.00
   -5    6   10      1.21      0.00
   -4    6   10     -0.93      0.00
   -3    6   10      1.18      0.00
   -2    6   10      2.07      0.00
   -1    6   10      1.22      0.00
    0    6   10      6.67      0.00
    1    6   10      3.15      0.00
    2    6   10      0.21      0.00
    3    6   10      1.20      0.00
    4    6   10      1.98      0.00
    5    6   10     -1.41      0.00
    6    6   10      0.13      0.00
    7    6   10      1.25      0.00
    8    6   10     -0.98      0.00
    9    6   10     -0.66      0.00
   10    6   10     -0.68      0.00
   11    6   10     -0.09      0.00
  -12    7   10      0.35      0.00
  -11    7   10      0.74      0.00
  -10    7   10     -0.48      0.00
   -9    7   10      0.90      0.00
   -8    7   10     -0.31      0.00
   -7    7   10     -1.05      0.00
   -6    7   10      1.23      0.00
   -5    7   10     -1.05      0.00
   -3    7   10      0.86      0.00
   -2    7   10     -0.30      0.00
   -1    7   10     -0.71      0.00
    0    7   10      2.58      0.00
    1    7   10      2.36      0.00
    2    7   10     -0.12      0.00
    3    7   10     -0.49      0.00
    4    7   10      0.72      0.00
    5    7   10     -0.07      0.00
    6    7   10      0.88      0.00
    7    7   10      0.05      0.00
    8    7   10      0.81      0.00
    9    7   10     -1.29      0.00
   10    7   10      0.51      0.00
  -12    8   10      0.35      0.00
  -11    8   10     -0.89      0.00
  -10    8   10      1.64      0.00
   -9    8   10     -0.77      0.00
   -8    8   10      1.05      0.00
   -7    8   10     -0.30      0.00
   -6    8   10     -0.92      0.00
   -5    8   10     -0.56      0.00
   -3    8   10      0.31      0.00
   -2    8   10      0.90      0.00
   -1    8   10      0.34      0.00
    0    8   10      0.43      0.00
    1    8   10     -0.07      0.00
    2    8   10     -0.88      0.00
    3    8   10     -0.84      0.00
    4    8   10     -0.68      0.00
    5    8   10     -0.94      0.00
    6    8   10     -0.60      0.00
    7    8   10      0.05      0.00
    8    8   10     -0.12      0.00
    9    8   10     -0.40      0.00
   10    8   10     -1.71      0.00
  -12    9   10      0.40      0.00
  -11    9   10      1.18      0.00
  -10    9   10      0.83      0.00
   -9    9   10      0.39      0.00
   -8    9   10     -0.32      0.00
   -7    9   10      0.41      0.00
   -6    9   10     -0.36      0.00
   -5    9   10      0.50      0.00
   -4    9   10      0.17      0.00
   -3    9   10     -1.16      0.00
   -2    9   10      0.16      0.00
   -1    9   10      1.11      0.00
    0    9   10     -1.79      0.00
    1    9   10     -0.96      0.00
    2    9   10     -0.50      0.00
    3    9   10     -0.24      0.00
    4    9   10      0.68      0.00
    5    9   10      0.90      0.00
    6    9   10     -0.15      0.00
    7    9   10     -0.19      0.00
    8    9   10     -1.20      0.00
    9    9   10     -0.11      0.00
   10    9   10      1.80      0.00
  -11   10   10      0.85      0.00
  -10   10   10      0.13      0.00
   -9   10   10      0.64      0.00
   -8   10   10     -0.66      0.00
   -7   10   10     -0.14      0.00
   -6   10   10     -0.06      0.00
   -5   10   10     -0.67      0.00
   -4   10   10     -2.04      0.00
   -3   10   10      0.24      0.00
   -2   10   10      0.45      0.00
   -1   10   10     -0.02      0.00
    0   10   10     -0.94      0.00
    1   10   10     -1.53      0.00
    2   10   10     -0.63      0.00
    3   10   10     -0.18      0.00
    4   10   10     -0.10      0.00
    5   10   10     -0.87      0.00
    6   10   10     -0.96      0.00
    7   10   10      1.75      0.00
    8   10   10     -0.74      0.00
    9   10   10     -1.35      0.00
  -11   11   10      0.05      0.00
  -10   11   10      1.27      0.00
   -9   11   10      0.05      0.00
   -8   11   10      0.35      0.00
   -7   11   10      1.04      0.00
   -6   11   10      0.40      0.00
   -5   11   10     -0.93      0.00
   -4   11   10     -0.88      0.00
   -3   11   10      0.02      0.00
   -2   11   10      0.37      0.00
   -1   11   10      0.24      0.00
    0   11   10     -1.08      0.00
    1   11   10     -0.93      0.00
    2   11   10     -0.19      0.00
    3   11   10     -0.79      0.00
    4   11   10      0.06      0.00
    5   11   10     -0.55      0.00
    6   11   10      0.26      0.00
    7   11   10     -0.40      0.00
    8   11   10     -0.24      0.00
    9   11   10     -0.14      0.00
  -10   12   10      0.65      0.00
   -9   12   10      0.58      0.00
   -8   12   10      0.84      0.00
   -7   12   10     -0.21      0.00
   -6   12   10     -0.58      0.00
   -5   12   10     -0.59      0.00
   -4   12   10      0.34      0.00
   -3   12   10      0.08      0.00
   -2   12   10      0.08      0.00
   -1   12   10     -0.53      0.00
    0   12   10     -0.65      0.00
    1   12   10     -1.32      0.00
    2   12   10     -0.20      0.00
    3   12   10     -1.13      0.00
    4   12   10     -0.50      0.00
    5   12   10     -0.45      0.00
    6   12   10      1.08      0.00
    7   12   10     -0.89      0.00
    8   12   10     -1.41      0.00
    9   12   10      0.22      0.00
  -10   13   10     -2.64      0.00
   -9   13   10      1.00      0.00
   -8   13   10     -0.19      0.00
   -7   13   10      0.45      0.00
   -6   13   10     -1.68      0.00
   -5   13   10      0.52      0.00
   -4   13   10      0.81      0.00
   -3   13   10      0.13      0.00
   -2   13   10      0.00      0.00
   -1   13   10     -1.46      0.00
    0   13   10      0.98      0.00
    1   13   10      0.43      0.00
    2   13   10     -0.44      0.00
    3   13   10      0.40      0.00
    4   13   10     -0.19      0.00
    5   13   10      0.41      0.00
    6   13   10     -1.35      0.00
    7   13   10     -0.80      0.00
    8   13   10     -2.82      0.00
   -9   14   10      1.50      0.00
   -8   14   10      2.08      0.00
   -7   14   10     -0.63      0.00
   -6   14   10      0.58      0.00
   -5   14   10     -1.35      0.00
   -4   14   10      0.43      0.00
   -3   14   10      0.12      0.00
   -2   14   10     -1.23      0.00
   -1   14   10     -0.03      0.00
    0   14   10      0.73      0.00
    1   14   10      0.63      0.00
    2   14   10      0.51      0.00
    3   14   10     -2.26      0.00
    4   14   10     -0.03      0.00
    5   14   10     -2.16      0.00
    6   14   10      0.02      0.00
    7   14   10     -0.61      0.00
    8   14   10     -0.43      0.00
   -9   15   10     -0.48      0.00
   -8   15   10     -1.86      0.00
   -7   15   10      0.50      0.00
   -6   15   10      0.35      0.00
   -5   15   10     -0.16      0.00
   -4   15   10      0.13      0.00
   -3   15   10      0.54      0.00
   -2   15   10      0.21      0.00
   -1   15   10     -0.58      0.00
    0   15   10      0.63      0.00
    1   15   10      1.61      0.00
    2   15   10     -0.94      0.00
    3   15   10      0.80      0.00
    4   15   10     -2.21      0.00
    5   15   10      0.89      0.00
    6   15   10     -3.60      0.00
    7   15   10      0.62      0.00
   -8   16   10     -0.11      0.00
   -7   16   10      0.36      0.00
   -6   16   10      0.94      0.00
   -5   16   10     -0.17      0.00
   -4   16   10      0.16      0.00
   -3   16   10     -1.15      0.00
   -2   16   10     -0.07      0.00
   -1   16   10      1.82      0.00
    0   16   10      1.07      0.00
    1   16   10      0.79      0.00
    2   16   10      0.86      0.00
    3   16   10     -1.89      0.00
    4   16   10      1.09      0.00
    5   16   10     -1.23      0.00
    6   16   10      0.46      0.00
    7   16   10     -1.78      0.00
   -7   17   10      1.71      0.00
   -6   17   10     -0.58      0.00
   -5   17   10      0.46      0.00
   -4   17   10     -2.82      0.00
   -3   17   10     -0.10      0.00
   -2   17   10      0.49      0.00
   -1   17   10      0.80      0.00
    0   17   10      3.02      0.00
    1   17   10     -1.96      0.00
    2   17   10     -0.44      0.00
    3   17   10      1.01      0.00
    4   17   10     -0.58      0.00
    5   17   10      0.26      0.00
    6   17   10      0.25      0.00
   -6   18   10     -0.12      0.00
   -5   18   10     -1.32      0.00
   -4   18   10      1.89      0.00
   -3   18   10     -2.23      0.00
   -2   18   10     -0.40      0.00
   -1   18   10     -0.89      0.00
    0   18   10     -0.26      0.00
    1   18   10      0.65      0.00
    2   18   10     -0.91      0.00
    3   18   10     -0.21      0.00
    4   18   10     -0.20      0.00
   -5   19   10      0.10      0.00
   -4   19   10      0.66      0.00
   -3   19   10      1.31      0.00
   -1   19   10     -0.76      0.00
    0   19   10      0.36      0.00
    3   19   10      0.40      0.00
  -13    0   11      1.48      0.00
  -11    0   11     -1.51      0.00
   -9    0   11      1.29      0.00
   -7    0   11     -0.38      0.00
   -5    0   11     -1.68      0.00
   -3    0   11     -8.08      0.00
   -1    0   11     -2.79      0.00
    1    0   11    -13.26      0.00
    3    0   11      2.42      0.00
    5    0   11     -0.22      0.00
    7    0   11     -0.75      0.00
    9    0   11      1.30      0.00
   11    0   11      1.72      0.00
  -13    1   11      0.28      0.00
  -12    1   11     -1.52      0.00
  -11    1   11      0.74      0.00
  -10    1   11     -0.53      0.00
   -9    1   11     -0.17      0.00
   -8    1   11     -0.01      0.00
   -7    1   11      0.73      0.00
   -6    1   11     -0.33      0.00
   -5    1   11     -0.04      0.00
   -4    1   11     -0.65      0.00
   -3    1   11      0.54      0.00
   -2    1   11     -2.34      0.00
   -1    1   11      5.85      0.00
    0    1   11      9.35      0.00
    1    1   11      2.25      0.00
    2    1   11     -1.88      0.00
    3    1   11      5.16      0.00
    4    1   11     -1.23      0.00
    5    1   11      2.24      0.00
    6    1   11     -1.06      0.00
    7    1   11      1.13      0.00
    8    1   11      1.87      0.00
    9    1   11      0.11      0.00
   10    1   11      0.29      0.00
   11    1   11      0.08      0.00
  -13    2   11      0.72      0.00
  -12    2   11     -0.95      0.00
  -11    2   11     -1.82      0.00
  -10    2   11     -0.92      0.00
   -9    2   11     -0.34      0.00
   -8    2   11      0.75      0.00
   -7    2   11      1.22      0.00
   -6    2   11      4.40      0.00
   -5    2   11      1.25      0.00
   -4    2   11     -0.55      0.00
   -3    2   11     -1.33      0.00
   -2    2   11      4.56      0.00
   -1    2   11      0.82      0.00
    0    2   11      6.32      0.00
    1    2   11      1.20      0.00
    2    2   11     -1.26      0.00
    3    2   11     -2.45      0.00
    4    2   11     -0.84      0.00
    5    2   11     -0.38      0.00
    6    2   11     -0.56      0.00
    7    2   11      0.22      0.00
    8    2   11      0.90      0.00
    9    2   11      0.05      0.00
   10    2   11      1.29      0.00
   11    2   11      0.20      0.00
  -13    3   11     -1.49      0.00
  -12    3   11     -0.72      0.00
  -11    3   11     -1.25      0.00
  -10    3   11     -0.22      0.00
   -9    3   11     -1.81      0.00
   -8    3   11      1.72      0.00
   -7    3   11     -0.67      0.00
   -6    3   11     -2.92      0.00
   -5    3   11     -0.09      0.00
   -4    3   11     -1.45      0.00
   -3    3   11     -0.26      0.00
   -2    3   11     -1.08      0.00
   -1    3   11      4.53      0.00
    0    3   11      6.16      0.00
    1    3   11      6.04      0.00
    2    3   11      0.74      0.00
    3    3   11      1.33      0.00
    4    3   11      1.28      0.00
    5    3   11      1.93      0.00
    6    3   11      0.75      0.00
    7    3   11      0.50      0.00
    8    3   11     -0.09      0.00
    9    3   11     -0.08      0.00
   10    3   11     -0.66      0.00
   11    3   11      3.16      0.00
  -13    4   11     -1.39      0.00
  -12    4   11     -0.57      0.00
  -11    4   11     -1.47      0.00
  -10    4   11     -2.52      0.00
   -9    4   11      0.04      0.00
   -8    4   11     -1.13      0.00
   -7    4   11      0.93      0.00
   -6    4   11      0.35      0.00
   -5    4   11     -0.27      0.00
   -4    4   11      0.40      0.00
   -3    4   11      0.68      0.00
   -2    4   11      1.08      0.00
   -1    4   11      3.74      0.00
    0    4   11      9.12      0.00
    1    4   11     10.23      0.00
    2    4   11      2.67      0.00
    3    4   11      1.78      0.00
    4    4   11      2.35      0.00
    5    4   11      0.25      0.00
    6    4   11     -1.28      0.00
    7    4   11     -0.90      0.00
    8    4   11      0.36      0.00
    9    4   11      0.44      0.00
   10    4   11      1.84      0.00
   11    4   11      0.04      0.00
  -12    5   11     -1.29      0.00
  -11    5   11     -0.49      0.00
  -10    5   11     -0.48      0.00
   -9    5   11     -1.20      0.00
   -8    5   11     -0.87      0.00
   -7    5   11     -0.20      0.00
   -6    5   11      0.63      0.00
   -5    5   11      0.17      0.00
   -4    5   11      0.73      0.00
   -3    5   11      1.62      0.00
   -2    5   11     -4.69      0.00
   -1    5   11      1.61      0.00
    0    5   11      9.75      0.00
    1    5   11      5.73      0.00
    2    5   11      3.61      0.00
    3    5   11      0.34      0.00
    4    5   11     -1.89      0.00
    5    5   11     -0.49      0.00
    6    5   11     -0.27      0.00
    7    5   11     -0.02      0.00
    8    5   11     -0.22      0.00
    9    5   11      0.47      0.00
   10    5   11      0.37      0.00
  -12    6   11     -0.07      0.00
  -11    6   11     -0.62      0.00
  -10    6   11     -1.35      0.00
   -9    6   11     -0.52      0.00
   -8    6   11     -2.10      0.00
   -7    6   11      0.39      0.00
   -6    6   11     -0.56      0.00
   -5    6   11     -1.37      0.00
   -4    6   11      1.45      0.00
   -3    6   11      0.71      0.00
   -2    6   11     -3.73      0.00
   -1    6   11      1.63      0.00
    0    6   11      8.38      0.00
    1    6   11      5.75      0.00
    2    6   11     -0.31      0.00
    3    6   11      0.63      0.00
    4    6   11     -0.09      0.00
    5    6   11     -0.48      0.00
    6    6   11      0.99      0.00
    7    6   11     -0.71      0.00
    8    6   11      0.19      0.00
    9    6   11     -1.19      0.00
   10    6   11      0.11      0.00
  -12    7   11     -1.12      0.00
  -11    7   11      0.00      0.00
  -10    7   11     -0.77      0.00
   -9    7   11     -0.31      0.00
   -8    7   11     -0.06      0.00
   -7    7   11      0.55      0.00
   -6    7   11     -0.03      0.00
   -5    7   11      0.45      0.00
   -3    7   11     -0.66      0.00
   -2    7   11      2.10      0.00
   -1    7   11      1.55      0.00
    0    7   11      6.02      0.00
    1    7   11      3.38      0.00
    2    7   11     -0.24      0.00
    3    7   11     -1.88      0.00
    4    7   11      0.20      0.00
    5    7   11     -0.77      0.00
    6    7   11     -1.92      0.00
    7    7   11      1.39      0.00
    8    7   11      0.10      0.00
    9    7   11     -0.52      0.00
   10    7   11     -1.38      0.00
  -12    8   11      0.77      0.00
  -11    8   11     -0.32      0.00
  -10    8   11      0.80      0.00
   -9    8   11     -1.62      0.00
   -8    8   11      1.44      0.00
   -7    8   11     -0.18      0.00
   -6    8   11      0.07      0.00
   -5    8   11      3.75      0.00
   -4    8   11     -2.16      0.00
   -3    8   11      2.12      0.00
   -2    8   11      0.25      0.00
   -1    8   11      0.61      0.00
    0    8   11      1.81      0.00
    1    8   11      2.52      0.00
    2    8   11      0.22      0.00
    3    8   11     -0.40      0.00
    4    8   11      0.55      0.00
    5    8   11     -0.80      0.00
    6    8   11      0.85      0.00
    7    8   11     -0.07      0.00
    8    8   11     -0.28      0.00
    9    8   11     -0.07      0.00
   10    8   11     -0.45      0.00
  -12    9   11      0.20      0.00
  -11    9   11     -1.68      0.00
  -10    9   11     -1.06      0.00
   -9    9   11     -0.44      0.00
   -8    9   11     -0.41      0.00
   -7    9   11      0.73      0.00
   -6    9   11      0.86      0.00
   -5    9   11     -0.66      0.00
   -4    9   11      0.17      0.00
   -3    9   11     -1.13      0.00
   -2    9   11      0.58      0.00
   -1    9   11      1.86      0.00
    0    9   11      0.31      0.00
    1    9   11      0.14      0.00
    2    9   11     -1.88      0.00
    3    9   11     -1.33      0.00
    4    9   11     -1.07      0.00
    5    9   11     -2.20      0.00
    6    9   11     -0.49      0.00
    7    9   11      2.11      0.00
    8    9   11     -0.35      0.00
    9    9   11     -0.26      0.00
   10    9   11     -1.72      0.00
  -11   10   11      0.08      0.00
  -10   10   11     -0.97      0.00
   -9   10   11     -0.89      0.00
   -8   10   11      0.46      0.00
   -7   10   11      0.17      0.00
   -6   10   11     -0.09      0.00
   -5   10   11      0.56      0.00
   -4   10   11     -0.26      0.00
   -3   10   11      1.08      0.00
   -2   10   11      0.47      0.00
   -1   10   11     -0.07      0.00
    0   10   11      1.06      0.00
    1   10   11     -1.20      0.00
    2   10   11     -0.93      0.00
    3   10   11     -0.90      0.00
    4   10   11     -0.74      0.00
    5   10   11      0.25      0.00
    6   10   11      0.14      0.00
    7   10   11      0.58      0.00
    8   10   11     -0.27      0.00
    9   10   11     -0.12      0.00
  -11   11   11     -1.79      0.00
  -10   11   11     -0.43      0.00
   -9   11   11      0.09      0.00
   -8   11   11      0.36      0.00
   -7   11   11     -0.28      0.00
   -6   11   11      0.19      0.00
   -5   11   11     -0.23      0.00
   -4   11   11     -0.11      0.00
   -3   11   11     -0.64      0.00
   -2   11   11     -0.15      0.00
   -1   11   11      1.51      0.00
    0   11   11     -1.10      0.00
    1   11   11     -2.00      0.00
    2   11   11     -0.60      0.00
    3   11   11     -0.98      0.00
    4   11   11      0.01      0.00
    5   11   11      0.39      0.00
    6   11   11     -0.70      0.00
    7   11   11      0.35      0.00
    8   11   11      0.45      0.00
    9   11   11     -0.77      0.00
  -10   12   11      0.16      0.00
   -9   12   11      0.81      0.00
   -8   12   11      0.36      0.00
   -7   12   11     -0.18      0.00
   -6   12   11      0.81      0.00
   -5   12   11      1.01      0.00
   -4   12   11     -0.28      0.00
   -3   12   11     -0.61      0.00
   -2   12   11      0.33      0.00
   -1   12   11      0.48      0.00
    0   12   11      0.63      0.00
    1   12   11     -1.29      0.00
    2   12   11     -0.14      0.00
    3   12   11     -0.03      0.00
    4   12   11     -0.12      0.00
    5   12   11     -1.30      0.00
    6   12   11     -0.27      0.00
    7   12   11     -1.06      0.00
    8   12   11      0.98      0.00
  -10   13   11      0.44      0.00
   -9   13   11      3.84      0.00
   -8   13   11      0.01      0.00
   -7   13   11      0.86      0.00
   -6   13   11      0.09      0.00
   -5   13   11     -0.34      0.00
   -4   13   11      0.48      0.00
   -3   13   11     -0.19      0.00
   -2   13   11     -0.12      0.00
   -1   13   11      1.50      0.00
    0   13   11      0.57      0.00
    1   13   11     -1.91      0.00
    2   13   11      0.02      0.00
    3   13   11     -1.82      0.00
    4   13   11     -0.39      0.00
    5   13   11     -0.54      0.00
    6   13   11      0.43      0.00
    7   13   11      2.04      0.00
    8   13   11     -1.67      0.00
   -9   14   11     -1.10      0.00
   -8   14   11      0.53      0.00
   -7   14   11      0.82      0.00
   -6   14   11      0.28      0.00
   -5   14   11     -0.88      0.00
   -4   14   11      1.38      0.00
   -3   14   11      0.53      0.00
   -2   14   11      1.28      0.00
   -1   14   11      0.01      0.00
    0   14   11     -0.34      0.00
    1   14   11      0.87      0.00
    2   14   11     -1.04      0.00
    3   14   11     -0.58      0.00
    4   14   11      0.41      0.00
    5   14   11     -0.54      0.00
    6   14   11      0.71      0.00
    7   14   11      0.49      0.00
   -9   15   11      0.09      0.00
   -8   15   11      0.75      0.00
   -7   15   11      1.07      0.00
   -6   15   11     -0.32      0.00
   -5   15   11     -0.22      0.00
   -4   15   11     -0.70      0.00
   -3   15   11      0.27      0.00
   -2   15   11      1.02      0.00
   -1   15   11      0.14      0.00
    0   15   11      0.09      0.00
    1   15   11      1.43      0.00
    2   15   11      0.18      0.00
    3   15   11      0.71      0.00
    4   15   11     -0.48      0.00
    5   15   11     -0.43      0.00
    6   15   11     -1.66      0.00
    7   15   11      0.82      0.00
   -8   16   11     -0.64      0.00
   -7   16   11     -0.97      0.00
   -6   16   11     -0.27      0.00
   -5   16   11     -1.27      0.00
   -4   16   11     -1.28      0.00
   -3   16   11      0.50      0.00
   -2   16   11      0.55      0.00
   -1   16   11      0.36      0.00
    0   16   11     -1.13      0.00
    1   16   11     -0.40      0.00
    2   16   11      1.31      0.00
    3   16   11     -0.26      0.00
    4   16   11      0.59      0.00
    5   16   11     -0.59      0.00
    6   16   11      1.73      0.00
   -7   17   11     -0.07      0.00
   -6   17   11     -1.13      0.00
   -5   17   11      1.21      0.00
   -4   17   11     -0.04      0.00
   -3   17   11     -0.24      0.00
   -2   17   11     -0.98      0.00
   -1   17   11     -1.19      0.00
    0   17   11     -0.25      0.00
    1   17   11      0.35      0.00
    2   17   11     -0.70      0.00
    3   17   11      1.05      0.00
    4   17   11     -2.92      0.00
    5   17   11      2.44      0.00
   -6   18   11      2.57      0.00
   -5   18   11      0.78      0.00
   -4   18   11      2.23      0.00
   -3   18   11     -0.75      0.00
   -2   18   11      1.26      0.00
   -1   18   11     -2.07      0.00
    0   18   11      2.82      0.00
    1   18   11     -0.86      0.00
    2   18   11      0.87      0.00
    3   18   11     -0.37      0.00
    4   18   11      1.10      0.00
   -4   19   11      0.84      0.00
   -3   19   11      0.57      0.00
    3   19   11      1.07      0.00
  -12    0   12      0.78      0.00
  -10    0   12     -0.38      0.00
   -8    0   12      0.21      0.00
   -6    0   12     -0.07      0.00
   -4    0   12      1.73      0.00
   -2    0   12     -0.73      0.00
    0    0   12     12.03      0.00
    2    0   12      5.54      0.00
    4    0   12     -4.10      0.00
    6    0   12      2.01      0.00
    8    0   12     -2.51      0.00
   10    0   12     -0.98      0.00
  -13    1   12      0.94      0.00
  -12    1   12     -0.05      0.00
  -11    1   12      0.98      0.00
  -10    1   12     -0.68      0.00
   -9    1   12      0.76      0.00
   -8    1   12      0.96      0.00
   -7    1   12      3.26      0.00
   -6    1   12      0.60      0.00
   -5    1   12     -2.08      0.00
   -4    1   12     -0.34      0.00
   -3    1   12     -1.97      0.00
   -2    1   12     -1.57      0.00
   -1    1   12     -2.31      0.00
    0    1   12      5.73      0.00
    1    1   12      0.94      0.00
    2    1   12     -7.59      0.00
    3    1   12     -1.84      0.00
    4    1   12     -1.34      0.00
    5    1   12      2.13      0.00
    6    1   12     -0.99      0.00
    7    1   12      0.45      0.00
    8    1   12     -1.46      0.00
    9    1   12     -2.75      0.00
   10    1   12     -0.24      0.00
  -13    2   12      0.43      0.00
  -12    2   12      0.92      0.00
  -11    2   12     -0.66      0.00
  -10    2   12      1.61      0.00
   -9    2   12     -0.58      0.00
   -8    2   12      0.28      0.00
   -7    2   12     -1.85      0.00
   -6    2   12     -0.46      0.00
   -5    2   12      1.29      0.00
   -4    2   12     -0.77      0.00
   -3    2   12     -0.49      0.00
   -2    2   12     -2.39      0.00
   -1    2   12      3.68      0.00
    0    2   12     10.62      0.00
    1    2   12      3.52      0.00
    2    2   12     -0.91      0.00
    3    2   12     -1.61      0.00
    4    2   12      0.58      0.00
    5    2   12      1.49      0.00
    6    2   12      2.13      0.00
    7    2   12     -1.06      0.00
    8    2   12     -0.08      0.00
    9    2   12      0.53      0.00
   10    2   12      0.56      0.00
  -13    3   12      2.27      0.00
  -12    3   12      1.11      0.00
  -11    3   12      0.67      0.00
  -10    3   12      0.00      0.00
   -9    3   12      0.15      0.00
   -8    3   12      0.73      0.00
   -7    3   12      0.13      0.00
   -6    3   12      0.44      0.00
   -5    3   12      2.45      0.00
   -4    3   12      1.64      0.00
   -3    3   12     -0.58      0.00
   -2    3   12      0.38      0.00
   -1    3   12      4.97      0.00
    0    3   12     10.19      0.00
    1    3   12      4.45      0.00
    2    3   12     -3.68      0.00
    3    3   12     -0.14      0.00
    4    3   12      0.03      0.00
    5    3   12      1.27      0.00
    6    3   12     -0.83      0.00
    7    3   12      0.96      0.00
    8    3   12     -0.43      0.00
    9    3   12      0.53      0.00
   10    3   12      0.58      0.00
  -13    4   12     -1.09      0.00
  -12    4   12      0.13      0.00
  -11    4   12      1.06      0.00
  -10    4   12      0.86      0.00
   -9    4   12     -0.93      0.00
   -8    4   12     -0.33      0.00
   -7    4   12      1.48      0.00
   -6    4   12      0.00      0.00
   -5    4   12     -0.27      0.00
   -4    4   12     -0.34      0.00
   -3    4   12     -2.21      0.00
   -2    4   12     -2.24      0.00
   -1    4   12      7.99      0.00
    0    4   12      6.50      0.00
    1    4   12      2.97      0.00
    2    4   12     -0.63      0.00
    3    4   12     -2.87      0.00
    4    4   12      1.07      0.00
    5    4   12      1.83      0.00
    6    4   12      1.70      0.00
    7    4   12      0.89      0.00
    8    4   12      1.39      0.00
    9    4   12      1.16      0.00
   10    4   12     -0.58      0.00
  -12    5   12     -0.37      0.00
  -11    5   12     -0.39      0.00
  -10    5   12     -0.48      0.00
   -9    5   12     -1.10      0.00
   -8    5   12      0.08      0.00
   -7    5   12     -0.39      0.00
   -6    5   12     -0.95      0.00
   -5    5   12      0.57      0.00
   -4    5   12      1.15      0.00
   -3    5   12     -0.81      0.00
   -2    5   12     -0.55      0.00
   -1    5   12      6.61      0.00
    0    5   12      8.72      0.00
    1    5   12      2.47      0.00
    2    5   12      1.23      0.00
    3    5   12      1.66      0.00
    4    5   12      1.78      0.00
    5    5   12      2.53      0.00
    6    5   12      0.41      0.00
    7    5   12     -0.72      0.00
    8    5   12     -0.09      0.00
    9    5   12      0.02      0.00
   10    5   12      2.04      0.00
  -12    6   12     -0.60      0.00
  -11    6   12      0.04      0.00
  -10    6   12      0.53      0.00
   -9    6   12      0.83      0.00
   -8    6   12     -0.48      0.00
   -7    6   12      0.36      0.00
   -6    6   12      0.42      0.00
   -5    6   12      1.15      0.00
   -4    6   12      0.51      0.00
   -3    6   12      0.34      0.00
   -2    6   12      2.59      0.00
   -1    6   12      0.86      0.00
    0    6   12      4.80      0.00
    1    6   12      2.27      0.00
    2    6   12      0.16      0.00
    3    6   12      2.90      0.00
    4    6   12      2.06      0.00
    5    6   12      0.22      0.00
    6    6   12      0.08      0.00
    7    6   12      0.62      0.00
    8    6   12     -0.85      0.00
    9    6   12      0.43      0.00
   10    6   12     -1.54      0.00
  -12    7   12      0.19      0.00
  -11    7   12      1.32      0.00
  -10    7   12     -0.64      0.00
   -9    7   12     -0.58      0.00
   -8    7   12     -0.72      0.00
   -7    7   12     -1.45      0.00
   -6    7   12      0.31      0.00
   -5    7   12      0.35      0.00
   -3    7   12      1.51      0.00
   -2    7   12     -0.64      0.00
   -1    7   12     -0.95      0.00
    0    7   12      4.50      0.00
    1    7   12      2.56      0.00
    2    7   12      0.89      0.00
    3    7   12      1.15      0.00
    4    7   12      1.76      0.00
    5    7   12     -0.40      0.00
    6    7   12      1.03      0.00
    7    7   12     -0.72      0.00
    8    7   12      0.34      0.00
    9    7   12     -0.71      0.00
   10    7   12     -0.29      0.00
  -12    8   12     -0.26      0.00
  -11    8   12     -1.22      0.00
  -10    8   12      1.30      0.00
   -9    8   12     -1.78      0.00
   -8    8   12     -0.14      0.00
   -7    8   12     -0.17      0.00
   -6    8   12     -0.26      0.00
   -5    8   12     -1.82      0.00
   -3    8   12      1.22      0.00
   -2    8   12     -0.01      0.00
   -1    8   12      0.77      0.00
    0    8   12      1.10      0.00
    1    8   12      2.46      0.00
    2    8   12      0.25      0.00
    3    8   12      0.26      0.00
    4    8   12     -0.46      0.00
    5    8   12     -1.32      0.00
    6    8   12      0.06      0.00
    7    8   12      0.07      0.00
    8    8   12      0.13      0.00
    9    8   12      0.05      0.00
  -11    9   12      1.10      0.00
  -10    9   12      0.02      0.00
   -9    9   12      0.46      0.00
   -8    9   12      0.60      0.00
   -7    9   12      0.47      0.00
   -6    9   12      0.26      0.00
   -5    9   12      0.69      0.00
   -4    9   12      0.63      0.00
   -3    9   12     -0.16      0.00
   -2    9   12      1.30      0.00
   -1    9   12      0.67      0.00
    0    9   12      0.54      0.00
    1    9   12      0.56      0.00
    2    9   12      1.09      0.00
    3    9   12      0.23      0.00
    4    9   12      0.21      0.00
    5    9   12      0.60      0.00
    6    9   12     -0.85      0.00
    7    9   12      0.50      0.00
    8    9   12     -1.06      0.00
    9    9   12     -0.76      0.00
  -11   10   12     -0.48      0.00
  -10   10   12     -0.09      0.00
   -9   10   12      0.39      0.00
   -8   10   12      0.20      0.00
   -7   10   12     -0.18      0.00
   -6   10   12      0.30      0.00
   -5   10   12     -0.13      0.00
   -4   10   12     -1.03      0.00
   -3   10   12      0.27      0.00
   -2   10   12      0.03      0.00
   -1   10   12      0.12      0.00
    0   10   12      0.72      0.00
    1   10   12      0.60      0.00
    2   10   12      0.40      0.00
    3   10   12     -0.85      0.00
    4   10   12      0.38      0.00
    5   10   12     -1.22      0.00
    6   10   12     -1.18      0.00
    7   10   12      1.80      0.00
    8   10   12     -1.14      0.00
    9   10   12     -0.99      0.00
  -11   11   12      0.97      0.00
  -10   11   12      1.01      0.00
   -9   11   12     -0.33      0.00
   -8   11   12     -0.37      0.00
   -7   11   12      0.62      0.00
   -6   11   12      0.70      0.00
   -5   11   12     -0.80      0.00
   -4   11   12     -0.56      0.00
   -3   11   12      0.05      0.00
   -2   11   12      0.44      0.00
   -1   11   12      0.20      0.00
    0   11   12     -0.57      0.00
    1   11   12      0.32      0.00
    2   11   12      0.58      0.00
    3   11   12     -0.91      0.00
    4   11   12     -0.49      0.00
    5   11   12     -0.26      0.00
    6   11   12      0.02      0.00
    7   11   12      0.35      0.00
    8   11   12      0.83      0.00
  -10   12   12      0.93      0.00
   -9   12   12      0.35      0.00
   -8   12   12     -0.19      0.00
   -7   12   12      0.07      0.00
   -6   12   12     -0.05      0.00
   -5   12   12     -0.19      0.00
   -4   12   12      0.08      0.00
   -3   12   12     -0.15      0.00
   -2   12   12      0.24      0.00
   -1   12   12      0.95      0.00
    0   12   12      0.31      0.00
    1   12   12     -1.59      0.00
    2   12   12     -0.77      0.00
    3   12   12     -0.81      0.00
    4   12   12     -0.44      0.00
    5   12   12      0.65      0.00
    6   12   12      1.71      0.00
    7   12   12     -0.80      0.00
    8   12   12     -1.38      0.00
  -10   13   12     -2.22      0.00
   -9   13   12      0.50      0.00
   -8   13   12     -0.01      0.00
   -7   13   12      0.31      0.00
   -6   13   12     -1.52      0.00
   -5   13   12      0.69      0.00
   -4   13   12      0.83      0.00
   -3   13   12      0.02      0.00
   -2   13   12     -0.69      0.00
   -1   13   12     -0.47      0.00
    0   13   12      0.65      0.00
    1   13   12     -0.10      0.00
    2   13   12     -0.84      0.00
    3   13   12      0.36      0.00
    4   13   12      1.20      0.00
    5   13   12      0.80      0.00
    6   13   12     -1.13      0.00
    7   13   12     -0.75      0.00
   -9   14   12      0.98      0.00
   -8   14   12      2.14      0.00
   -7   14   12     -0.71      0.00
   -6   14   12      0.37      0.00
   -5   14   12     -1.03      0.00
   -4   14   12      0.54      0.00
   -3   14   12     -0.30      0.00
   -2   14   12     -1.25      0.00
   -1   14   12      0.00      0.00
    0   14   12      0.76      0.00
    1   14   12      0.29      0.00
    2   14   12      0.04      0.00
    3   14   12     -1.81      0.00
    4   14   12     -0.54      0.00
    5   14   12     -2.07      0.00
    6   14   12      0.76      0.00
    7   14   12      0.10      0.00
   -8   15   12     -0.93      0.00
   -7   15   12     -0.37      0.00
   -6   15   12      0.89      0.00
   -5   15   12     -0.01      0.00
   -4   15   12      0.05      0.00
   -3   15   12      0.71      0.00
   -2   15   12      1.19      0.00
   -1   15   12     -0.31      0.00
    0   15   12      0.89      0.00
    1   15   12      0.83      0.00
    2   15   12     -1.25      0.00
    3   15   12      0.23      0.00
    4   15   12     -1.62      0.00
    5   15   12      1.19      0.00
    6   15   12     -0.95      0.00
   -8   16   12      0.10      0.00
   -7   16   12      0.61      0.00
   -6   16   12      0.98      0.00
   -5   16   12      0.42      0.00
   -4   16   12      1.04      0.00
   -3   16   12     -0.58      0.00
   -2   16   12      0.25      0.00
   -1   16   12      2.09      0.00
    0   16   12      0.34      0.00
    1   16   12      2.57      0.00
    2   16   12      0.57      0.00
    3   16   12     -1.33      0.00
    4   16   12      1.60      0.00
    5   16   12      1.37      0.00
    6   16   12     -0.54      0.00
   -7   17   12      1.29      0.00
   -6   17   12      1.23      0.00
   -5   17   12      0.71      0.00
   -4   17   12     -2.92      0.00
   -3   17   12     -0.19      0.00
   -2   17   12      0.12      0.00
   -1   17   12      1.14      0.00
    0   17   12      4.22      0.00
    1   17   12     -1.09      0.00
    3   17   12      1.19      0.00
    4   17   12     -0.19      0.00
    5   17   12      0.68      0.00
   -6   18   12      0.40      0.00
   -5   18   12     -1.11      0.00
   -4   18   12      0.99      0.00
   -3   18   12     -3.25      0.00
   -2   18   12     -0.53      0.00
   -1   18   12     -0.78      0.00
    0   18   12      0.65      0.00
    1   18   12      0.59      0.00
    2   18   12     -0.23      0.00
    3   18   12      0.32      0.00
    4   18   12     -0.10      0.00
   -4   19   12      0.81      0.00
   -3   19   12      1.76      0.00
  -13    0   13      1.01      0.00
  -11    0   13     -0.12      0.00
   -9    0   13      1.09      0.00
   -7    0   13     -0.12      0.00
   -5    0   13     -3.54      0.00
   -3    0   13     -2.22      0.00
   -1    0   13     -1.50      0.00
    1    0   13    -10.57      0.00
    3    0   13      0.38      0.00
    5    0   13      1.67      0.00
    7    0   13      0.12      0.00
    9    0   13      3.26      0.00
  -13    1   13      0.01      0.00
  -12    1   13     -1.48      0.00
  -11    1   13      0.86      0.00
  -10    1   13      0.60      0.00
   -9    1   13     -0.72      0.00
   -8    1   13      0.01      0.00
   -7    1   13      1.20      0.00
   -6    1   13     -0.48      0.00
   -5    1   13      0.09      0.00
   -4    1   13     -0.83      0.00
   -3    1   13      1.17      0.00
   -2    1   13      0.53      0.00
   -1    1   13      0.11      0.00
    0    1   13      4.93      0.00
    1    1   13      0.36      0.00
    2    1   13     -1.11      0.00
    3    1   13      4.18      0.00
    4    1   13     -0.63      0.00
    5    1   13      0.38      0.00
    6    1   13     -0.08      0.00
    7    1   13      0.88      0.00
    8    1   13      2.74      0.00
    9    1   13      0.04      0.00
   10    1   13      1.52      0.00
  -13    2   13      0.12      0.00
  -12    2   13     -1.06      0.00
  -11    2   13     -1.48      0.00
  -10    2   13     -1.14      0.00
   -9    2   13     -0.09      0.00
   -8    2   13      0.69      0.00
   -7    2   13      1.31      0.00
   -6    2   13      4.08      0.00
   -5    2   13      1.07      0.00
   -4    2   13     -0.86      0.00
   -3    2   13     -1.35      0.00
   -2    2   13      0.22      0.00
   -1    2   13     -0.31      0.00
    0    2   13      3.75      0.00
    1    2   13      0.20      0.00
    2    2   13     -0.66      0.00
    3    2   13     -0.45      0.00
    4    2   13     -0.57      0.00
    5    2   13     -0.34      0.00
    6    2   13     -0.28      0.00
    7    2   13     -0.42      0.00
    8    2   13      1.09      0.00
    9    2   13      0.84      0.00
   10    2   13      0.81      0.00
  -13    3   13     -0.23      0.00
  -12    3   13     -0.59      0.00
  -11    3   13     -0.78      0.00
  -10    3   13     -1.09      0.00
   -9    3   13     -1.87      0.00
   -8    3   13      1.67      0.00
   -7    3   13      0.44      0.00
   -5    3   13     -0.21      0.00
   -4    3   13     -1.15      0.00
   -3    3   13     -0.04      0.00
   -2    3   13     -1.92      0.00
   -1    3   13      1.28      0.00
    0    3   13      4.43      0.00
    1    3   13      4.66      0.00
    2    3   13      0.84      0.00
    3    3   13     -0.10      0.00
    4    3   13     -0.01      0.00
    5    3   13      0.97      0.00
    6    3   13     -0.32      0.00
    7    3   13      1.03      0.00
    8    3   13     -0.67      0.00
    9    3   13      0.43      0.00
   10    3   13     -0.63      0.00
  -12    4   13     -0.18      0.00
  -11    4   13     -0.64      0.00
  -10    4   13     -2.04      0.00
   -9    4   13      0.29      0.00
   -8    4   13     -0.21      0.00
   -7    4   13      0.74      0.00
   -6    4   13      0.66      0.00
   -5    4   13      0.45      0.00
   -4    4   13      0.98      0.00
   -3    4   13     -0.92      0.00
   -2    4   13      0.00      0.00
   -1    4   13      4.28      0.00
    0    4   13      6.25      0.00
    1    4   13      6.45      0.00
    2    4   13      1.52      0.00
    3    4   13     -0.67      0.00
    4    4   13      0.43      0.00
    5    4   13     -1.29      0.00
    6    4   13     -1.56      0.00
    7    4   13     -1.16      0.00
    8    4   13      0.62      0.00
    9    4   13     -0.89      0.00
   10    4   13      1.37      0.00
  -12    5   13     -1.12      0.00
  -11    5   13     -0.39      0.00
  -10    5   13      0.21      0.00
   -9    5   13     -1.41      0.00
   -8    5   13     -0.31      0.00
   -7    5   13     -0.54      0.00
   -6    5   13      0.89      0.00
   -5    5   13      0.50      0.00
   -4    5   13     -0.18      0.00
   -3    5   13     -0.48      0.00
   -2    5   13     -3.75      0.00
   -1    5   13      1.31      0.00
    0    5   13      8.76      0.00
    1    5   13      3.67      0.00
    2    5   13      2.69      0.00
    3    5   13     -0.66      0.00
    4    5   13     -1.07      0.00
    5    5   13     -0.79      0.00
    6    5   13     -1.36      0.00
    7    5   13     -0.41      0.00
    8    5   13     -0.88      0.00
    9    5   13      1.15      0.00
   10    5   13     -0.62      0.00
  -12    6   13      1.02      0.00
  -11    6   13     -1.13      0.00
  -10    6   13     -1.33      0.00
   -9    6   13     -0.97      0.00
   -8    6   13     -2.11      0.00
   -7    6   13      0.65      0.00
   -6    6   13     -0.51      0.00
   -5    6   13     -1.52      0.00
   -4    6   13      0.21      0.00
   -3    6   13     -0.36      0.00
   -2    6   13     -2.77      0.00
   -1    6   13      2.26      0.00
    0    6   13      8.53      0.00
    1    6   13      4.40      0.00
    2    6   13      0.05      0.00
    3    6   13      0.99      0.00
    4    6   13     -1.24      0.00
    5    6   13      0.06      0.00
    6    6   13      1.18      0.00
    7    6   13     -0.35      0.00
    8    6   13     -0.15      0.00
    9    6   13     -2.43      0.00
   10    6   13      0.71      0.00
  -12    7   13     -0.77      0.00
  -11    7   13     -0.60      0.00
  -10    7   13     -1.56      0.00
   -9    7   13     -0.41      0.00
   -8    7   13      0.46      0.00
   -7    7   13      0.81      0.00
   -6    7   13     -0.04      0.00
   -5    7   13      0.56      0.00
   -4    7   13      1.58      0.00
   -3    7   13     -0.45      0.00
   -2    7   13      0.47      0.00
   -1    7   13      2.42      0.00
    0    7   13      6.62      0.00
    1    7   13      2.35      0.00
    2    7   13     -0.90      0.00
    3    7   13     -0.69      0.00
    4    7   13      0.56      0.00
    5    7   13     -0.07      0.00
    6    7   13     -0.63      0.00
    7    7   13      1.14      0.00
    8    7   13     -1.07      0.00
    9    7   13      0.69      0.00
  -12    8   13     -0.26      0.00
  -11    8   13     -0.30      0.00
  -10    8   13      1.22      0.00
   -9    8   13     -0.98      0.00
   -8    8   13      0.91      0.00
   -7    8   13      0.34      0.00
   -6    8   13     -0.18      0.00
   -5    8   13      1.70      0.00
   -4    8   13     -0.36      0.00
   -3    8   13      1.58      0.00
   -2    8   13      0.56      0.00
   -1    8   13      0.33      0.00
    0    8   13      1.92      0.00
    1    8   13      2.01      0.00
    2    8   13     -0.65      0.00
    3    8   13     -0.21      0.00
    4    8   13      1.09      0.00
    5    8   13     -0.25      0.00
    6    8   13      1.35      0.00
    7    8   13     -0.30      0.00
    8    8   13     -1.19      0.00
    9    8   13     -1.10      0.00
  -11    9   13     -2.27      0.00
  -10    9   13     -0.14      0.00
   -9    9   13     -0.07      0.00
   -8    9   13     -0.53      0.00
   -7    9   13     -0.52      0.00
   -6    9   13      0.96      0.00
   -5    9   13     -0.48      0.00
   -4    9   13     -1.24      0.00
   -3    9   13     -0.49      0.00
   -2    9   13     -0.05      0.00
   -1    9   13      1.36      0.00
    0    9   13      0.65      0.00
    1    9   13     -1.28      0.00
    2    9   13     -1.72      0.00
    3    9   13     -0.52      0.00
    4    9   13     -0.31      0.00
    5    9   13     -1.31      0.00
    6    9   13     -0.43      0.00
    7    9   13      1.97      0.00
    8    9   13     -0.81      0.00
    9    9   13     -0.34      0.00
  -11   10   13      0.08      0.00
  -10   10   13     -1.05      0.00
   -9   10   13     -1.20      0.00
   -8   10   13      0.54      0.00
   -7   10   13      0.67      0.00
   -6   10   13      0.17      0.00
   -5   10   13     -0.42      0.00
   -4   10   13      0.10      0.00
   -3   10   13      0.62      0.00
   -2   10   13      0.75      0.00
   -1   10   13     -0.37      0.00
    0   10   13      0.66      0.00
    1   10   13     -0.77      0.00
    2   10   13     -0.78      0.00
    3   10   13     -0.27      0.00
    4   10   13      0.26      0.00
    5   10   13     -0.54      0.00
    6   10   13      0.10      0.00
    7   10   13      0.49      0.00
    8   10   13     -0.43      0.00
  -11   11   13     -1.30      0.00
  -10   11   13     -0.85      0.00
   -9   11   13     -0.24      0.00
   -8   11   13      0.83      0.00
   -7   11   13      0.15      0.00
   -6   11   13      0.28      0.00
   -5   11   13     -0.70      0.00
   -4   11   13     -0.23      0.00
   -3   11   13     -0.28      0.00
   -2   11   13      0.78      0.00
   -1   11   13      1.10      0.00
    0   11   13     -1.48      0.00
    1   11   13     -2.46      0.00
    2   11   13      1.00      0.00
    3   11   13     -0.44      0.00
    4   11   13      0.08      0.00
    5   11   13      0.80      0.00
    6   11   13     -1.45      0.00
    7   11   13      0.31      0.00
    8   11   13     -0.02      0.00
  -10   12   13      0.38      0.00
   -9   12   13      1.16      0.00
   -8   12   13      0.27      0.00
   -7   12   13     -0.32      0.00
   -6   12   13      0.05      0.00
   -5   12   13      0.28      0.00
   -4   12   13     -0.86      0.00
   -3   12   13     -0.21      0.00
   -2   12   13      0.33      0.00
   -1   12   13      0.11      0.00
    0   12   13     -0.75      0.00
    1   12   13     -1.05      0.00
    2   12   13     -0.33      0.00
    3   12   13      1.95      0.00
    4   12   13     -0.30      0.00
    5   12   13     -1.19      0.00
    6   12   13     -0.84      0.00
    7   12   13     -0.98      0.00
    8   12   13      0.82      0.00
  -10   13   13      1.11      0.00
   -9   13   13      3.18      0.00
   -8   13   13      0.74      0.00
   -7   13   13      0.10      0.00
   -6   13   13      0.08      0.00
   -5   13   13     -0.43      0.00
   -4   13   13      0.07      0.00
   -3   13   13     -0.36      0.00
   -2   13   13     -0.34      0.00
   -1   13   13      1.54      0.00
    0   13   13      0.13      0.00
    1   13   13     -1.49      0.00
    2   13   13      0.44      0.00
    3   13   13     -1.97      0.00
    4   13   13     -0.24      0.00
    5   13   13     -0.68      0.00
    6   13   13      0.88      0.00
    7   13   13      1.64      0.00
   -9   14   13     -0.13      0.00
   -8   14   13      0.18      0.00
   -7   14   13      0.64      0.00
   -6   14   13      0.45      0.00
   -5   14   13     -1.12      0.00
   -4   14   13      1.41      0.00
   -3   14   13      1.27      0.00
   -2   14   13      0.97      0.00
   -1   14   13     -0.03      0.00
    0   14   13     -0.30      0.00
    1   14   13      0.29      0.00
    2   14   13     -0.99      0.00
    3   14   13     -0.36      0.00
    4   14   13     -0.07      0.00
    5   14   13      0.65      0.00
    6   14   13      0.20      0.00
   -8   15   13      1.02      0.00
   -7   15   13      0.09      0.00
   -6   15   13     -0.52      0.00
   -5   15   13     -0.48      0.00
   -4   15   13     -0.05      0.00
   -3   15   13     -0.24      0.00
   -2   15   13      0.98      0.00
   -1   15   13     -0.43      0.00
    0   15   13      0.25      0.00
    1   15   13      1.17      0.00
    2   15   13     -0.11      0.00
    3   15   13      0.57      0.00
    4   15   13     -0.06      0.00
    5   15   13     -1.62      0.00
    6   15   13     -2.94      0.00
   -7   16   13     -0.56      0.00
   -6   16   13     -0.95      0.00
   -5   16   13     -1.72      0.00
   -4   16   13     -1.05      0.00
   -3   16   13      0.19      0.00
   -2   16   13      0.22      0.00
   -1   16   13      0.64      0.00
    0   16   13     -0.57      0.00
    1   16   13      0.07      0.00
    2   16   13      0.30      0.00
    3   16   13     -0.76      0.00
    4   16   13     -0.22      0.00
    5   16   13     -1.84      0.00
    6   16   13     -0.02      0.00
   -6   17   13     -1.19      0.00
   -5   17   13      0.09      0.00
   -4   17   13     -0.77      0.00
   -3   17   13      0.35      0.00
   -2   17   13     -0.15      0.00
   -1   17   13     -0.32      0.00
    0   17   13     -0.72      0.00
    1   17   13     -0.38      0.00
    2   17   13     -0.50      0.00
    3   17   13     -0.50      0.00
    4   17   13     -3.37      0.00
   -5   18   13      0.47      0.00
   -4   18   13      1.73      0.00
   -3   18   13     -0.91      0.00
   -2   18   13      1.73      0.00
   -1   18   13     -1.64      0.00
    0   18   13      3.11      0.00
    1   18   13     -0.60      0.00
   -3   19   13      0.47      0.00
  -12    0   14      0.97      0.00
  -10    0   14     -1.05      0.00
   -8    0   14     -0.06      0.00
   -6    0   14     -1.43      0.00
   -4    0   14      1.52      0.00
   -2    0   14     -4.30      0.00
    0    0   14      7.47      0.00
    2    0   14      4.90      0.00
    4    0   14     -3.97      0.00
    6    0   14     -0.25      0.00
    8    0   14     -1.14      0.00
   10    0   14     -0.98      0.00
  -13    1   14      1.08      0.00
  -12    1   14     -0.09      0.00
  -11    1   14      0.92      0.00
  -10    1   14      0.06      0.00
   -9    1   14      0.53      0.00
   -8    1   14      0.73      0.00
   -7    1   14      1.17      0.00
   -6    1   14      0.68      0.00
   -5    1   14     -1.50      0.00
   -4    1   14     -2.71      0.00
   -3    1   14     -2.68      0.00
   -2    1   14      0.44      0.00
   -1    1   14     -2.51      0.00
    0    1   14      4.56      0.00
    1    1   14     -0.81      0.00
    2    1   14     -3.18      0.00
    3    1   14     -1.36      0.00
    4    1   14     -1.86      0.00
    5    1   14     -0.06      0.00
    6    1   14      0.32      0.00
    7    1   14     -0.71      0.00
    8    1   14      0.05      0.00
    9    1   14     -2.35      0.00
   10    1   14      0.15      0.00
  -12    2   14      0.03      0.00
  -11    2   14     -1.02      0.00
  -10    2   14      2.00      0.00
   -9    2   14      0.15      0.00
   -8    2   14      0.57      0.00
   -7    2   14     -0.91      0.00
   -6    2   14     -0.40      0.00
   -5    2   14      0.30      0.00
   -4    2   14     -0.75      0.00
   -3    2   14     -0.44      0.00
   -2    2   14     -1.60      0.00
   -1    2   14      4.04      0.00
    0    2   14      6.11      0.00
    1    2   14      2.76      0.00
    2    2   14     -0.99      0.00
    3    2   14     -0.70      0.00
    4    2   14     -0.13      0.00
    5    2   14      0.53      0.00
    6    2   14      0.47      0.00
    7    2   14     -1.39      0.00
    8    2   14     -0.72      0.00
    9    2   14      0.30      0.00
   10    2   14     -0.07      0.00
  -12    3   14      0.54      0.00
  -11    3   14      0.16      0.00
  -10    3   14      0.20      0.00
   -9    3   14      0.96      0.00
   -8    3   14      0.55      0.00
   -7    3   14      0.73      0.00
   -6    3   14      0.47      0.00
   -5    3   14      1.30      0.00
   -4    3   14      0.35      0.00
   -3    3   14      0.43      0.00
   -2    3   14      0.94      0.00
   -1    3   14      2.24      0.00
    0    3   14      6.40      0.00
    1    3   14      2.97      0.00
    2    3   14     -2.39      0.00
    3    3   14      0.15      0.00
    4    3   14     -0.41      0.00
    5    3   14      0.82      0.00
    6    3   14     -0.48      0.00
    7    3   14      1.05      0.00
    8    3   14     -1.31      0.00
    9    3   14     -0.11      0.00
   10    3   14      1.34      0.00
  -12    4   14     -0.07      0.00
  -11    4   14      1.61      0.00
  -10    4   14      0.72      0.00
   -9    4   14     -0.34      0.00
   -8    4   14     -0.29      0.00
   -7    4   14      0.70      0.00
   -6    4   14      0.53      0.00
   -5    4   14     -0.86      0.00
   -4    4   14     -1.15      0.00
   -3    4   14     -1.23      0.00
   -2    4   14      0.40      0.00
   -1    4   14      4.67      0.00
    0    4   14      4.43      0.00
    1    4   14      1.89      0.00
    2    4   14      0.99      0.00
    3    4   14     -0.89      0.00
    4    4   14      1.21      0.00
    5    4   14      0.51      0.00
    6    4   14      1.29      0.00
    7    4   14      1.02      0.00
    8    4   14      1.00      0.00
    9    4   14      1.87      0.00
   10    4   14      0.68      0.00
  -12    5   14     -0.62      0.00
  -11    5   14     -0.83      0.00
  -10    5   14      0.97      0.00
   -9    5   14     -1.36      0.00
   -8    5   14      0.74      0.00
   -7    5   14     -0.49      0.00
   -6    5   14     -1.36      0.00
   -5    5   14     -0.35      0.00
   -4    5   14      1.29      0.00
   -3    5   14      0.80      0.00
   -2    5   14     -0.85      0.00
   -1    5   14      5.42      0.00
    0    5   14      7.54      0.00
    1    5   14      2.21      0.00
    2    5   14      2.10      0.00
    3    5   14      0.45      0.00
    4    5   14      1.67      0.00
    5    5   14      1.83      0.00
    6    5   14      0.70      0.00
    7    5   14     -0.41      0.00
    8    5   14     -0.30      0.00
    9    5   14      1.04      0.00
  -12    6   14     -0.23      0.00
  -11    6   14     -0.77      0.00
  -10    6   14      0.35      0.00
   -9    6   14      1.22      0.00
   -8    6   14     -0.44      0.00
   -7    6   14      0.86      0.00
   -6    6   14      0.16      0.00
   -5    6   14      0.64      0.00
   -4    6   14      1.33      0.00
   -3    6   14      0.00      0.00
   -2    6   14      1.80      0.00
   -1    6   14      1.45      0.00
    0    6   14      4.95      0.00
    1    6   14      1.63      0.00
    2    6   14      0.87      0.00
    3    6   14      2.10      0.00
    4    6   14      0.60      0.00
    5    6   14      1.08      0.00
    6    6   14     -0.61      0.00
    7    6   14     -0.34      0.00
    8    6   14     -1.20      0.00
    9    6   14      2.31      0.00
  -12    7   14     -0.05      0.00
  -11    7   14      2.21      0.00
  -10    7   14     -0.22      0.00
   -9    7   14     -1.24      0.00
   -8    7   14     -0.25      0.00
   -7    7   14     -1.73      0.00
   -6    7   14     -0.44      0.00
   -5    7   14      1.40      0.00
   -4    7   14     -0.41      0.00
   -3    7   14      1.51      0.00
   -2    7   14     -0.68      0.00
   -1    7   14      0.13      0.00
    0    7   14      5.67      0.00
    1    7   14      2.64      0.00
    2    7   14      1.17      0.00
    3    7   14      1.14      0.00
    4    7   14      1.12      0.00
    5    7   14     -1.40      0.00
    6    7   14      0.93      0.00
    7    7   14     -0.93      0.00
    8    7   14     -0.06      0.00
    9    7   14     -0.11      0.00
  -11    8   14     -0.88      0.00
  -10    8   14      0.89      0.00
   -9    8   14     -2.52      0.00
   -8    8   14     -1.57      0.00
   -7    8   14     -0.01      0.00
   -6    8   14      0.57      0.00
   -5    8   14     -1.42      0.00
   -4    8   14      0.02      0.00
   -3    8   14      1.18      0.00
   -2    8   14     -0.81      0.00
   -1    8   14      1.65      0.00
    0    8   14      2.49      0.00
    1    8   14      3.23      0.00
    2    8   14      0.79      0.00
    3    8   14      0.81      0.00
    4    8   14     -0.83      0.00
    5    8   14     -0.36      0.00
    6    8   14      0.33      0.00
    7    8   14      0.74      0.00
    8    8   14      0.21      0.00
    9    8   14     -0.17      0.00
  -11    9   14      0.35      0.00
  -10    9   14     -0.92      0.00
   -9    9   14      0.12      0.00
   -8    9   14      0.53      0.00
   -7    9   14      0.26      0.00
   -6    9   14      1.35      0.00
   -5    9   14      0.79      0.00
   -4    9   14      0.82      0.00
   -3    9   14      0.68      0.00
   -2    9   14      1.33      0.00
   -1    9   14      0.72      0.00
    0    9   14      2.73      0.00
    1    9   14      1.94      0.00
    2    9   14      1.17      0.00
    3    9   14     -0.03      0.00
    4    9   14     -0.83      0.00
    5    9   14     -0.21      0.00
    6    9   14     -0.46      0.00
    7    9   14      0.73      0.00
    8    9   14     -0.81      0.00
  -11   10   14     -1.62      0.00
  -10   10   14     -0.78      0.00
   -9   10   14      0.21      0.00
   -8   10   14      0.43      0.00
   -7   10   14     -0.05      0.00
   -6   10   14      0.53      0.00
   -5   10   14      0.23      0.00
   -4   10   14      0.14      0.00
   -3   10   14      0.03      0.00
   -2   10   14      0.09      0.00
   -1   10   14      0.33      0.00
    0   10   14      2.04      0.00
    1   10   14      1.30      0.00
    2   10   14      0.71      0.00
    3   10   14     -1.75      0.00
    4   10   14     -0.13      0.00
    5   10   14     -1.10      0.00
    6   10   14     -0.17      0.00
    7   10   14      2.39      0.00
    8   10   14     -1.43      0.00
  -10   11   14      0.06      0.00
   -9   11   14     -0.75      0.00
   -8   11   14     -1.18      0.00
   -7   11   14      0.25      0.00
   -6   11   14      0.74      0.00
   -5   11   14     -0.43      0.00
   -4   11   14     -0.09      0.00
   -3   11   14      0.02      0.00
   -2   11   14      0.46      0.00
   -1   11   14     -0.31      0.00
    0   11   14      0.35      0.00
    1   11   14      0.23      0.00
    2   11   14      0.73      0.00
    3   11   14     -0.92      0.00
    4   11   14     -0.84      0.00
    5   11   14     -0.05      0.00
    6   11   14     -0.09      0.00
    7   11   14      0.30      0.00
    8   11   14      1.33      0.00
  -10   12   14      0.53      0.00
   -9   12   14      0.01      0.00
   -8   12   14     -0.34      0.00
   -7   12   14      0.19      0.00
   -6   12   14      0.27      0.00
   -5   12   14     -0.03      0.00
   -4   12   14     -0.08      0.00
   -3   12   14     -0.10      0.00
   -2   12   14      0.22      0.00
   -1   12   14      1.93      0.00
    0   12   14      0.31      0.00
    1   12   14     -1.17      0.00
    2   12   14     -1.20      0.00
    3   12   14      0.09      0.00
    4   12   14     -0.74      0.00
    5   12   14      1.31      0.00
    6   12   14      1.18      0.00
    7   12   14     -0.14      0.00
   -9   13   14     -0.16      0.00
   -8   13   14      0.48      0.00
   -7   13   14      0.14      0.00
   -6   13   14     -0.78      0.00
   -5   13   14      0.28      0.00
   -4   13   14      0.46      0.00
   -3   13   14     -0.29      0.00
   -2   13   14     -0.41      0.00
   -1   13   14     -0.01      0.00
    0   13   14      0.01      0.00
    1   13   14     -0.84      0.00
    2   13   14     -0.91      0.00
    3   13   14      0.25      0.00
    4   13   14      2.53      0.00
    5   13   14      1.21      0.00
    6   13   14     -1.27      0.00
    7   13   14     -0.71      0.00
   -9   14   14      0.63      0.00
   -8   14   14      1.18      0.00
   -7   14   14     -0.77      0.00
   -6   14   14     -0.06      0.00
   -5   14   14     -0.52      0.00
   -4   14   14      0.01      0.00
   -3   14   14     -0.81      0.00
   -2   14   14     -1.08      0.00
   -1   14   14      0.10      0.00
    0   14   14     -0.28      0.00
    1   14   14     -0.36      0.00
    2   14   14     -0.93      0.00
    3   14   14     -0.51      0.00
    4   14   14     -0.42      0.00
    5   14   14     -0.67      0.00
    6   14   14      0.35      0.00
   -8   15   14     -0.45      0.00
   -7   15   14     -1.13      0.00
   -6   15   14      0.97      0.00
   -5   15   14      0.03      0.00
   -4   15   14      0.05      0.00
   -3   15   14      0.41      0.00
   -2   15   14      0.99      0.00
   -1   15   14     -0.01      0.00
    0   15   14      1.00      0.00
    1   15   14     -0.39      0.00
    2   15   14     -0.29      0.00
    3   15   14      0.20      0.00
    4   15   14     -0.55      0.00
    5   15   14      0.33      0.00
    6   15   14      1.92      0.00
   -7   16   14      0.65      0.00
   -6   16   14      0.37      0.00
   -5   16   14      0.62      0.00
   -4   16   14      1.32      0.00
   -3   16   14     -0.08      0.00
   -2   16   14      0.28      0.00
   -1   16   14      1.08      0.00
    0   16   14     -0.18      0.00
    1   16   14      2.63      0.00
    2   16   14     -0.12      0.00
    3   16   14      0.38      0.00
    4   16   14      1.21      0.00
    5   16   14      2.68      0.00
   -6   17   14      1.60      0.00
   -5   17   14      0.03      0.00
   -4   17   14     -1.87      0.00
   -3   17   14      0.21      0.00
   -2   17   14      0.14      0.00
   -1   17   14      0.62      0.00
    0   17   14      3.51      0.00
    1   17   14      0.43      0.00
    2   17   14      2.80      0.00
    4   17   14      0.71      0.00
   -5   18   14     -0.30      0.00
   -4   18   14      0.10      0.00
   -3   18   14     -2.71      0.00
   -2   18   14     -0.68      0.00
   -1   18   14     -0.85      0.00
  -11    0   15      0.39      0.00
   -9    0   15      0.48      0.00
   -7    0   15      0.08      0.00
   -5    0   15     -3.63      0.00
   -3    0   15      0.28      0.00
   -1    0   15     -2.51      0.00
    1    0   15     -5.40      0.00
    5    0   15      2.39      0.00
    7    0   15      2.29      0.00
    9    0   15      1.80      0.00
  -12    1   15     -1.73      0.00
  -11    1   15      1.36      0.00
  -10    1   15      1.26      0.00
   -9    1   15     -1.39      0.00
   -8    1   15      0.35      0.00
   -7    1   15      0.70      0.00
   -6    1   15     -0.48      0.00
   -5    1   15     -0.17      0.00
   -4    1   15     -0.73      0.00
   -3    1   15      1.77      0.00
   -2    1   15     -0.12      0.00
   -1    1   15     -1.26      0.00
    0    1   15      3.59      0.00
    1    1   15     -0.77      0.00
    2    1   15      0.42      0.00
    3    1   15      0.25      0.00
    4    1   15     -1.06      0.00
    5    1   15     -0.84      0.00
    6    1   15      0.45      0.00
    7    1   15     -2.16      0.00
    8    1   15      2.80      0.00
    9    1   15      0.08      0.00
   10    1   15      1.76      0.00
  -12    2   15     -1.41      0.00
  -11    2   15     -1.02      0.00
  -10    2   15     -0.54      0.00
   -9    2   15     -0.05      0.00
   -8    2   15      0.49      0.00
   -7    2   15      1.22      0.00
   -6    2   15      1.58      0.00
   -5    2   15      0.59      0.00
   -4    2   15      0.15      0.00
   -3    2   15     -2.14      0.00
   -2    2   15     -2.74      0.00
   -1    2   15     -1.03      0.00
    0    2   15      2.89      0.00
    1    2   15     -0.18      0.00
    2    2   15     -2.54      0.00
    3    2   15     -0.05      0.00
    4    2   15     -2.42      0.00
    5    2   15     -0.04      0.00
    6    2   15      0.34      0.00
    7    2   15      0.14      0.00
    8    2   15      0.61      0.00
    9    2   15      1.91      0.00
  -12    3   15     -0.22      0.00
  -11    3   15     -0.76      0.00
  -10    3   15     -1.07      0.00
   -9    3   15     -1.53      0.00
   -8    3   15      1.09      0.00
   -7    3   15      0.58      0.00
   -6    3   15     -0.29      0.00
   -5    3   15      0.10      0.00
   -4    3   15     -1.49      0.00
   -3    3   15      0.15      0.00
   -2    3   15     -2.69      0.00
   -1    3   15     -0.33      0.00
    0    3   15      3.04      0.00
    1    3   15      2.42      0.00
    2    3   15     -0.16      0.00
    3    3   15     -2.45      0.00
    4    3   15     -0.89      0.00
    5    3   15      0.83      0.00
    6    3   15      0.45      0.00
    7    3   15      1.14      0.00
    8    3   15     -0.17      0.00
    9    3   15      1.58      0.00
  -12    4   15     -0.07      0.00
  -11    4   15      0.23      0.00
  -10    4   15     -1.11      0.00
   -9    4   15      0.20      0.00
   -8    4   15      0.31      0.00
   -7    4   15      0.34      0.00
   -6    4   15      1.13      0.00
   -5    4   15      0.88      0.00
   -4    4   15      1.25      0.00
   -3    4   15     -1.68      0.00
   -2    4   15     -0.42      0.00
   -1    4   15      3.00      0.00
    0    4   15      4.68      0.00
    1    4   15      2.85      0.00
    2    4   15     -0.48      0.00
    3    4   15     -1.73      0.00
    4    4   15     -0.50      0.00
    5    4   15     -1.68      0.00
    6    4   15     -0.77      0.00
    7    4   15     -0.77      0.00
    8    4   15      0.71      0.00
    9    4   15     -1.09      0.00
  -12    5   15     -0.67      0.00
  -11    5   15     -0.57      0.00
  -10    5   15      0.48      0.00
   -9    5   15     -0.05      0.00
   -8    5   15      0.00      0.00
   -7    5   15      0.13      0.00
   -6    5   15      0.78      0.00
   -5    5   15      0.59      0.00
   -4    5   15     -0.78      0.00
   -3    5   15     -1.87      0.00
   -2    5   15     -2.13      0.00
   -1    5   15      2.09      0.00
    0    5   15      5.24      0.00
    1    5   15      1.39      0.00
    2    5   15      0.31      0.00
    3    5   15     -0.91      0.00
    4    5   15      0.82      0.00
    5    5   15     -0.74      0.00
    6    5   15     -2.19      0.00
    7    5   15     -0.95      0.00
    8    5   15     -0.48      0.00
    9    5   15      1.75      0.00
  -12    6   15      1.81      0.00
  -11    6   15     -0.87      0.00
  -10    6   15     -0.26      0.00
   -9    6   15     -0.65      0.00
   -8    6   15     -1.00      0.00
   -7    6   15     -0.12      0.00
   -6    6   15     -0.58      0.00
   -5    6   15     -1.23      0.00
   -4    6   15     -0.83      0.00
   -3    6   15     -1.06      0.00
   -2    6   15     -1.14      0.00
   -1    6   15      1.81      0.00
    0    6   15      6.42      0.00
    1    6   15      1.74      0.00
    2    6   15      0.47      0.00
    3    6   15      0.38      0.00
    4    6   15     -0.56      0.00
    5    6   15      0.04      0.00
    6    6   15      0.91      0.00
    7    6   15      0.09      0.00
    8    6   15     -0.69      0.00
    9    6   15     -2.07      0.00
  -12    7   15      0.13      0.00
  -11    7   15     -0.37      0.00
  -10    7   15     -1.59      0.00
   -9    7   15     -0.54      0.00
   -8    7   15      0.23      0.00
   -7    7   15      0.96      0.00
   -6    7   15      0.27      0.00
   -5    7   15     -0.10      0.00
   -4    7   15      0.19      0.00
   -3    7   15     -0.09      0.00
   -2    7   15     -0.31      0.00
   -1    7   15      2.39      0.00
    0    7   15      4.73      0.00
    1    7   15      1.04      0.00
    2    7   15     -0.44      0.00
    3    7   15      0.90      0.00
    4    7   15      0.85      0.00
    5    7   15      0.50      0.00
    6    7   15     -0.02      0.00
    7    7   15      0.57      0.00
    8    7   15     -2.21      0.00
    9    7   15      0.74      0.00
  -11    8   15     -0.20      0.00
  -10    8   15      1.20      0.00
   -9    8   15     -0.65      0.00
   -8    8   15      0.29      0.00
   -7    8   15      0.87      0.00
   -6    8   15     -0.58      0.00
   -5    8   15     -0.33      0.00
   -4    8   15      0.34      0.00
   -3    8   15      0.92      0.00
   -2    8   15      0.73      0.00
   -1    8   15      0.48      0.00
    0    8   15      2.51      0.00
    1    8   15      1.25      0.00
    2    8   15     -0.64      0.00
    3    8   15      0.75      0.00
    4    8   15      0.65      0.00
    5    8   15     -0.02      0.00
    6    8   15      0.09      0.00
    7    8   15     -0.83      0.00
    8    8   15     -1.75      0.00
  -11    9   15     -1.91      0.00
  -10    9   15      1.05      0.00
   -9    9   15      0.35      0.00
   -8    9   15     -0.11      0.00
   -7    9   15     -1.61      0.00
   -6    9   15      0.72      0.00
   -5    9   15     -0.74      0.00
   -4    9   15     -1.71      0.00
   -3    9   15      0.32      0.00
   -2    9   15     -0.09      0.00
   -1    9   15      1.01      0.00
    0    9   15      1.83      0.00
    1    9   15     -1.38      0.00
    2    9   15     -0.86      0.00
    3    9   15     -0.20      0.00
    4    9   15     -0.04      0.00
    5    9   15     -0.22      0.00
    6    9   15     -0.22      0.00
    7    9   15      1.69      0.00
    8    9   15     -1.31      0.00
  -11   10   15      0.21      0.00
  -10   10   15     -1.22      0.00
   -9   10   15     -0.70      0.00
   -8   10   15      0.11      0.00
   -7   10   15      0.90      0.00
   -6   10   15      0.23      0.00
   -5   10   15     -0.50      0.00
   -4   10   15      0.15      0.00
   -3   10   15      0.84      0.00
   -2   10   15      0.85      0.00
   -1   10   15     -0.13      0.00
    0   10   15      0.95      0.00
    1   10   15      0.29      0.00
    2   10   15      0.50      0.00
    3   10   15      0.18      0.00
    4   10   15      0.10      0.00
    5   10   15     -1.58      0.00
    6   10   15     -0.59      0.00
    7   10   15     -0.50      0.00
    8   10   15     -0.55      0.00
  -10   11   15     -1.23      0.00
   -9   11   15     -0.07      0.00
   -8   11   15      0.88      0.00
   -7   11   15      0.45      0.00
   -6   11   15      0.50      0.00
   -5   11   15     -0.68      0.00
   -4   11   15      0.10      0.00
   -3   11   15     -0.27      0.00
   -2   11   15      1.64      0.00
   -1   11   15      0.82      0.00
    0   11   15     -0.20      0.00
    1   11   15     -1.10      0.00
    2   11   15      2.15      0.00
    3   11   15     -0.04      0.00
    4   11   15     -0.78      0.00
    5   11   15     -0.13      0.00
    6   11   15     -1.89      0.00
    7   11   15      0.90      0.00
  -10   12   15      0.10      0.00
   -9   12   15      0.93      0.00
   -8   12   15      0.38      0.00
   -7   12   15     -0.31      0.00
   -6   12   15     -0.20      0.00
   -5   12   15     -0.42      0.00
   -4   12   15     -0.72      0.00
   -3   12   15      0.91      0.00
   -2   12   15     -0.10      0.00
   -1   12   15      0.47      0.00
    0   12   15     -0.36      0.00
    1   12   15     -0.02      0.00
    2   12   15     -0.42      0.00
    3   12   15      2.23      0.00
    4   12   15     -0.98      0.00
    5   12   15     -1.46      0.00
    6   12   15     -0.79      0.00
    7   12   15     -0.44      0.00
   -9   13   15      1.01      0.00
   -8   13   15      0.99      0.00
   -7   13   15     -0.24      0.00
   -6   13   15      0.00      0.00
   -5   13   15     -0.33      0.00
   -4   13   15      0.24      0.00
   -3   13   15     -0.15      0.00
   -2   13   15      0.74      0.00
   -1   13   15      1.13      0.00
    0   13   15      0.05      0.00
    1   13   15     -1.18      0.00
    2   13   15      0.16      0.00
    3   13   15     -0.81      0.00
    4   13   15     -0.34      0.00
    5   13   15     -0.56      0.00
    6   13   15      0.56      0.00
   -9   14   15      0.06      0.00
   -8   14   15     -0.47      0.00
   -7   14   15      0.24      0.00
   -6   14   15      1.23      0.00
   -5   14   15     -0.87      0.00
   -4   14   15      1.51      0.00
   -3   14   15      1.45      0.00
   -2   14   15      0.86      0.00
   -1   14   15      1.12      0.00
    0   14   15     -0.39      0.00
    1   14   15      0.07      0.00
    2   14   15     -0.94      0.00
    3   14   15     -0.54      0.00
    4   14   15     -0.76      0.00
    5   14   15      1.78      0.00
    6   14   15      0.11      0.00
   -8   15   15      0.96      0.00
   -7   15   15     -0.57      0.00
   -6   15   15     -0.59      0.00
   -5   15   15      0.34      0.00
   -4   15   15      0.29      0.00
   -3   15   15     -0.48      0.00
   -2   15   15      0.83      0.00
   -1   15   15     -0.23      0.00
    0   15   15      0.39      0.00
    1   15   15     -0.15      0.00
    2   15   15     -0.24      0.00
    3   15   15     -0.78      0.00
    4   15   15     -0.31      0.00
    5   15   15     -1.24      0.00
   -7   16   15     -0.43      0.00
   -6   16   15     -0.91      0.00
   -5   16   15     -1.35      0.00
   -4   16   15      0.12      0.00
   -3   16   15      0.07      0.00
   -2   16   15      0.22      0.00
   -1   16   15      0.30      0.00
    0   16   15      0.17      0.00
    1   16   15      0.00      0.00
    2   16   15     -1.38      0.00
    3   16   15     -0.15      0.00
    4   16   15     -0.42      0.00
    5   16   15     -1.58      0.00
   -6   17   15     -0.68      0.00
   -5   17   15      0.28      0.00
   -4   17   15     -0.56      0.00
   -3   17   15      0.84      0.00
   -2   17   15      0.11      0.00
   -1   17   15      0.05      0.00
    0   17   15     -0.21      0.00
    1   17   15     -0.84      0.00
   -4   18   15      0.65      0.00
   -3   18   15     -0.63      0.00
   -2   18   15      1.80      0.00
   -1   18   15     -0.53      0.00
  -12    0   16      1.61      0.00
  -10    0   16     -0.78      0.00
   -8    0   16     -0.55      0.00
   -6    0   16     -1.71      0.00
   -4    0   16      1.36      0.00
   -2    0   16     -2.52      0.00
    0    0   16      3.21      0.00
    2    0   16      2.91      0.00
    4    0   16      0.06      0.00
    6    0   16     -3.34      0.00
    8    0   16      1.50      0.00
  -12    1   16      0.07      0.00
  -11    1   16      1.56      0.00
  -10    1   16      0.16      0.00
   -9    1   16      0.15      0.00
   -8    1   16      0.41      0.00
   -7    1   16     -0.86      0.00
   -6    1   16      0.07      0.00
   -5    1   16     -0.61      0.00
   -4    1   16     -2.40      0.00
   -3    1   16     -2.10      0.00
   -2    1   16      0.25      0.00
   -1    1   16     -1.23      0.00
    0    1   16      1.90      0.00
    1    1   16     -2.23      0.00
    2    1   16     -0.09      0.00
    3    1   16      0.24      0.00
    4    1   16     -0.45      0.00
    5    1   16      0.40      0.00
    6    1   16      1.61      0.00
    7    1   16     -1.57      0.00
    8    1   16      4.67      0.00
    9    1   16     -0.96      0.00
  -12    2   16     -1.00      0.00
  -11    2   16     -0.92      0.00
  -10    2   16      1.85      0.00
   -9    2   16      0.05      0.00
   -8    2   16      0.55      0.00
   -7    2   16     -0.18      0.00
   -6    2   16     -0.32      0.00
   -5    2   16     -0.40      0.00
   -4    2   16     -1.28      0.00
   -3    2   16      0.83      0.00
   -2    2   16     -0.49      0.00
   -1    2   16      2.05      0.00
    0    2   16      3.51      0.00
    1    2   16      2.27      0.00
    2    2   16     -0.16      0.00
    3    2   16      1.29      0.00
    4    2   16     -0.02      0.00
    5    2   16      1.21      0.00
    6    2   16     -0.26      0.00
    7    2   16     -0.64      0.00
    8    2   16     -1.93      0.00
    9    2   16      0.80      0.00
  -12    3   16      0.23      0.00
  -11    3   16     -0.97      0.00
  -10    3   16      0.25      0.00
   -9    3   16      0.51      0.00
   -8    3   16      0.18      0.00
   -7    3   16      0.68      0.00
   -6    3   16      0.67      0.00
   -5    3   16     -0.30      0.00
   -4    3   16     -0.23      0.00
   -3    3   16      0.70      0.00
   -2    3   16     -0.03      0.00
   -1    3   16      0.08      0.00
    0    3   16      3.67      0.00
    1    3   16      2.06      0.00
    2    3   16     -0.27      0.00
    3    3   16      0.45      0.00
    4    3   16     -0.73      0.00
    5    3   16     -0.34      0.00
    6    3   16     -0.74      0.00
    7    3   16      0.37      0.00
    8    3   16     -0.58      0.00
    9    3   16     -1.55      0.00
  -12    4   16     -0.19      0.00
  -11    4   16      1.29      0.00
  -10    4   16      0.25      0.00
   -9    4   16      0.07      0.00
   -8    4   16     -0.51      0.00
   -7    4   16      0.40      0.00
   -6    4   16      0.31      0.00
   -5    4   16     -0.91      0.00
   -4    4   16     -1.40      0.00
   -3    4   16     -0.48      0.00
   -2    4   16      0.59      0.00
   -1    4   16      0.66      0.00
    0    4   16      2.82      0.00
    1    4   16      1.06      0.00
    2    4   16      1.34      0.00
    3    4   16      0.68      0.00
    4    4   16     -0.21      0.00
    5    4   16     -1.02      0.00
    6    4   16      0.31      0.00
    7    4   16      1.39      0.00
    8    4   16     -0.44      0.00
    9    4   16      2.47      0.00
  -12    5   16     -0.66      0.00
  -11    5   16     -0.92      0.00
  -10    5   16      1.81      0.00
   -9    5   16     -1.18      0.00
   -8    5   16      0.12      0.00
   -7    5   16     -0.52      0.00
   -6    5   16     -1.41      0.00
   -5    5   16     -0.55      0.00
   -4    5   16      0.86      0.00
   -3    5   16      0.78      0.00
   -2    5   16     -0.69      0.00
   -1    5   16      2.96      0.00
    0    5   16      5.23      0.00
    1    5   16      2.80      0.00
    2    5   16      1.87      0.00
    3    5   16     -0.68      0.00
    4    5   16      0.77      0.00
    5    5   16     -0.57      0.00
    6    5   16      1.36      0.00
    7    5   16      0.09      0.00
    8    5   16      0.36      0.00
    9    5   16      0.76      0.00
  -12    6   16      0.74      0.00
  -11    6   16     -1.37      0.00
  -10    6   16      0.11      0.00
   -9    6   16      0.71      0.00
   -8    6   16      0.21      0.00
   -7    6   16      0.78      0.00
   -6    6   16      0.23      0.00
   -5    6   16      0.30      0.00
   -4    6   16      0.96      0.00
   -3    6   16     -0.28      0.00
   -2    6   16     -0.38      0.00
   -1    6   16      1.34      0.00
    0    6   16      4.69      0.00
    1    6   16      1.54      0.00
    2    6   16      1.41      0.00
    3    6   16      0.12      0.00
    4    6   16      0.12      0.00
    5    6   16      1.35      0.00
    6    6   16     -0.57      0.00
    7    6   16     -0.75      0.00
    8    6   16     -2.01      0.00
    9    6   16      4.15      0.00
  -11    7   16      2.48      0.00
  -10    7   16     -0.43      0.00
   -9    7   16     -0.38      0.00
   -8    7   16      0.35      0.00
   -7    7   16     -0.60      0.00
   -6    7   16     -0.55      0.00
   -5    7   16      0.84      0.00
   -4    7   16      0.48      0.00
   -3    7   16      0.37      0.00
   -2    7   16     -1.01      0.00
   -1    7   16      0.90      0.00
    0    7   16      4.82      0.00
    1    7   16      2.55      0.00
    2    7   16      0.70      0.00
    3    7   16      0.37      0.00
    4    7   16      0.15      0.00
    5    7   16     -1.71      0.00
    6    7   16      1.30      0.00
    7    7   16     -0.65      0.00
    8    7   16      0.35      0.00
  -11    8   16     -0.36      0.00
  -10    8   16      1.48      0.00
   -9    8   16     -2.12      0.00
   -8    8   16     -1.52      0.00
   -7    8   16     -0.29      0.00
   -6    8   16      1.15      0.00
   -5    8   16     -0.73      0.00
   -4    8   16      0.30      0.00
   -3    8   16      0.54      0.00
   -2    8   16     -1.18      0.00
   -1    8   16      1.76      0.00
    0    8   16      2.84      0.00
    1    8   16      0.98      0.00
    2    8   16      0.29      0.00
    3    8   16      0.41      0.00
    4    8   16     -0.34      0.00
    5    8   16      1.45      0.00
    6    8   16      0.17      0.00
    7    8   16      2.80      0.00
    8    8   16     -0.07      0.00
  -11    9   16     -0.19      0.00
  -10    9   16     -1.06      0.00
   -9    9   16     -0.03      0.00
   -8    9   16     -0.09      0.00
   -7    9   16     -0.03      0.00
   -6    9   16      1.97      0.00
   -5    9   16      0.47      0.00
   -4    9   16      0.87      0.00
   -3    9   16      0.96      0.00
   -2    9   16      0.21      0.00
   -1    9   16     -0.15      0.00
    0    9   16      2.61      0.00
    1    9   16      1.58      0.00
    2    9   16     -0.46      0.00
    3    9   16     -0.52      0.00
    4    9   16     -0.90      0.00
    5    9   16     -0.68      0.00
    6    9   16      0.59      0.00
    7    9   16     -0.02      0.00
    8    9   16     -0.55      0.00
  -10   10   16     -1.40      0.00
   -9   10   16      0.42      0.00
   -8   10   16      0.10      0.00
   -7   10   16      0.58      0.00
   -6   10   16      0.43      0.00
   -5   10   16      0.45      0.00
   -4   10   16      0.51      0.00
   -3   10   16     -0.30      0.00
   -2   10   16      0.43      0.00
   -1   10   16      0.07      0.00
    0   10   16      2.17      0.00
    1   10   16      0.65      0.00
    2   10   16      0.28      0.00
    3   10   16     -1.92      0.00
    4   10   16     -1.36      0.00
    5   10   16     -0.29      0.00
    6   10   16      0.58      0.00
    7   10   16      3.66      0.00
  -10   11   16     -0.45      0.00
   -9   11   16     -0.72      0.00
   -8   11   16     -1.05      0.00
   -7   11   16     -0.31      0.00
   -6   11   16      0.38      0.00
   -5   11   16      0.03      0.00
   -4   11   16      0.10      0.00
   -3   11   16      0.12      0.00
   -2   11   16      0.53      0.00
   -1   11   16     -0.22      0.00
    0   11   16      1.03      0.00
    1   11   16     -0.82      0.00
    2   11   16      0.22      0.00
    3   11   16     -0.72      0.00
    4   11   16     -0.99      0.00
    5   11   16      0.12      0.00
    6   11   16      0.53      0.00
    7   11   16     -0.70      0.00
   -9   12   16     -0.04      0.00
   -8   12   16      0.15      0.00
   -7   12   16      0.12      0.00
   -6   12   16      0.26      0.00
   -5   12   16      0.26      0.00
   -4   12   16      0.15      0.00
   -3   12   16      0.08      0.00
   -2   12   16      0.06      0.00
   -1   12   16      1.84      0.00
    0   12   16     -0.34      0.00
    1   12   16     -0.74      0.00
    2   12   16     -0.25      0.00
    3   12   16      1.47      0.00
    4   12   16     -1.19      0.00
    5   12   16      1.12      0.00
    6   12   16      0.23      0.00
    7   12   16     -0.06      0.00
   -9   13   16     -0.26      0.00
   -8   13   16      0.89      0.00
   -7   13   16      0.48      0.00
   -6   13   16      0.24      0.00
   -5   13   16     -0.52      0.00
   -4   13   16     -0.02      0.00
   -3   13   16     -0.33      0.00
   -2   13   16      0.26      0.00
   -1   13   16     -0.42      0.00
    0   13   16     -0.34      0.00
    1   13   16     -0.42      0.00
    2   13   16      0.08      0.00
    3   13   16      0.85      0.00
    4   13   16      2.53      0.00
    5   13   16      1.30      0.00
    6   13   16     -1.91      0.00
   -8   14   16      0.52      0.00
   -7   14   16     -0.58      0.00
   -6   14   16     -0.20      0.00
   -5   14   16     -0.67      0.00
   -4   14   16     -0.92      0.00
   -3   14   16     -0.97      0.00
   -2   14   16     -0.34      0.00
   -1   14   16      0.16      0.00
    0   14   16     -0.81      0.00
    1   14   16     -0.78      0.00
    2   14   16     -1.60      0.00
    3   14   16     -0.02      0.00
    4   14   16      0.58      0.00
    5   14   16      0.84      0.00
    6   14   16     -0.38      0.00
   -7   15   16     -1.41      0.00
   -6   15   16      0.55      0.00
   -5   15   16     -0.15      0.00
   -4   15   16      0.21      0.00
   -3   15   16     -0.08      0.00
   -2   15   16      0.50      0.00
   -1   15   16      0.45      0.00
    0   15   16      0.41      0.00
    1   15   16     -0.72      0.00
    2   15   16      0.90      0.00
    3   15   16      0.98      0.00
    4   15   16      0.36      0.00
    5   15   16     -0.06      0.00
   -6   16   16     -0.37      0.00
   -5   16   16      0.88      0.00
   -4   16   16      1.11      0.00
   -3   16   16      0.22      0.00
   -2   16   16     -0.20      0.00
   -1   16   16      0.13      0.00
    0   16   16      0.07      0.00
    1   16   16      0.88      0.00
    2   16   16      0.04      0.00
   -5   17   16     -0.67      0.00
   -4   17   16     -0.88      0.00
   -3   17   16      0.32      0.00
   -2   17   16      0.61      0.00
   -1   17   16      0.05      0.00
    0   17   16      1.91      0.00
   -3   18   16     -1.17      0.00
   -2   18   16     -0.48      0.00
   -1   18   16     -1.05      0.00
  -11    0   17      0.00      0.00
   -9    0   17      0.08      0.00
   -7    0   17      0.12      0.00
   -5    0   17     -1.27      0.00
   -3    0   17     -1.22      0.00
   -1    0   17     -2.27      0.00
    1    0   17     -1.06      0.00
    3    0   17     -1.32      0.00
    5    0   17      0.11      0.00
    7    0   17      4.33      0.00
    9    0   17     -2.24      0.00
  -12    1   17     -1.22      0.00
  -11    1   17      1.83      0.00
  -10    1   17      1.15      0.00
   -9    1   17     -0.78      0.00
   -8    1   17      0.80      0.00
   -7    1   17     -0.64      0.00
   -6    1   17     -0.24      0.00
   -5    1   17     -0.11      0.00
   -4    1   17     -0.21      0.00
   -3    1   17      1.92      0.00
   -2    1   17     -1.47      0.00
   -1    1   17      0.93      0.00
    0    1   17      3.46      0.00
    1    1   17     -0.40      0.00
    2    1   17      1.47      0.00
    3    1   17     -2.17      0.00
    4    1   17     -1.63      0.00
    5    1   17     -0.60      0.00
    6    1   17     -1.12      0.00
    7    1   17     -5.54      0.00
    8    1   17      1.08      0.00
    9    1   17     -0.60      0.00
  -12    2   17     -1.65      0.00
  -11    2   17     -0.23      0.00
  -10    2   17      0.78      0.00
   -9    2   17     -0.20      0.00
   -8    2   17      0.35      0.00
   -7    2   17      1.08      0.00
   -6    2   17     -0.52      0.00
   -5    2   17     -0.31      0.00
   -4    2   17      0.65      0.00
   -3    2   17     -1.15      0.00
   -2    2   17     -2.72      0.00
   -1    2   17     -0.76      0.00
    0    2   17      2.74      0.00
    1    2   17      0.24      0.00
    2    2   17     -2.69      0.00
    3    2   17     -0.64      0.00
    4    2   17     -3.06      0.00
    5    2   17     -0.41      0.00
    6    2   17      0.52      0.00
    7    2   17     -0.31      0.00
    8    2   17     -0.01      0.00
    9    2   17      2.27      0.00
  -12    3   17     -0.21      0.00
  -11    3   17     -0.40      0.00
  -10    3   17     -0.47      0.00
   -9    3   17     -0.47      0.00
   -8    3   17      0.74      0.00
   -7    3   17     -0.08      0.00
   -6    3   17      0.56      0.00
   -5    3   17      0.46      0.00
   -4    3   17     -1.20      0.00
   -3    3   17     -0.04      0.00
   -2    3   17     -1.61      0.00
   -1    3   17      0.32      0.00
    0    3   17      2.50      0.00
    1    3   17      1.02      0.00
    2    3   17     -0.20      0.00
    3    3   17     -2.69      0.00
    4    3   17     -0.98      0.00
    5    3   17      0.90      0.00
    6    3   17      1.11      0.00
    7    3   17      1.01      0.00
    8    3   17      0.47      0.00
    9    3   17      2.03      0.00
  -12    4   17     -0.24      0.00
  -11    4   17      0.58      0.00
  -10    4   17      0.08      0.00
   -9    4   17     -0.10      0.00
   -8    4   17      1.01      0.00
   -7    4   17      0.04      0.00
   -6    4   17      0.80      0.00
   -5    4   17      0.88      0.00
   -4    4   17      0.89      0.00
   -3    4   17     -0.53      0.00
   -2    4   17      0.00      0.00
   -1    4   17      1.54      0.00
    0    4   17      4.01      0.00
    1    4   17      1.55      0.00
    2    4   17     -1.13      0.00
    3    4   17     -0.96      0.00
    4    4   17     -1.20      0.00
    5    4   17     -0.46      0.00
    6    4   17      0.24      0.00
    7    4   17     -0.20      0.00
    8    4   17      0.26      0.00
    9    4   17     -0.13      0.00
  -12    5   17     -0.31      0.00
  -11    5   17     -1.04      0.00
  -10    5   17      0.64      0.00
   -9    5   17      1.11      0.00
   -8    5   17     -0.45      0.00
   -7    5   17      0.94      0.00
   -6    5   17      0.62      0.00
   -5    5   17      0.24      0.00
   -4    5   17     -1.01      0.00
   -3    5   17     -1.66      0.00
   -2    5   17     -0.05      0.00
   -1    5   17      1.76      0.00
    0    5   17      2.50      0.00
    1    5   17      0.22      0.00
    2    5   17     -0.92      0.00
    3    5   17     -0.35      0.00
    4    5   17      2.27      0.00
    5    5   17     -0.53      0.00
    6    5   17     -1.84      0.00
    7    5   17     -1.67      0.00
    8    5   17      0.56      0.00
  -11    6   17     -0.69      0.00
  -10    6   17      0.80      0.00
   -9    6   17      0.23      0.00
   -8    6   17      0.14      0.00
   -7    6   17     -1.06      0.00
   -6    6   17     -1.05      0.00
   -5    6   17     -1.02      0.00
   -4    6   17     -0.90      0.00
   -3    6   17     -0.87      0.00
   -2    6   17     -0.23      0.00
   -1    6   17      1.48      0.00
    0    6   17      4.04      0.00
    1    6   17      0.91      0.00
    2    6   17      0.01      0.00
    3    6   17      0.00      0.00
    4    6   17      0.74      0.00
    5    6   17     -1.21      0.00
    6    6   17      0.11      0.00
    7    6   17     -0.30      0.00
    8    6   17     -0.92      0.00
  -11    7   17      0.69      0.00
  -10    7   17     -0.53      0.00
   -9    7   17     -0.54      0.00
   -8    7   17     -0.45      0.00
   -7    7   17      0.86      0.00
   -6    7   17     -0.12      0.00
   -5    7   17     -1.07      0.00
   -4    7   17     -0.10      0.00
   -3    7   17      0.40      0.00
   -2    7   17      0.25      0.00
   -1    7   17      1.93      0.00
    0    7   17      2.66      0.00
    1    7   17      0.38      0.00
    2    7   17      0.58      0.00
    3    7   17      1.57      0.00
    4    7   17      0.51      0.00
    5    7   17      0.14      0.00
    6    7   17     -0.20      0.00
    7    7   17      0.13      0.00
    8    7   17     -2.85      0.00
  -11    8   17      0.12      0.00
  -10    8   17      0.81      0.00
   -9    8   17     -0.87      0.00
   -8    8   17     -0.55      0.00
   -7    8   17      0.34      0.00
   -6    8   17     -0.49      0.00
   -5    8   17     -0.99      0.00
   -4    8   17      0.24      0.00
   -3    8   17      0.62      0.00
   -2    8   17      0.27      0.00
   -1    8   17      0.72      0.00
    0    8   17      3.30      0.00
    1    8   17      1.28      0.00
    2    8   17      0.48      0.00
    3    8   17      1.89      0.00
    4    8   17      0.26      0.00
    5    8   17     -0.85      0.00
    6    8   17     -1.71      0.00
    7    8   17     -1.77      0.00
    8    8   17     -2.26      0.00
  -11    9   17     -1.05      0.00
  -10    9   17      1.39      0.00
   -9    9   17      0.52      0.00
   -8    9   17      0.35      0.00
   -7    9   17     -1.78      0.00
   -6    9   17      0.69      0.00
   -5    9   17     -1.10      0.00
   -4    9   17     -1.47      0.00
   -3    9   17      0.17      0.00
   -2    9   17     -0.07      0.00
   -1    9   17      1.01      0.00
    0    9   17      3.43      0.00
    1    9   17     -0.16      0.00
    2    9   17      0.28      0.00
    3    9   17     -0.22      0.00
    4    9   17     -0.29      0.00
    5    9   17      0.62      0.00
    6    9   17      0.06      0.00
    7    9   17      1.72      0.00
  -10   10   17     -1.29      0.00
   -9   10   17      0.27      0.00
   -8   10   17     -0.99      0.00
   -7   10   17      0.57      0.00
   -6   10   17     -0.12      0.00
   -5   10   17     -0.19      0.00
   -4   10   17     -0.39      0.00
   -3   10   17      1.10      0.00
   -2   10   17      0.66      0.00
   -1   10   17     -0.07      0.00
    0   10   17      1.56      0.00
    1   10   17      0.57      0.00
    2   10   17      1.28      0.00
    3   10   17     -0.64      0.00
    4   10   17     -0.66      0.00
    5   10   17     -1.42      0.00
    6   10   17     -1.47      0.00
    7   10   17     -0.85      0.00
  -10   11   17     -0.94      0.00
   -9   11   17     -0.14      0.00
   -8   11   17      0.26      0.00
   -7   11   17      0.16      0.00
   -6   11   17      0.61      0.00
   -5   11   17     -0.26      0.00
   -4   11   17     -0.15      0.00
   -3   11   17     -0.56      0.00
   -2   11   17      1.24      0.00
   -1   11   17      0.55      0.00
    0   11   17      0.45      0.00
    1   11   17      0.64      0.00
    2   11   17      1.57      0.00
    3   11   17     -0.07      0.00
    4   11   17     -1.98      0.00
    5   11   17     -1.04      0.00
    6   11   17     -1.63      0.00
    7   11   17      0.96      0.00
   -9   12   17      0.47      0.00
   -8   12   17      0.53      0.00
   -7   12   17     -0.20      0.00
   -6   12   17     -0.03      0.00
   -5   12   17     -1.00      0.00
   -4   12   17     -0.08      0.00
   -3   12   17      0.93      0.00
   -2   12   17     -0.96      0.00
   -1   12   17      0.76      0.00
    0   12   17      1.01      0.00
    1   12   17      1.11      0.00
    2   12   17     -0.60      0.00
    3   12   17      0.46      0.00
    4   12   17     -2.28      0.00
    5   12   17     -1.85      0.00
    6   12   17     -0.71      0.00
   -9   13   17     -0.87      0.00
   -8   13   17      0.75      0.00
   -7   13   17     -0.26      0.00
   -6   13   17     -1.07      0.00
   -5   13   17      0.16      0.00
   -4   13   17      0.32      0.00
   -3   13   17      0.51      0.00
   -2   13   17      1.66      0.00
   -1   13   17      0.66      0.00
    0   13   17      0.66      0.00
    1   13   17     -1.85      0.00
    2   13   17     -1.04      0.00
    3   13   17      0.36      0.00
    4   13   17     -0.66      0.00
    5   13   17     -0.78      0.00
    6   13   17     -0.06      0.00
   -8   14   17     -0.68      0.00
   -7   14   17     -0.53      0.00
   -6   14   17      2.04      0.00
   -5   14   17     -0.85      0.00
   -4   14   17      1.58      0.00
   -3   14   17      0.84      0.00
   -2   14   17      1.28      0.00
   -1   14   17      2.07      0.00
    0   14   17     -0.58      0.00
    1   14   17      0.01      0.00
    2   14   17     -1.11      0.00
    3   14   17     -0.47      0.00
    4   14   17     -0.85      0.00
    5   14   17      1.69      0.00
   -7   15   17     -0.87      0.00
   -6   15   17     -0.14      0.00
   -5   15   17      1.37      0.00
   -4   15   17      0.12      0.00
   -3   15   17     -0.91      0.00
   -2   15   17      0.82      0.00
   -1   15   17      0.08      0.00
    0   15   17      0.22      0.00
    1   15   17     -0.98      0.00
    2   15   17      0.08      0.00
    3   15   17     -2.16      0.00
    5   15   17     -0.18      0.00
   -6   16   17     -0.43      0.00
   -5   16   17     -0.61      0.00
   -4   16   17      0.52      0.00
   -3   16   17     -0.01      0.00
   -2   16   17      0.25      0.00
   -1   16   17      0.09      0.00
    0   16   17      0.29      0.00
    1   16   17     -0.75      0.00
    2   16   17     -1.92      0.00
   -5   17   17      1.14      0.00
   -4   17   17      0.37      0.00
   -3   17   17      1.08      0.00
   -2   17   17      0.11      0.00
   -1   17   17     -0.48      0.00
    0   17   17      0.58      0.00
   -2   18   17      1.10      0.00
   -1   18   17      0.47      0.00
  -12    0   18      1.50      0.00
  -10    0   18      0.01      0.00
   -8    0   18     -1.39      0.00
   -6    0   18     -0.24      0.00
   -4    0   18     -0.20      0.00
   -2    0   18     -0.12      0.00
    0    0   18     -0.60      0.00
    2    0   18      1.14      0.00
    4    0   18      2.78      0.00
    6    0   18     -4.30      0.00
    8    0   18      2.28      0.00
  -12    1   18      0.41      0.00
  -11    1   18      1.57      0.00
  -10    1   18     -0.19      0.00
   -9    1   18     -0.41      0.00
   -8    1   18      0.08      0.00
   -7    1   18     -1.23      0.00
   -6    1   18     -0.61      0.00
   -5    1   18     -0.23      0.00
   -4    1   18      0.22      0.00
   -3    1   18     -1.53      0.00
   -2    1   18     -1.97      0.00
   -1    1   18     -1.25      0.00
    0    1   18     -0.53      0.00
    1    1   18     -2.44      0.00
    2    1   18     -0.03      0.00
    3    1   18      1.20      0.00
    4    1   18      0.59      0.00
    5    1   18      1.49      0.00
    6    1   18      0.92      0.00
    7    1   18     -0.82      0.00
    8    1   18      8.29      0.00
    9    1   18      0.26      0.00
  -12    2   18     -1.40      0.00
  -11    2   18     -0.15      0.00
  -10    2   18      1.07      0.00
   -9    2   18     -0.52      0.00
   -8    2   18      0.24      0.00
   -7    2   18      0.03      0.00
   -6    2   18     -0.18      0.00
   -5    2   18     -0.12      0.00
   -4    2   18     -1.50      0.00
   -3    2   18      1.78      0.00
   -2    2   18     -0.58      0.00
   -1    2   18     -0.34      0.00
    0    2   18      1.69      0.00
    1    2   18      1.56      0.00
    2    2   18      0.16      0.00
    3    2   18      1.29      0.00
    4    2   18      0.16      0.00
    5    2   18      1.37      0.00
    6    2   18      0.98      0.00
    7    2   18     -0.07      0.00
    8    2   18     -1.88      0.00
  -12    3   18      0.04      0.00
  -11    3   18     -1.38      0.00
  -10    3   18      0.06      0.00
   -9    3   18     -0.05      0.00
   -8    3   18     -0.12      0.00
   -7    3   18     -0.47      0.00
   -6    3   18      1.04      0.00
   -5    3   18     -0.73      0.00
   -4    3   18     -0.26      0.00
   -3    3   18     -0.03      0.00
   -2    3   18     -1.12      0.00
   -1    3   18     -0.96      0.00
    0    3   18      2.05      0.00
    1    3   18      1.01      0.00
    2    3   18      0.75      0.00
    3    3   18     -0.47      0.00
    4    3   18     -1.23      0.00
    5    3   18     -0.27      0.00
    6    3   18     -1.26      0.00
    7    3   18      0.52      0.00
    8    3   18      0.47      0.00
  -12    4   18     -0.32      0.00
  -11    4   18      0.49      0.00
  -10    4   18     -0.19      0.00
   -9    4   18     -0.37      0.00
   -8    4   18     -0.63      0.00
   -7    4   18      0.63      0.00
   -6    4   18     -0.38      0.00
   -5    4   18     -0.59      0.00
   -4    4   18     -0.59      0.00
   -3    4   18      0.26      0.00
   -2    4   18     -0.83      0.00
   -1    4   18     -1.77      0.00
    0    4   18      2.05      0.00
    1    4   18      0.33      0.00
    2    4   18      0.11      0.00
    3    4   18      0.95      0.00
    4    4   18     -1.15      0.00
    5    4   18     -0.40      0.00
    6    4   18     -0.32      0.00
    7    4   18      1.44      0.00
    8    4   18     -1.17      0.00
  -11    5   18     -0.88      0.00
  -10    5   18      1.57      0.00
   -9    5   18     -1.17      0.00
   -8    5   18     -0.68      0.00
   -7    5   18     -0.30      0.00
   -6    5   18     -0.94      0.00
   -5    5   18      0.07      0.00
   -4    5   18      0.39      0.00
   -3    5   18      0.08      0.00
   -2    5   18     -0.30      0.00
   -1    5   18      1.36      0.00
    0    5   18      3.86      0.00
    1    5   18      2.58      0.00
    2    5   18      1.14      0.00
    3    5   18     -0.81      0.00
    4    5   18      0.07      0.00
    5    5   18     -2.67      0.00
    6    5   18      2.17      0.00
    7    5   18      0.67      0.00
    8    5   18      1.29      0.00
  -11    6   18     -1.42      0.00
  -10    6   18     -0.05      0.00
   -9    6   18      0.13      0.00
   -8    6   18      0.92      0.00
   -7    6   18      0.13      0.00
   -6    6   18      0.33      0.00
   -5    6   18      0.60      0.00
   -4    6   18      0.45      0.00
   -3    6   18     -0.57      0.00
   -2    6   18     -1.02      0.00
   -1    6   18      1.11      0.00
    0    6   18      3.41      0.00
    1    6   18      1.38      0.00
    2    6   18      0.83      0.00
    3    6   18     -0.35      0.00
    4    6   18      0.55      0.00
    5    6   18      1.53      0.00
    6    6   18      0.47      0.00
    7    6   18     -0.36      0.00
    8    6   18     -2.00      0.00
  -11    7   18      1.44      0.00
  -10    7   18     -0.86      0.00
   -9    7   18      0.59      0.00
   -8    7   18      0.29      0.00
   -7    7   18      1.04      0.00
   -6    7   18     -0.15      0.00
   -5    7   18      0.25      0.00
   -4    7   18      0.58      0.00
   -3    7   18     -0.40      0.00
   -2    7   18     -1.04      0.00
   -1    7   18      1.04      0.00
    0    7   18      2.81      0.00
    1    7   18      2.09      0.00
    2    7   18      0.30      0.00
    3    7   18      0.13      0.00
    4    7   18      0.22      0.00
    5    7   18     -0.96      0.00
    6    7   18      2.10      0.00
    7    7   18     -0.52      0.00
    8    7   18      0.83      0.00
  -11    8   18     -0.18      0.00
  -10    8   18      2.24      0.00
   -9    8   18     -0.74      0.00
   -8    8   18     -0.20      0.00
   -7    8   18     -0.42      0.00
   -6    8   18      1.61      0.00
   -5    8   18     -1.10      0.00
   -4    8   18     -0.46      0.00
   -3    8   18     -0.05      0.00
   -2    8   18     -0.51      0.00
   -1    8   18      1.65      0.00
    0    8   18      2.05      0.00
    1    8   18     -1.05      0.00
    2    8   18     -0.68      0.00
    3    8   18      0.37      0.00
    4    8   18      0.78      0.00
    5    8   18      2.23      0.00
    6    8   18      0.06      0.00
    7    8   18      4.60      0.00
  -10    9   18     -0.24      0.00
   -9    9   18      0.44      0.00
   -8    9   18     -0.60      0.00
   -7    9   18     -0.07      0.00
   -6    9   18      0.98      0.00
   -5    9   18     -0.30      0.00
   -4    9   18      0.65      0.00
   -3    9   18      1.05      0.00
   -2    9   18     -0.14      0.00
   -1    9   18     -1.03      0.00
    0    9   18      1.34      0.00
    1    9   18     -0.45      0.00
    2    9   18     -1.56      0.00
    3    9   18     -0.83      0.00
    4    9   18      0.59      0.00
    5    9   18     -0.67      0.00
    6    9   18      1.19      0.00
    7    9   18     -0.89      0.00
  -10   10   18     -1.43      0.00
   -9   10   18      0.69      0.00
   -8   10   18     -0.45      0.00
   -7   10   18      1.21      0.00
   -6   10   18      0.18      0.00
   -5   10   18      0.64      0.00
   -4   10   18      0.28      0.00
   -3   10   18      0.18      0.00
   -2   10   18      0.94      0.00
   -1   10   18     -0.28      0.00
    0   10   18      1.54      0.00
    1   10   18     -0.07      0.00
    2   10   18     -0.06      0.00
    3   10   18     -0.40      0.00
    4   10   18     -1.63      0.00
    5   10   18      0.31      0.00
    6   10   18      0.34      0.00
    7   10   18      4.33      0.00
   -9   11   18     -0.27      0.00
   -8   11   18      0.04      0.00
   -7   11   18     -0.73      0.00
   -6   11   18      0.32      0.00
   -5   11   18     -0.07      0.00
   -4   11   18      0.04      0.00
   -3   11   18      0.58      0.00
   -2   11   18      0.70      0.00
   -1   11   18      0.59      0.00
    0   11   18      1.44      0.00
    1   11   18     -0.78      0.00
    2   11   18     -0.44      0.00
    3   11   18     -0.29      0.00
    4   11   18     -1.49      0.00
    5   11   18      0.37      0.00
    6   11   18      0.73      0.00
   -9   12   18      0.29      0.00
   -8   12   18      0.41      0.00
   -7   12   18     -0.23      0.00
   -6   12   18      0.14      0.00
   -5   12   18      1.01      0.00
   -4   12   18      0.36      0.00
   -3   12   18      0.52      0.00
   -2   12   18      0.40      0.00
   -1   12   18      1.17      0.00
    0   12   18     -0.56      0.00
    1   12   18     -0.99      0.00
    2   12   18      1.22      0.00
    3   12   18      1.75      0.00
    4   12   18     -1.75      0.00
    5   12   18      0.38      0.00
    6   12   18     -0.05      0.00
   -8   13   18      0.84      0.00
   -7   13   18      0.88      0.00
   -6   13   18      1.04      0.00
   -5   13   18     -0.73      0.00
   -4   13   18      0.09      0.00
   -3   13   18      0.26      0.00
   -2   13   18      0.51      0.00
   -1   13   18     -0.79      0.00
    0   13   18     -0.79      0.00
    1   13   18      0.56      0.00
    2   13   18      1.06      0.00
    3   13   18      1.93      0.00
    4   13   18      0.97      0.00
    5   13   18      0.95      0.00
    6   13   18     -2.17      0.00
   -8   14   18      0.28      0.00
   -7   14   18      0.04      0.00
   -6   14   18      0.01      0.00
   -5   14   18     -1.07      0.00
   -4   14   18     -1.32      0.00
   -3   14   18     -0.54      0.00
   -2   14   18      0.45      0.00
   -1   14   18     -0.46      0.00
    0   14   18      0.01      0.00
    1   14   18     -0.90      0.00
    2   14   18     -1.56      0.00
    3   14   18     -1.14      0.00
    5   14   18      1.15      0.00
   -7   15   18     -0.97      0.00
   -6   15   18      0.21      0.00
   -5   15   18     -0.43      0.00
   -4   15   18      0.39      0.00
   -3   15   18     -0.72      0.00
   -2   15   18      0.72      0.00
   -1   15   18      0.74      0.00
    0   15   18     -0.15      0.00
    1   15   18     -0.01      0.00
    2   15   18      0.64      0.00
   -6   16   18     -0.84      0.00
   -5   16   18      1.19      0.00
   -4   16   18      0.92      0.00
   -3   16   18      0.74      0.00
   -2   16   18     -0.62      0.00
   -1   16   18      0.17      0.00
    0   16   18      0.22      0.00
    1   16   18     -1.01      0.00
   -4   17   18     -0.29      0.00
   -3   17   18     -0.01      0.00
   -2   17   18      1.04      0.00
   -1   17   18     -0.15      0.00
    0   17   18      0.71      0.00
  -11    0   19     -0.53      0.00
   -9    0   19     -0.28      0.00
   -7    0   19      0.19      0.00
   -5    0   19      0.72      0.00
   -3    0   19     -3.67      0.00
   -1    0   19     -0.48      0.00
    1    0   19      0.85      0.00
    3    0   19     -0.12      0.00
    5    0   19     -1.84      0.00
    7    0   19      4.53      0.00
  -12    1   19     -0.06      0.00
  -11    1   19      1.75      0.00
  -10    1   19      0.75      0.00
   -9    1   19      0.22      0.00
   -8    1   19      0.74      0.00
   -7    1   19     -1.60      0.00
   -6    1   19     -0.20      0.00
   -5    1   19      0.56      0.00
   -4    1   19     -0.32      0.00
   -3    1   19      0.87      0.00
   -2    1   19     -1.74      0.00
   -1    1   19      2.89      0.00
    0    1   19      3.36      0.00
    1    1   19      0.29      0.00
    2    1   19      1.49      0.00
    3    1   19     -1.14      0.00
    4    1   19     -1.38      0.00
    5    1   19      0.56      0.00
    6    1   19     -2.54      0.00
    7    1   19     -5.78      0.00
    8    1   19     -1.29      0.00
  -12    2   19     -0.99      0.00
  -11    2   19      0.54      0.00
  -10    2   19      1.56      0.00
   -9    2   19     -0.41      0.00
   -8    2   19      0.23      0.00
   -7    2   19      0.61      0.00
   -6    2   19     -0.51      0.00
   -5    2   19     -1.20      0.00
   -4    2   19     -0.22      0.00
   -3    2   19      0.40      0.00
   -2    2   19     -1.15      0.00
   -1    2   19     -0.20      0.00
    0    2   19      1.84      0.00
    1    2   19      0.68      0.00
    2    2   19     -1.59      0.00
    3    2   19     -1.15      0.00
    4    2   19     -1.12      0.00
    5    2   19     -0.92      0.00
    6    2   19      0.46      0.00
    7    2   19     -1.64      0.00
    8    2   19      0.04      0.00
  -11    3   19      0.36      0.00
  -10    3   19     -0.08      0.00
   -9    3   19      0.83      0.00
   -8    3   19      0.36      0.00
   -7    3   19     -0.66      0.00
   -6    3   19      0.37      0.00
   -5    3   19      0.36      0.00
   -4    3   19     -0.40      0.00
   -3    3   19     -0.39      0.00
   -2    3   19     -0.33      0.00
   -1    3   19      1.10      0.00
    0    3   19      1.44      0.00
    1    3   19      0.17      0.00
    2    3   19      0.06      0.00
    3    3   19     -1.09      0.00
    4    3   19     -0.23      0.00
    5    3   19      0.61      0.00
    6    3   19     -0.04      0.00
    7    3   19      0.75      0.00
    8    3   19      0.22      0.00
  -11    4   19      0.42      0.00
  -10    4   19      0.45      0.00
   -9    4   19     -0.10      0.00
   -8    4   19      1.84      0.00
   -7    4   19      0.16      0.00
   -6    4   19     -0.02      0.00
   -5    4   19      0.67      0.00
   -4    4   19      0.22      0.00
   -3    4   19      0.49      0.00
   -2    4   19      0.09      0.00
   -1    4   19      0.69      0.00
    0    4   19      2.99      0.00
    1    4   19      0.96      0.00
    2    4   19     -0.48      0.00
    3    4   19      0.14      0.00
    4    4   19     -2.30      0.00
    5    4   19      0.00      0.00
    6    4   19      0.15      0.00
    7    4   19     -0.34      0.00
    8    4   19     -0.20      0.00
  -11    5   19     -1.16      0.00
  -10    5   19      1.03      0.00
   -9    5   19      1.17      0.00
   -8    5   19     -0.63      0.00
   -7    5   19      0.88      0.00
   -6    5   19      0.72      0.00
   -5    5   19     -0.16      0.00
   -4    5   19     -1.36      0.00
   -3    5   19     -0.44      0.00
   -2    5   19      1.18      0.00
   -1    5   19      0.06      0.00
    0    5   19      0.64      0.00
    1    5   19     -0.46      0.00
    2    5   19     -0.57      0.00
    3    5   19     -0.59      0.00
    4    5   19      1.66      0.00
    5    5   19     -0.51      0.00
    6    5   19     -0.80      0.00
    7    5   19     -1.40      0.00
    8    5   19      0.61      0.00
  -11    6   19     -0.53      0.00
  -10    6   19      0.93      0.00
   -9    6   19      0.82      0.00
   -8    6   19      0.00      0.00
   -7    6   19     -1.06      0.00
   -6    6   19     -1.13      0.00
   -5    6   19     -0.98      0.00
   -4    6   19     -0.39      0.00
   -3    6   19     -0.58      0.00
   -2    6   19     -0.34      0.00
   -1    6   19      0.04      0.00
    0    6   19      2.04      0.00
    1    6   19      1.77      0.00
    2    6   19     -0.98      0.00
    3    6   19      0.35      0.00
    4    6   19      0.97      0.00
    5    6   19     -2.21      0.00
    6    6   19     -0.35      0.00
    7    6   19     -1.57      0.00
    8    6   19     -0.16      0.00
  -11    7   19      1.05      0.00
  -10    7   19      1.11      0.00
   -9    7   19     -1.00      0.00
   -8    7   19     -0.25      0.00
   -7    7   19      0.84      0.00
   -6    7   19     -0.82      0.00
   -5    7   19     -1.44      0.00
   -4    7   19     -0.10      0.00
   -3    7   19      0.57      0.00
   -2    7   19      0.34      0.00
   -1    7   19      1.17      0.00
    0    7   19      1.79      0.00
    1    7   19      0.51      0.00
    2    7   19      1.02      0.00
    3    7   19      1.14      0.00
    4    7   19     -0.42      0.00
    5    7   19     -0.42      0.00
    6    7   19     -0.47      0.00
    7    7   19      0.39      0.00
  -10    8   19      0.33      0.00
   -9    8   19     -0.79      0.00
   -8    8   19     -1.11      0.00
   -7    8   19     -1.02      0.00
   -6    8   19     -0.20      0.00
   -5    8   19     -0.64      0.00
   -4    8   19      0.61      0.00
   -3    8   19      0.30      0.00
   -2    8   19     -0.27      0.00
   -1    8   19      0.21      0.00
    0    8   19      3.12      0.00
    1    8   19      2.20      0.00
    2    8   19      1.01      0.00
    3    8   19      2.67      0.00
    4    8   19      0.44      0.00
    5    8   19     -1.92      0.00
    6    8   19     -1.52      0.00
    7    8   19     -2.47      0.00
  -10    9   19      0.75      0.00
   -9    9   19      0.54      0.00
   -8    9   19      0.01      0.00
   -7    9   19     -0.48      0.00
   -6    9   19      0.70      0.00
   -5    9   19     -0.20      0.00
   -4    9   19     -1.04      0.00
   -3    9   19     -0.39      0.00
   -2    9   19     -0.50      0.00
   -1    9   19      0.60      0.00
    0    9   19      4.01      0.00
    1    9   19      0.73      0.00
    2    9   19      1.76      0.00
    3    9   19      0.03      0.00
    4    9   19     -0.21      0.00
    5    9   19      1.03      0.00
    6    9   19      0.42      0.00
    7    9   19      1.98      0.00
  -10   10   19     -0.97      0.00
   -9   10   19      0.83      0.00
   -8   10   19     -1.40      0.00
   -7   10   19     -0.16      0.00
   -6   10   19     -0.29      0.00
   -5   10   19     -0.44      0.00
   -4   10   19     -0.68      0.00
   -3   10   19      0.61      0.00
   -2   10   19     -0.15      0.00
   -1   10   19     -0.17      0.00
    0   10   19      2.02      0.00
    1   10   19      0.16      0.00
    2   10   19      0.57      0.00
    3   10   19     -1.90      0.00
    4   10   19     -0.89      0.00
    5   10   19     -0.39      0.00
    6   10   19     -1.47      0.00
   -9   11   19     -0.13      0.00
   -8   11   19     -0.92      0.00
   -7   11   19     -0.11      0.00
   -6   11   19      0.02      0.00
   -5   11   19     -0.05      0.00
   -4   11   19     -0.85      0.00
   -3   11   19     -0.58      0.00
   -2   11   19      0.09      0.00
   -1   11   19      0.23      0.00
    0   11   19      0.25      0.00
    1   11   19      1.00      0.00
    2   11   19     -0.40      0.00
    3   11   19     -0.11      0.00
    4   11   19     -1.96      0.00
    5   11   19     -0.36      0.00
    6   11   19     -0.71      0.00
   -9   12   19     -0.07      0.00
   -8   12   19      0.56      0.00
   -7   12   19     -0.28      0.00
   -6   12   19      0.60      0.00
   -5   12   19     -1.17      0.00
   -4   12   19      0.14      0.00
   -3   12   19     -0.06      0.00
   -2   12   19     -1.60      0.00
   -1   12   19      0.51      0.00
    0   12   19      1.50      0.00
    1   12   19      1.76      0.00
    2   12   19     -0.36      0.00
    3   12   19     -0.81      0.00
    4   12   19     -2.59      0.00
    5   12   19     -1.26      0.00
    6   12   19     -0.87      0.00
   -8   13   19      0.52      0.00
   -7   13   19     -0.42      0.00
   -6   13   19     -2.30      0.00
   -5   13   19      0.64      0.00
   -4   13   19      0.13      0.00
   -3   13   19      0.70      0.00
   -2   13   19      1.29      0.00
   -1   13   19      0.58      0.00
    0   13   19      1.46      0.00
    1   13   19     -2.26      0.00
    2   13   19     -1.49      0.00
    3   13   19      1.24      0.00
    4   13   19     -0.84      0.00
   -7   14   19     -0.95      0.00
   -6   14   19      1.95      0.00
   -5   14   19     -0.95      0.00
   -4   14   19      0.88      0.00
   -3   14   19      0.12      0.00
   -2   14   19      1.71      0.00
   -1   14   19      2.08      0.00
    0   14   19      0.16      0.00
    1   14   19     -0.31      0.00
    2   14   19     -1.13      0.00
    3   14   19      0.18      0.00
   -6   15   19      0.38      0.00
   -5   15   19      1.55      0.00
   -4   15   19      0.00      0.00
   -3   15   19     -1.25      0.00
   -2   15   19      1.24      0.00
   -1   15   19     -0.15      0.00
    0   15   19     -0.25      0.00
    1   15   19     -0.57      0.00
    2   15   19      0.49      0.00
   -5   16   19      0.01      0.00
   -4   16   19     -0.08      0.00
   -3   16   19     -0.29      0.00
   -2   16   19     -0.11      0.00
   -1   16   19     -0.09      0.00
    0   16   19     -0.04      0.00
    1   16   19     -1.04      0.00
   -3   17   19      0.76      0.00
   -2   17   19      0.33      0.00
   -1   17   19     -1.02      0.00
    0   17   19      0.69      0.00
  -10    0   20      0.40      0.00
   -8    0   20     -1.76      0.00
   -6    0   20      1.31      0.00
   -4    0   20     -1.23      0.00
   -2    0   20      0.70      0.00
    0    0   20     -2.06      0.00
    2    0   20      0.93      0.00
    4    0   20      1.71      0.00
    6    0   20     -3.27      0.00
    8    0   20      0.87      0.00
  -11    1   20      0.53      0.00
  -10    1   20     -0.35      0.00
   -9    1   20     -0.81      0.00
   -8    1   20      0.04      0.00
   -7    1   20     -0.06      0.00
   -6    1   20     -0.50      0.00
   -5    1   20     -0.08      0.00
   -4    1   20      1.67      0.00
   -3    1   20     -0.40      0.00
   -2    1   20     -3.35      0.00
   -1    1   20     -1.50      0.00
    0    1   20     -1.08      0.00
    1    1   20     -1.70      0.00
    2    1   20     -0.67      0.00
    3    1   20      1.13      0.00
    4    1   20     -0.04      0.00
    5    1   20      0.85      0.00
    6    1   20     -0.57      0.00
    7    1   20      0.19      0.00
    8    1   20      7.14      0.00
  -11    2   20      0.45      0.00
  -10    2   20      0.68      0.00
   -9    2   20     -0.72      0.00
   -8    2   20     -0.15      0.00
   -7    2   20     -0.39      0.00
   -6    2   20      0.04      0.00
   -5    2   20      0.37      0.00
   -4    2   20     -0.31      0.00
   -3    2   20      1.18      0.00
   -2    2   20     -0.65      0.00
   -1    2   20     -1.54      0.00
    0    2   20      0.97      0.00
    1    2   20      1.51      0.00
    2    2   20     -0.08      0.00
    3    2   20      0.49      0.00
    4    2   20     -0.11      0.00
    5    2   20      0.04      0.00
    6    2   20      2.08      0.00
    7    2   20     -0.39      0.00
    8    2   20     -0.83      0.00
  -11    3   20     -0.70      0.00
  -10    3   20     -0.09      0.00
   -9    3   20      0.46      0.00
   -8    3   20     -0.24      0.00
   -7    3   20     -1.32      0.00
   -6    3   20      0.75      0.00
   -5    3   20      0.31      0.00
   -4    3   20     -0.24      0.00
   -3    3   20     -0.74      0.00
   -2    3   20     -1.53      0.00
   -1    3   20     -0.14      0.00
    0    3   20      1.17      0.00
    1    3   20      1.44      0.00
    2    3   20      1.00      0.00
    3    3   20     -1.52      0.00
    4    3   20     -2.07      0.00
    5    3   20      0.42      0.00
    6    3   20     -1.44      0.00
    7    3   20      1.51      0.00
    8    3   20      0.71      0.00
  -11    4   20      0.17      0.00
  -10    4   20     -0.09      0.00
   -9    4   20     -0.77      0.00
   -8    4   20     -0.31      0.00
   -7    4   20      0.51      0.00
   -6    4   20     -0.67      0.00
   -5    4   20     -0.53      0.00
   -4    4   20      0.20      0.00
   -3    4   20      0.79      0.00
   -2    4   20     -1.19      0.00
   -1    4   20     -1.88      0.00
    0    4   20      2.21      0.00
    1    4   20     -0.02      0.00
    2    4   20     -0.75      0.00
    3    4   20     -0.21      0.00
    4    4   20     -0.60      0.00
    5    4   20      1.67      0.00
    6    4   20      0.14      0.00
    7    4   20      0.97      0.00
    8    4   20     -0.72      0.00
  -11    5   20     -0.45      0.00
  -10    5   20      0.29      0.00
   -9    5   20     -1.24      0.00
   -8    5   20     -1.03      0.00
   -7    5   20      0.04      0.00
   -6    5   20     -0.38      0.00
   -5    5   20      0.49      0.00
   -4    5   20      0.19      0.00
   -3    5   20     -0.04      0.00
   -2    5   20     -0.41      0.00
   -1    5   20      1.15      0.00
    0    5   20      3.96      0.00
    1    5   20      2.19      0.00
    2    5   20      0.48      0.00
    3    5   20     -0.16      0.00
    4    5   20      0.20      0.00
    5    5   20     -2.86      0.00
    6    5   20      2.14      0.00
    7    5   20      0.72      0.00
  -11    6   20     -0.92      0.00
  -10    6   20     -0.22      0.00
   -9    6   20     -0.10      0.00
   -8    6   20      1.53      0.00
   -7    6   20     -0.18      0.00
   -6    6   20      0.01      0.00
   -5    6   20      0.76      0.00
   -4    6   20      0.13      0.00
   -3    6   20     -0.67      0.00
   -2    6   20      0.32      0.00
   -1    6   20      1.62      0.00
    0    6   20      2.66      0.00
    1    6   20      0.92      0.00
    2    6   20     -0.01      0.00
    3    6   20      0.54      0.00
    4    6   20      0.73      0.00
    5    6   20      1.23      0.00
    6    6   20      0.71      0.00
    7    6   20      0.15      0.00
  -10    7   20     -0.62      0.00
   -9    7   20      0.62      0.00
   -8    7   20     -0.09      0.00
   -7    7   20      0.99      0.00
   -6    7   20      0.29      0.00
   -5    7   20      0.42      0.00
   -4    7   20      0.21      0.00
   -3    7   20     -0.19      0.00
   -2    7   20      0.20      0.00
   -1    7   20      1.54      0.00
    0    7   20      1.71      0.00
    1    7   20      1.38      0.00
    2    7   20      0.07      0.00
    3    7   20      0.51      0.00
    4    7   20      0.48      0.00
    5    7   20      0.22      0.00
    6    7   20      2.04      0.00
    7    7   20     -0.96      0.00
  -10    8   20      2.20      0.00
   -9    8   20      0.45      0.00
   -8    8   20      0.60      0.00
   -7    8   20     -0.08      0.00
   -6    8   20      1.78      0.00
   -5    8   20     -1.71      0.00
   -4    8   20     -1.26      0.00
   -3    8   20     -0.13      0.00
   -2    8   20      0.85      0.00
   -1    8   20      1.85      0.00
    0    8   20      1.32      0.00
    1    8   20     -0.25      0.00
    2    8   20     -1.38      0.00
    3    8   20      1.21      0.00
    4    8   20      1.04      0.00
    5    8   20      0.78      0.00
    6    8   20      0.21      0.00
    7    8   20      3.75      0.00
  -10    9   20      0.58      0.00
   -9    9   20      1.10      0.00
   -8    9   20     -0.68      0.00
   -7    9   20      0.30      0.00
   -6    9   20     -1.38      0.00
   -5    9   20     -1.05      0.00
   -4    9   20     -0.26      0.00
   -3    9   20      0.65      0.00
   -2    9   20      0.98      0.00
   -1    9   20     -0.77      0.00
    0    9   20      0.84      0.00
    1    9   20     -2.16      0.00
    2    9   20     -0.79      0.00
    3    9   20     -0.99      0.00
    4    9   20      2.05      0.00
    5    9   20     -0.58      0.00
    6    9   20      0.34      0.00
   -9   10   20      0.59      0.00
   -8   10   20     -0.68      0.00
   -7   10   20      0.81      0.00
   -6   10   20     -0.22      0.00
   -5   10   20      0.57      0.00
   -4   10   20     -0.07      0.00
   -3   10   20      1.12      0.00
   -2   10   20      1.39      0.00
   -1   10   20      0.21      0.00
    0   10   20      0.80      0.00
    1   10   20     -0.58      0.00
    2   10   20      0.00      0.00
    3   10   20      1.98      0.00
    4   10   20     -0.29      0.00
    5   10   20     -0.11      0.00
    6   10   20      0.31      0.00
   -9   11   20      0.15      0.00
   -8   11   20      0.58      0.00
   -7   11   20     -0.41      0.00
   -6   11   20      0.24      0.00
   -5   11   20     -0.72      0.00
   -4   11   20     -0.01      0.00
   -3   11   20      0.97      0.00
   -2   11   20      0.70      0.00
   -1   11   20      0.87      0.00
    0   11   20      1.31      0.00
    1   11   20      0.42      0.00
    2   11   20     -0.70      0.00
    3   11   20      0.55      0.00
    4   11   20     -2.26      0.00
    5   11   20      0.66      0.00
    6   11   20     -0.22      0.00
   -8   12   20      0.01      0.00
   -7   12   20     -0.78      0.00
   -6   12   20      0.10      0.00
   -5   12   20      1.17      0.00
   -4   12   20     -0.03      0.00
   -3   12   20      1.00      0.00
   -2   12   20      0.82      0.00
   -1   12   20      0.39      0.00
    0   12   20     -0.20      0.00
    1   12   20     -1.21      0.00
    2   12   20      1.88      0.00
    3   12   20     -0.02      0.00
    4   12   20     -2.22      0.00
   -8   13   20      0.26      0.00
   -7   13   20      0.52      0.00
   -6   13   20      1.21      0.00
   -5   13   20     -0.56      0.00
   -4   13   20      0.64      0.00
   -3   13   20      0.81      0.00
   -2   13   20      0.36      0.00
   -1   13   20     -0.36      0.00
    0   13   20     -1.11      0.00
    1   13   20      0.68      0.00
    2   13   20      0.57      0.00
    3   13   20      2.12      0.00
   -7   14   20      0.39      0.00
   -6   14   20     -0.11      0.00
   -5   14   20     -1.10      0.00
   -4   14   20     -0.86      0.00
   -3   14   20      0.42      0.00
   -2   14   20      0.44      0.00
   -1   14   20     -1.44      0.00
    0   14   20      0.96      0.00
    1   14   20     -1.26      0.00
    2   14   20     -1.11      0.00
    3   14   20     -2.39      0.00
   -6   15   20      0.08      0.00
   -5   15   20     -0.28      0.00
   -4   15   20      0.13      0.00
   -3   15   20     -1.42      0.00
   -2   15   20      0.91      0.00
   -1   15   20      0.26      0.00
    0   15   20      0.24      0.00
    1   15   20      0.71      0.00
    2   15   20     -0.75      0.00
   -3   16   20      0.93      0.00
   -2   16   20     -0.38      0.00
   -1   16   20      0.69      0.00
    1   16   20     -1.52      0.00
  -11    0   21     -1.06      0.00
   -9    0   21     -0.59      0.00
   -7    0   21      0.30      0.00
   -5    0   21      0.45      0.00
   -3    0   21     -3.91      0.00
   -1    0   21      0.91      0.00
    1    0   21      0.13      0.00
    3    0   21     -0.43      0.00
    5    0   21     -0.66      0.00
    7    0   21      3.13      0.00
  -11    1   21      1.15      0.00
  -10    1   21      0.47      0.00
   -9    1   21      0.13      0.00
   -8    1   21     -0.26      0.00
   -7    1   21     -1.49      0.00
   -6    1   21     -0.40      0.00
   -5    1   21      0.87      0.00
   -4    1   21     -0.97      0.00
   -3    1   21     -0.01      0.00
   -2    1   21     -1.33      0.00
   -1    1   21      1.93      0.00
    0    1   21      2.12      0.00
    1    1   21     -0.50      0.00
    2    1   21      0.48      0.00
    3    1   21      0.74      0.00
    4    1   21     -0.67      0.00
    5    1   21      1.31      0.00
    6    1   21     -1.29      0.00
    7    1   21     -3.42      0.00
  -11    2   21      0.67      0.00
  -10    2   21      1.28      0.00
   -9    2   21     -0.88      0.00
   -8    2   21     -0.17      0.00
   -7    2   21     -0.23      0.00
   -6    2   21      0.99      0.00
   -5    2   21     -0.92      0.00
   -4    2   21     -1.31      0.00
   -3    2   21      0.43      0.00
   -2    2   21     -0.11      0.00
   -1    2   21     -0.57      0.00
    0    2   21      0.40      0.00
    1    2   21      0.19      0.00
    2    2   21     -1.40      0.00
    3    2   21     -1.11      0.00
    4    2   21      0.94      0.00
    5    2   21     -0.37      0.00
    6    2   21      0.53      0.00
    7    2   21     -1.54      0.00
  -11    3   21      0.80      0.00
  -10    3   21     -0.18      0.00
   -9    3   21      1.46      0.00
   -8    3   21     -0.42      0.00
   -7    3   21     -0.60      0.00
   -6    3   21     -0.42      0.00
   -5    3   21     -0.04      0.00
   -4    3   21      0.32      0.00
   -3    3   21     -0.29      0.00
   -2    3   21     -0.15      0.00
   -1    3   21      0.57      0.00
    0    3   21     -0.71      0.00
    1    3   21     -0.41      0.00
    2    3   21     -0.81      0.00
    3    3   21      0.11      0.00
    4    3   21      0.76      0.00
    5    3   21      0.62      0.00
    6    3   21     -1.28      0.00
    7    3   21      0.57      0.00
  -11    4   21      0.07      0.00
  -10    4   21     -0.28      0.00
   -9    4   21      0.11      0.00
   -8    4   21      1.89      0.00
   -7    4   21      0.51      0.00
   -6    4   21     -0.20      0.00
   -5    4   21      0.21      0.00
   -4    4   21      0.07      0.00
   -3    4   21      0.46      0.00
   -2    4   21     -0.85      0.00
   -1    4   21      0.21      0.00
    0    4   21      1.37      0.00
    1    4   21     -0.19      0.00
    2    4   21      0.48      0.00
    3    4   21      0.55      0.00
    4    4   21     -2.35      0.00
    5    4   21     -0.69      0.00
    6    4   21     -0.72      0.00
    7    4   21     -1.07      0.00
  -11    5   21     -0.69      0.00
  -10    5   21      1.05      0.00
   -9    5   21      0.94      0.00
   -8    5   21     -0.08      0.00
   -7    5   21      0.52      0.00
   -6    5   21      0.59      0.00
   -5    5   21      0.13      0.00
   -4    5   21     -1.47      0.00
   -3    5   21      0.18      0.00
   -2    5   21      0.81      0.00
   -1    5   21     -1.09      0.00
    0    5   21     -0.60      0.00
    1    5   21     -0.69      0.00
    2    5   21      0.15      0.00
    3    5   21     -1.24      0.00
    4    5   21     -0.05      0.00
    5    5   21     -0.91      0.00
    6    5   21      0.30      0.00
    7    5   21      0.19      0.00
  -10    6   21      0.46      0.00
   -9    6   21      0.61      0.00
   -8    6   21     -0.74      0.00
   -7    6   21     -0.43      0.00
   -6    6   21     -0.24      0.00
   -5    6   21     -0.77      0.00
   -4    6   21      0.04      0.00
   -3    6   21     -0.52      0.00
   -2    6   21     -0.35      0.00
   -1    6   21     -1.91      0.00
    0    6   21      0.45      0.00
    1    6   21      2.00      0.00
    2    6   21     -1.39      0.00
    3    6   21      0.49      0.00
    4    6   21      0.46      0.00
    5    6   21     -1.81      0.00
    6    6   21     -0.06      0.00
    7    6   21     -1.87      0.00
  -10    7   21      1.95      0.00
   -9    7   21     -1.69      0.00
   -8    7   21      0.68      0.00
   -7    7   21      1.28      0.00
   -6    7   21     -0.26      0.00
   -5    7   21     -0.81      0.00
   -4    7   21     -0.29      0.00
   -3    7   21      0.38      0.00
   -2    7   21     -0.44      0.00
   -1    7   21      0.03      0.00
    0    7   21      1.45      0.00
    1    7   21      0.59      0.00
    2    7   21      0.21      0.00
    3    7   21      0.66      0.00
    4    7   21     -1.41      0.00
    5    7   21      0.01      0.00
    6    7   21     -0.28      0.00
    7    7   21      0.83      0.00
  -10    8   21      0.17      0.00
   -9    8   21     -0.22      0.00
   -8    8   21     -0.49      0.00
   -7    8   21     -1.74      0.00
   -6    8   21     -0.04      0.00
   -5    8   21      0.10      0.00
   -4    8   21      1.28      0.00
   -3    8   21     -0.05      0.00
   -2    8   21     -0.21      0.00
   -1    8   21     -0.80      0.00
    0    8   21      2.04      0.00
    1    8   21      2.91      0.00
    2    8   21      0.27      0.00
    3    8   21      2.54      0.00
    4    8   21      0.71      0.00
    5    8   21     -2.22      0.00
    6    8   21      0.67      0.00
    7    8   21     -1.93      0.00
   -9    9   21      0.95      0.00
   -8    9   21     -0.74      0.00
   -7    9   21      1.41      0.00
   -6    9   21      0.58      0.00
   -5    9   21      1.88      0.00
   -4    9   21     -0.62      0.00
   -3    9   21     -0.09      0.00
   -2    9   21     -0.38      0.00
   -1    9   21     -0.11      0.00
    0    9   21      2.93      0.00
    1    9   21      0.69      0.00
    2    9   21      3.05      0.00
    3    9   21      0.76      0.00
    4    9   21      0.31      0.00
    5    9   21      0.99      0.00
    6    9   21      0.65      0.00
   -9   10   21      0.59      0.00
   -8   10   21     -0.22      0.00
   -7   10   21     -0.60      0.00
   -6   10   21      0.17      0.00
   -5   10   21     -0.71      0.00
   -4   10   21     -0.14      0.00
   -3   10   21     -0.19      0.00
   -2   10   21     -0.84      0.00
   -1   10   21      0.02      0.00
    0   10   21      2.08      0.00
    1   10   21      0.18      0.00
    2   10   21     -0.38      0.00
    3   10   21     -2.06      0.00
    4   10   21     -0.48      0.00
    5   10   21      0.18      0.00
    6   10   21     -0.55      0.00
   -8   11   21     -1.63      0.00
   -7   11   21      0.62      0.00
   -6   11   21     -1.28      0.00
   -5   11   21      0.03      0.00
   -4   11   21     -0.94      0.00
   -3   11   21      0.03      0.00
   -2   11   21     -0.42      0.00
   -1   11   21      0.42      0.00
    0   11   21      0.78      0.00
    1   11   21      0.54      0.00
    2   11   21     -2.03      0.00
    3   11   21      0.24      0.00
    4   11   21     -0.76      0.00
    5   11   21      1.12      0.00
   -8   12   21      0.55      0.00
   -7   12   21     -0.32      0.00
   -6   12   21      1.27      0.00
   -5   12   21     -0.75      0.00
   -4   12   21      0.05      0.00
   -3   12   21     -0.42      0.00
   -2   12   21     -1.09      0.00
   -1   12   21      0.58      0.00
    0   12   21      1.09      0.00
    1   12   21      1.52      0.00
    2   12   21     -0.01      0.00
    3   12   21     -0.27      0.00
    4   12   21     -0.95      0.00
   -7   13   21     -0.75      0.00
   -6   13   21     -2.15      0.00
   -5   13   21      0.70      0.00
   -4   13   21      0.51      0.00
   -3   13   21      0.18      0.00
   -2   13   21      0.43      0.00
   -1   13   21      0.87      0.00
    0   13   21      1.32      0.00
    1   13   21     -1.68      0.00
    2   13   21     -0.23      0.00
    3   13   21      2.10      0.00
   -6   14   21      1.33      0.00
   -5   14   21     -0.68      0.00
   -4   14   21     -0.35      0.00
   -3   14   21     -0.06      0.00
   -2   14   21      1.41      0.00
   -1   14   21      1.42      0.00
    0   14   21      1.68      0.00
    1   14   21     -0.66      0.00
    2   14   21     -0.48      0.00
    3   14   21      0.85      0.00
   -5   15   21      0.97      0.00
   -4   15   21     -0.15      0.00
   -3   15   21     -0.75      0.00
   -2   15   21      1.67      0.00
   -1   15   21     -0.24      0.00
    0   15   21     -0.41      0.00
    1   15   21      0.06      0.00
    2   15   21      0.42      0.00
   -2   16   21     -0.38      0.00
   -1   16   21     -0.77      0.00
  -10    0   22      0.51      0.00
   -8    0   22     -1.06      0.00
   -6    0   22      0.96      0.00
   -4    0   22     -0.19      0.00
   -2    0   22      0.13      0.00
    0    0   22     -1.08      0.00
    2    0   22      2.01      0.00
    4    0   22     -0.62      0.00
    6    0   22     -2.18      0.00
  -11    1   22     -0.26      0.00
  -10    1   22     -0.47      0.00
   -9    1   22     -0.73      0.00
   -8    1   22      0.30      0.00
   -7    1   22      1.43      0.00
   -6    1   22      0.33      0.00
   -5    1   22     -0.07      0.00
   -4    1   22      0.68      0.00
   -3    1   22      0.90      0.00
   -2    1   22     -2.85      0.00
   -1    1   22     -0.32      0.00
    0    1   22      0.21      0.00
    1    1   22     -0.57      0.00
    2    1   22      0.24      0.00
    3    1   22      0.66      0.00
    4    1   22     -1.02      0.00
    5    1   22     -1.21      0.00
    6    1   22     -0.75      0.00
    7    1   22     -0.17      0.00
  -11    2   22      0.06      0.00
  -10    2   22      1.20      0.00
   -9    2   22     -0.56      0.00
   -8    2   22     -0.39      0.00
   -7    2   22     -1.07      0.00
   -6    2   22      0.13      0.00
   -5    2   22      0.33      0.00
   -4    2   22      0.77      0.00
   -3    2   22     -0.36      0.00
   -2    2   22      0.07      0.00
   -1    2   22     -1.33      0.00
    0    2   22      1.41      0.00
    1    2   22      1.59      0.00
    2    2   22     -0.64      0.00
    3    2   22      0.45      0.00
    4    2   22     -0.60      0.00
    5    2   22     -0.96      0.00
    6    2   22      1.36      0.00
    7    2   22     -0.74      0.00
  -11    3   22      0.04      0.00
  -10    3   22     -0.15      0.00
   -9    3   22      1.45      0.00
   -8    3   22     -0.17      0.00
   -7    3   22     -1.07      0.00
   -6    3   22     -0.43      0.00
   -5    3   22      1.17      0.00
   -4    3   22      0.19      0.00
   -3    3   22     -1.32      0.00
   -2    3   22     -1.44      0.00
   -1    3   22      0.73      0.00
    0    3   22      0.26      0.00
    1    3   22      2.49      0.00
    2    3   22      0.63      0.00
    3    3   22     -1.24      0.00
    4    3   22     -2.85      0.00
    5    3   22      0.41      0.00
    6    3   22     -1.16      0.00
    7    3   22      1.79      0.00
  -11    4   22      0.34      0.00
  -10    4   22      0.40      0.00
   -9    4   22     -0.31      0.00
   -8    4   22      0.17      0.00
   -7    4   22     -0.19      0.00
   -6    4   22     -0.58      0.00
   -5    4   22     -0.68      0.00
   -4    4   22     -0.26      0.00
   -3    4   22      0.66      0.00
   -2    4   22     -0.63      0.00
   -1    4   22     -0.56      0.00
    0    4   22      1.70      0.00
    1    4   22     -0.27      0.00
    2    4   22     -0.62      0.00
    3    4   22     -1.99      0.00
    4    4   22      0.02      0.00
    5    4   22      2.17      0.00
    6    4   22      0.91      0.00
    7    4   22      0.43      0.00
  -10    5   22     -1.10      0.00
   -9    5   22     -0.67      0.00
   -8    5   22     -1.11      0.00
   -7    5   22      0.01      0.00
   -6    5   22     -0.18      0.00
   -5    5   22     -0.01      0.00
   -4    5   22     -0.24      0.00
   -3    5   22      0.00      0.00
   -2    5   22     -0.46      0.00
   -1    5   22      0.54      0.00
    0    5   22      3.49      0.00
    1    5   22      1.45      0.00
    2    5   22     -0.46      0.00
    3    5   22      0.06      0.00
    4    5   22      0.01      0.00
    5    5   22     -1.60      0.00
    6    5   22      1.56      0.00
    7    5   22     -0.14      0.00
  -10    6   22     -0.41      0.00
   -9    6   22     -0.36      0.00
   -8    6   22      1.77      0.00
   -7    6   22      0.23      0.00
   -6    6   22     -0.55      0.00
   -5    6   22      0.07      0.00
   -4    6   22     -0.45      0.00
   -3    6   22     -0.40      0.00
   -2    6   22      0.68      0.00
   -1    6   22      1.62      0.00
    0    6   22      1.90      0.00
    1    6   22      0.03      0.00
    2    6   22     -0.04      0.00
    3    6   22      0.94      0.00
    4    6   22      0.66      0.00
    5    6   22      0.15      0.00
    6    6   22     -0.52      0.00
    7    6   22      0.39      0.00
  -10    7   22     -0.20      0.00
   -9    7   22      0.15      0.00
   -8    7   22     -0.33      0.00
   -7    7   22     -0.78      0.00
   -6    7   22      0.34      0.00
   -5    7   22      0.26      0.00
   -4    7   22     -0.21      0.00
   -3    7   22     -0.54      0.00
   -2    7   22      1.53      0.00
   -1    7   22      1.80      0.00
    0    7   22      1.70      0.00
    1    7   22      0.95      0.00
    2    7   22     -0.34      0.00
    3    7   22      0.85      0.00
    4    7   22     -0.02      0.00
    5    7   22      1.21      0.00
    6    7   22      0.87      0.00
    7    7   22     -1.33      0.00
   -9    8   22      0.57      0.00
   -8    8   22     -0.06      0.00
   -7    8   22      0.24      0.00
   -6    8   22      1.30      0.00
   -5    8   22     -1.40      0.00
   -4    8   22     -1.72      0.00
   -3    8   22      0.18      0.00
   -2    8   22      1.40      0.00
   -1    8   22      1.76      0.00
    0    8   22      1.39      0.00
    1    8   22      1.98      0.00
    2    8   22     -1.42      0.00
    3    8   22      1.70      0.00
    4    8   22      0.01      0.00
    5    8   22     -1.45      0.00
    6    8   22      0.62      0.00
   -9    9   22      1.13      0.00
   -8    9   22     -0.55      0.00
   -7    9   22      0.50      0.00
   -6    9   22     -2.98      0.00
   -5    9   22     -1.22      0.00
   -4    9   22     -1.46      0.00
   -3    9   22     -0.55      0.00
   -2    9   22      2.10      0.00
   -1    9   22     -0.10      0.00
    0    9   22      1.34      0.00
    1    9   22     -1.86      0.00
    2    9   22      0.55      0.00
    3    9   22     -1.09      0.00
    4    9   22      2.09      0.00
    5    9   22     -0.57      0.00
    6    9   22     -1.18      0.00
   -9   10   22      0.26      0.00
   -8   10   22     -0.39      0.00
   -7   10   22     -0.33      0.00
   -6   10   22     -0.62      0.00
   -5   10   22      0.45      0.00
   -4   10   22     -0.46      0.00
   -3   10   22      1.39      0.00
   -2   10   22      1.33      0.00
   -1   10   22      1.45      0.00
    0   10   22      0.45      0.00
    1   10   22     -0.99      0.00
    2   10   22      0.13      0.00
    3   10   22      3.27      0.00
    4   10   22      1.22      0.00
    5   10   22     -0.84      0.00
   -8   11   22      0.13      0.00
   -7   11   22      0.30      0.00
   -6   11   22     -0.49      0.00
   -5   11   22     -0.81      0.00
   -4   11   22     -0.20      0.00
   -3   11   22      0.87      0.00
   -2   11   22      0.49      0.00
   -1   11   22      0.31      0.00
    0   11   22      0.60      0.00
    1   11   22      0.90      0.00
    2   11   22     -0.60      0.00
    3   11   22      1.54      0.00
    4   11   22     -2.46      0.00
    5   11   22      0.90      0.00
   -7   12   22     -0.94      0.00
   -6   12   22      0.02      0.00
   -5   12   22      0.23      0.00
   -4   12   22     -0.65      0.00
   -3   12   22      0.85      0.00
   -2   12   22      0.84      0.00
   -1   12   22     -0.20      0.00
    0   12   22     -0.26      0.00
    1   12   22     -0.47      0.00
    2   12   22      1.63      0.00
    3   12   22     -1.95      0.00
    4   12   22     -1.87      0.00
   -6   13   22      0.81      0.00
   -5   13   22     -0.65      0.00
   -4   13   22      0.93      0.00
   -3   13   22      0.53      0.00
   -2   13   22      0.24      0.00
   -1   13   22      0.44      0.00
    0   13   22     -0.32      0.00
    1   13   22      0.30      0.00
    2   13   22     -0.47      0.00
    3   13   22      0.99      0.00
   -5   14   22     -0.97      0.00
   -4   14   22      0.04      0.00
   -3   14   22      1.35      0.00
   -2   14   22      0.02      0.00
   -1   14   22     -1.31      0.00
    0   14   22      1.06      0.00
    1   14   22     -1.45      0.00
    2   14   22     -0.61      0.00
   -4   15   22     -0.35      0.00
   -3   15   22     -1.40      0.00
   -2   15   22      0.29      0.00
   -1   15   22     -0.42      0.00
    0   15   22      1.15      0.00
   -9    0   23     -0.54      0.00
   -7    0   23      0.50      0.00
   -5    0   23     -0.45      0.00
   -3    0   23     -1.74      0.00
   -1    0   23      1.54      0.00
    1    0   23     -1.01      0.00
    3    0   23     -2.30      0.00
    5    0   23      1.14      0.00
    7    0   23      1.53      0.00
  -10    1   23      0.38      0.00
   -9    1   23     -0.72      0.00
   -8    1   23     -1.35      0.00
   -7    1   23     -0.56      0.00
   -6    1   23     -0.46      0.00
   -5    1   23      0.21      0.00
   -4    1   23     -0.78      0.00
   -3    1   23      0.27      0.00
   -2    1   23     -0.35      0.00
   -1    1   23     -0.06      0.00
    0    1   23      0.51      0.00
    1    1   23     -2.48      0.00
    2    1   23     -0.67      0.00
    3    1   23      0.73      0.00
    4    1   23     -0.49      0.00
    5    1   23      0.74      0.00
    6    1   23      1.15      0.00
    7    1   23     -1.28      0.00
  -10    2   23      0.88      0.00
   -9    2   23     -1.19      0.00
   -8    2   23     -0.56      0.00
   -7    2   23     -0.75      0.00
   -6    2   23      2.05      0.00
   -5    2   23      0.79      0.00
   -4    2   23     -1.23      0.00
   -3    2   23     -0.11      0.00
   -2    2   23     -0.05      0.00
   -1    2   23     -1.24      0.00
    0    2   23     -0.33      0.00
    1    2   23     -0.56      0.00
    2    2   23     -1.65      0.00
    3    2   23     -0.54      0.00
    4    2   23      1.15      0.00
    5    2   23      0.90      0.00
    6    2   23      0.28      0.00
    7    2   23      0.05      0.00
  -10    3   23     -0.21      0.00
   -9    3   23      1.26      0.00
   -8    3   23     -1.17      0.00
   -7    3   23     -0.24      0.00
   -6    3   23     -0.66      0.00
   -5    3   23      0.11      0.00
   -4    3   23      0.99      0.00
   -3    3   23      0.04      0.00
   -2    3   23     -0.10      0.00
   -1    3   23     -0.25      0.00
    0    3   23     -1.71      0.00
    1    3   23      0.04      0.00
    2    3   23     -1.62      0.00
    3    3   23      0.01      0.00
    4    3   23      0.92      0.00
    5    3   23      1.09      0.00
    6    3   23     -0.61      0.00
    7    3   23      0.45      0.00
  -10    4   23     -1.02      0.00
   -9    4   23      0.24      0.00
   -8    4   23      0.76      0.00
   -7    4   23      0.75      0.00
   -6    4   23      0.46      0.00
   -5    4   23     -0.57      0.00
   -4    4   23      0.54      0.00
   -3    4   23      0.64      0.00
   -2    4   23     -1.75      0.00
   -1    4   23      0.21      0.00
    0    4   23      0.26      0.00
    1    4   23     -0.62      0.00
    2    4   23      0.93      0.00
    3    4   23      0.49      0.00
    4    4   23     -0.72      0.00
    5    4   23     -0.55      0.00
    6    4   23     -1.01      0.00
    7    4   23     -1.27      0.00
  -10    5   23      0.47      0.00
   -9    5   23      0.97      0.00
   -8    5   23      0.48      0.00
   -7    5   23      0.67      0.00
   -6    5   23     -0.19      0.00
   -5    5   23      0.74      0.00
   -4    5   23     -0.87      0.00
   -3    5   23     -0.21      0.00
   -2    5   23     -0.51      0.00
   -1    5   23     -0.81      0.00
    0    5   23     -0.60      0.00
    1    5   23      0.14      0.00
    2    5   23      0.93      0.00
    3    5   23     -0.82      0.00
    4    5   23     -0.52      0.00
    5    5   23     -1.15      0.00
    6    5   23      1.22      0.00
    7    5   23      1.30      0.00
  -10    6   23      0.15      0.00
   -9    6   23     -0.09      0.00
   -8    6   23     -0.73      0.00
   -7    6   23     -0.10      0.00
   -6    6   23      0.70      0.00
   -5    6   23     -0.46      0.00
   -4    6   23     -0.10      0.00
   -3    6   23     -1.02      0.00
   -2    6   23      0.31      0.00
   -1    6   23     -1.82      0.00
    0    6   23     -0.02      0.00
    1    6   23      1.50      0.00
    2    6   23     -0.76      0.00
    3    6   23      0.17      0.00
    4    6   23      0.34      0.00
    5    6   23     -0.89      0.00
    6    6   23      0.36      0.00
   -9    7   23     -1.66      0.00
   -8    7   23      1.16      0.00
   -7    7   23      1.80      0.00
   -6    7   23      1.27      0.00
   -5    7   23      0.06      0.00
   -4    7   23     -0.43      0.00
   -3    7   23      0.14      0.00
   -2    7   23     -0.45      0.00
   -1    7   23     -0.55      0.00
    0    7   23      0.98      0.00
    1    7   23      0.14      0.00
    2    7   23     -1.44      0.00
    3    7   23      0.79      0.00
    4    7   23     -1.82      0.00
    5    7   23      1.10      0.00
    6    7   23      0.10      0.00
   -9    8   23      0.21      0.00
   -8    8   23      0.73      0.00
   -7    8   23     -0.93      0.00
   -6    8   23     -0.24      0.00
   -5    8   23      0.72      0.00
   -4    8   23      1.05      0.00
   -3    8   23     -0.17      0.00
   -2    8   23      0.48      0.00
   -1    8   23     -1.18      0.00
    0    8   23      1.11      0.00
    1    8   23      1.96      0.00
    2    8   23     -0.67      0.00
    3    8   23      1.46      0.00
    4    8   23      0.70      0.00
    5    8   23     -1.75      0.00
    6    8   23      2.19      0.00
   -9    9   23      1.53      0.00
   -8    9   23     -0.77      0.00
   -7    9   23      2.14      0.00
   -6    9   23      0.72      0.00
   -5    9   23      2.73      0.00
   -4    9   23     -0.37      0.00
   -3    9   23      0.69      0.00
   -2    9   23      0.68      0.00
   -1    9   23     -0.38      0.00
    0    9   23      0.85      0.00
    1    9   23      0.46      0.00
    2    9   23      3.02      0.00
    3    9   23      1.43      0.00
    4    9   23      0.51      0.00
    5    9   23      0.22      0.00
   -8   10   23      1.31      0.00
   -7   10   23     -0.45      0.00
   -6   10   23      0.59      0.00
   -5   10   23     -0.22      0.00
   -4   10   23      0.19      0.00
   -3   10   23     -0.45      0.00
   -2   10   23     -0.68      0.00
   -1   10   23      0.04      0.00
    0   10   23      1.46      0.00
    1   10   23      0.42      0.00
    2   10   23     -0.37      0.00
    3   10   23     -1.14      0.00
    4   10   23     -0.32      0.00
    5   10   23      0.00      0.00
   -7   11   23      1.61      0.00
   -6   11   23     -2.18      0.00
   -5   11   23      0.24      0.00
   -4   11   23     -0.61      0.00
   -3   11   23      0.90      0.00
   -2   11   23     -0.07      0.00
   -1   11   23      0.76      0.00
    0   11   23      1.72      0.00
    1   11   23      0.59      0.00
    2   11   23     -2.02      0.00
    3   11   23      0.67      0.00
    4   11   23      0.21      0.00
   -7   12   23     -0.01      0.00
   -6   12   23      1.20      0.00
   -5   12   23     -0.13      0.00
   -4   12   23      0.05      0.00
   -3   12   23      0.09      0.00
   -2   12   23      0.28      0.00
   -1   12   23      1.13      0.00
    0   12   23      0.97      0.00
    1   12   23      0.80      0.00
    2   12   23     -0.46      0.00
    3   12   23      0.83      0.00
   -6   13   23     -1.10      0.00
   -5   13   23      0.40      0.00
   -4   13   23      1.44      0.00
   -3   13   23     -0.38      0.00
   -2   13   23      0.24      0.00
   -1   13   23      1.31      0.00
    0   13   23      0.35      0.00
    1   13   23     -1.11      0.00
    2   13   23      1.19      0.00
   -4   14   23     -0.84      0.00
   -3   14   23      0.04      0.00
   -2   14   23      0.60      0.00
   -1   14   23      0.57      0.00
    0   14   23      2.15      0.00
    1   14   23     -0.70      0.00
  -10    0   24      0.70      0.00
   -8    0   24     -0.02      0.00
   -6    0   24     -0.82      0.00
   -4    0   24      1.02      0.00
   -2    0   24     -0.27      0.00
    0    0   24     -0.18      0.00
    2    0   24      2.59      0.00
    4    0   24     -1.34      0.00
    6    0   24     -0.83      0.00
  -10    1   24     -0.65      0.00
   -9    1   24     -0.44      0.00
   -8    1   24      0.46      0.00
   -7    1   24      1.81      0.00
   -6    1   24      0.88      0.00
   -5    1   24     -0.30      0.00
   -4    1   24     -0.65      0.00
   -3    1   24      1.04      0.00
   -2    1   24     -1.37      0.00
   -1    1   24      1.12      0.00
    0    1   24      1.31      0.00
    1    1   24      0.14      0.00
    2    1   24      1.83      0.00
    3    1   24      0.54      0.00
    4    1   24     -0.89      0.00
    5    1   24     -2.36      0.00
    6    1   24      0.11      0.00
  -10    2   24      1.72      0.00
   -9    2   24     -0.70      0.00
   -8    2   24     -0.80      0.00
   -7    2   24     -1.14      0.00
   -6    2   24     -0.19      0.00
   -5    2   24     -0.04      0.00
   -4    2   24      0.11      0.00
   -3    2   24     -1.09      0.00
   -2    2   24      0.29      0.00
   -1    2   24     -0.41      0.00
    0    2   24      1.81      0.00
    1    2   24      0.95      0.00
    2    2   24     -1.52      0.00
    3    2   24      0.13      0.00
    4    2   24     -0.59      0.00
    5    2   24     -0.70      0.00
    6    2   24     -0.04      0.00
  -10    3   24     -0.26      0.00
   -9    3   24      1.44      0.00
   -8    3   24      0.15      0.00
   -7    3   24     -0.44      0.00
   -6    3   24     -1.33      0.00
   -5    3   24      0.48      0.00
   -4    3   24      1.17      0.00
   -3    3   24     -1.86      0.00
   -2    3   24     -0.94      0.00
   -1    3   24      0.00      0.00
    0    3   24     -0.93      0.00
    1    3   24      1.41      0.00
    2    3   24     -0.79      0.00
    3    3   24     -0.30      0.00
    4    3   24     -3.22      0.00
    5    3   24      0.26      0.00
    6    3   24     -0.70      0.00
  -10    4   24      0.57      0.00
   -9    4   24      0.76      0.00
   -8    4   24      0.20      0.00
   -7    4   24     -0.60      0.00
   -6    4   24     -0.90      0.00
   -5    4   24     -0.34      0.00
   -4    4   24     -0.62      0.00
   -3    4   24      0.09      0.00
   -2    4   24     -0.69      0.00
   -1    4   24      0.47      0.00
    0    4   24     -0.21      0.00
    1    4   24     -0.67      0.00
    2    4   24     -0.60      0.00
    3    4   24     -2.86      0.00
    4    4   24     -0.07      0.00
    5    4   24      0.20      0.00
    6    4   24      0.83      0.00
  -10    5   24     -1.46      0.00
   -9    5   24      0.40      0.00
   -8    5   24     -0.77      0.00
   -7    5   24     -0.47      0.00
   -6    5   24      0.00      0.00
   -5    5   24     -0.50      0.00
   -4    5   24     -1.09      0.00
   -3    5   24     -0.11      0.00
   -2    5   24      0.41      0.00
   -1    5   24     -0.76      0.00
    0    5   24      1.51      0.00
    1    5   24      0.09      0.00
    2    5   24     -1.40      0.00
    3    5   24     -0.82      0.00
    4    5   24     -1.26      0.00
    5    5   24     -0.33      0.00
    6    5   24      1.13      0.00
   -9    6   24     -0.53      0.00
   -8    6   24      1.42      0.00
   -7    6   24      0.79      0.00
   -6    6   24     -0.52      0.00
   -5    6   24     -0.73      0.00
   -4    6   24     -0.61      0.00
   -3    6   24      0.23      0.00
   -2    6   24     -0.54      0.00
   -1    6   24      0.12      0.00
    0    6   24     -0.09      0.00
    1    6   24     -1.14      0.00
    2    6   24      0.31      0.00
    3    6   24      0.50      0.00
    4    6   24      0.57      0.00
    5    6   24     -0.88      0.00
    6    6   24     -1.44      0.00
   -9    7   24     -0.11      0.00
   -8    7   24     -0.42      0.00
   -7    7   24     -2.16      0.00
   -6    7   24      0.04      0.00
   -5    7   24     -0.20      0.00
   -4    7   24     -0.29      0.00
   -3    7   24     -1.64      0.00
   -2    7   24      1.20      0.00
   -1    7   24      0.67      0.00
    0    7   24      0.95      0.00
    1    7   24      0.86      0.00
    2    7   24     -0.55      0.00
    3    7   24      0.83      0.00
    4    7   24     -0.55      0.00
    5    7   24      1.60      0.00
   -9    8   24      0.06      0.00
   -8    8   24     -1.40      0.00
   -7    8   24      0.47      0.00
   -6    8   24      0.34      0.00
   -5    8   24     -0.21      0.00
   -4    8   24     -1.57      0.00
   -3    8   24      0.34      0.00
   -2    8   24      0.52      0.00
   -1    8   24      0.91      0.00
    0    8   24      1.64      0.00
    1    8   24      3.12      0.00
    2    8   24     -0.86      0.00
    3    8   24      0.99      0.00
    4    8   24     -1.29      0.00
    5    8   24     -2.23      0.00
   -8    9   24     -0.48      0.00
   -7    9   24      0.10      0.00
   -6    9   24     -2.22      0.00
   -5    9   24     -0.88      0.00
   -4    9   24     -1.57      0.00
   -3    9   24     -1.91      0.00
   -2    9   24      2.03      0.00
   -1    9   24     -0.28      0.00
    0    9   24      2.20      0.00
    1    9   24     -0.10      0.00
    2    9   24      0.84      0.00
    3    9   24     -1.06      0.00
    4    9   24      1.21      0.00
    5    9   24     -0.41      0.00
   -8   10   24     -0.02      0.00
   -7   10   24     -0.75      0.00
   -6   10   24     -0.56      0.00
   -5   10   24      0.80      0.00
   -4   10   24     -0.82      0.00
   -3   10   24      1.11      0.00
   -2   10   24      0.38      0.00
   -1   10   24      2.42      0.00
    0   10   24      0.73      0.00
    1   10   24     -0.75      0.00
    2   10   24      0.26      0.00
    3   10   24      2.76      0.00
    4   10   24      1.47      0.00
   -7   11   24      0.51      0.00
   -6   11   24     -1.12      0.00
   -5   11   24      0.03      0.00
   -4   11   24     -0.48      0.00
   -3   11   24      0.52      0.00
   -2   11   24      0.33      0.00
   -1   11   24     -0.11      0.00
    0   11   24      0.23      0.00
    1   11   24      0.07      0.00
    2   11   24     -0.48      0.00
    3   11   24      1.78      0.00
   -6   12   24     -0.21      0.00
   -5   12   24     -0.48      0.00
   -4   12   24     -0.84      0.00
   -3   12   24     -0.05      0.00
   -2   12   24      0.87      0.00
   -1   12   24     -0.19      0.00
    0   12   24     -1.06      0.00
    1   12   24      0.52      0.00
    2   12   24      0.95      0.00
   -5   13   24     -0.57      0.00
   -4   13   24      0.77      0.00
   -3   13   24     -0.17      0.00
   -2   13   24      0.35      0.00
   -1   13   24      0.64      0.00
    0   13   24      1.02      0.00
    1   13   24      0.31      0.00
   -2   14   24      0.07      0.00
   -1   14   24      0.01      0.00
   -9    0   25     -0.18      0.00
   -7    0   25      0.65      0.00
   -5    0   25     -0.48      0.00
   -3    0   25      0.48      0.00
   -1    0   25      1.10      0.00
    1    0   25     -0.64      0.00
    3    0   25     -3.16      0.00
    5    0   25      0.48      0.00
  -10    1   25      0.32      0.00
   -9    1   25     -1.23      0.00
   -8    1   25     -1.36      0.00
   -7    1   25      0.33      0.00
   -6    1   25     -0.40      0.00
   -5    1   25     -0.47      0.00
   -4    1   25      0.30      0.00
   -3    1   25      0.44      0.00
   -2    1   25      0.43      0.00
   -1    1   25     -0.37      0.00
    0    1   25      0.02      0.00
    1    1   25     -3.64      0.00
    2    1   25     -1.09      0.00
    3    1   25     -0.54      0.00
    4    1   25     -1.10      0.00
    5    1   25     -0.91      0.00
    6    1   25      1.79      0.00
  -10    2   25      0.84      0.00
   -9    2   25     -0.76      0.00
   -8    2   25     -0.25      0.00
   -7    2   25     -0.33      0.00
   -6    2   25      1.42      0.00
   -5    2   25      2.14      0.00
   -4    2   25     -0.34      0.00
   -3    2   25     -0.02      0.00
   -2    2   25     -0.29      0.00
   -1    2   25     -1.13      0.00
    0    2   25     -0.18      0.00
    1    2   25     -0.67      0.00
    2    2   25     -1.23      0.00
    3    2   25      0.18      0.00
    4    2   25      0.47      0.00
    5    2   25      1.49      0.00
    6    2   25     -0.33      0.00
   -9    3   25      0.87      0.00
   -8    3   25     -1.36      0.00
   -7    3   25     -0.18      0.00
   -6    3   25      0.03      0.00
   -5    3   25      1.06      0.00
   -4    3   25      1.25      0.00
   -3    3   25     -0.17      0.00
   -2    3   25      0.18      0.00
   -1    3   25     -0.28      0.00
    0    3   25     -0.62      0.00
    1    3   25      1.20      0.00
    2    3   25     -0.76      0.00
    3    3   25     -0.41      0.00
    4    3   25      0.04      0.00
    5    3   25      1.26      0.00
    6    3   25      0.87      0.00
   -9    4   25      0.31      0.00
   -8    4   25     -0.81      0.00
   -7    4   25      0.78      0.00
   -6    4   25      1.08      0.00
   -5    4   25     -1.34      0.00
   -4    4   25      0.72      0.00
   -3    4   25      0.97      0.00
   -2    4   25     -1.52      0.00
   -1    4   25      0.31      0.00
    0    4   25      0.42      0.00
    1    4   25      0.26      0.00
    2    4   25      0.35      0.00
    3    4   25      0.12      0.00
    4    4   25      0.88      0.00
    5    4   25      0.46      0.00
    6    4   25     -0.25      0.00
   -9    5   25      0.75      0.00
   -8    5   25      0.48      0.00
   -7    5   25      0.89      0.00
   -6    5   25     -1.06      0.00
   -5    5   25      0.32      0.00
   -4    5   25     -0.43      0.00
   -3    5   25     -0.55      0.00
   -2    5   25     -1.93      0.00
   -1    5   25     -0.09      0.00
    0    5   25     -0.19      0.00
    1    5   25      1.24      0.00
    2    5   25      1.56      0.00
    3    5   25      0.04      0.00
    4    5   25      0.42      0.00
    5    5   25     -0.51      0.00
    6    5   25      1.43      0.00
   -9    6   25     -0.48      0.00
   -8    6   25     -0.24      0.00
   -7    6   25     -0.22      0.00
   -6    6   25      0.52      0.00
   -5    6   25     -0.63      0.00
   -4    6   25     -0.80      0.00
   -3    6   25     -2.81      0.00
   -2    6   25      0.93      0.00
   -1    6   25     -0.15      0.00
    0    6   25      0.52      0.00
    1    6   25      1.31      0.00
    2    6   25      0.17      0.00
    3    6   25      0.01      0.00
    4    6   25      0.56      0.00
    5    6   25     -0.53      0.00
   -8    7   25      1.02      0.00
   -7    7   25      1.72      0.00
   -6    7   25      1.82      0.00
   -5    7   25      0.15      0.00
   -4    7   25     -0.89      0.00
   -3    7   25     -0.02      0.00
   -2    7   25      0.35      0.00
   -1    7   25      0.18      0.00
    0    7   25      0.20      0.00
    1    7   25     -0.15      0.00
    2    7   25     -2.70      0.00
    3    7   25      1.15      0.00
    4    7   25     -1.34      0.00
    5    7   25      1.61      0.00
   -8    8   25      1.06      0.00
   -7    8   25      0.57      0.00
   -6    8   25     -1.05      0.00
   -5    8   25      0.82      0.00
   -4    8   25     -0.34      0.00
   -3    8   25     -0.41      0.00
   -2    8   25      1.47      0.00
   -1    8   25     -0.48      0.00
    0    8   25      0.82      0.00
    1    8   25     -0.69      0.00
    2    8   25     -0.79      0.00
    3    8   25      0.26      0.00
    4    8   25      0.75      0.00
   -8    9   25     -0.13      0.00
   -7    9   25      1.29      0.00
   -6    9   25      1.07      0.00
   -5    9   25      1.00      0.00
   -4    9   25     -0.37      0.00
   -3    9   25      0.47      0.00
   -2    9   25      1.53      0.00
   -1    9   25     -0.04      0.00
    0    9   25     -0.96      0.00
    1    9   25      0.43      0.00
    2    9   25      1.64      0.00
    3    9   25      1.58      0.00
    4    9   25      0.19      0.00
   -7   10   25     -0.13      0.00
   -6   10   25      0.22      0.00
   -5   10   25      0.47      0.00
   -4   10   25     -0.51      0.00
   -3   10   25     -0.16      0.00
   -2   10   25     -0.23      0.00
   -1   10   25     -0.42      0.00
    0   10   25      0.15      0.00
    1   10   25      0.00      0.00
    2   10   25      0.06      0.00
    3   10   25     -0.28      0.00
   -6   11   25     -1.77      0.00
   -5   11   25      0.22      0.00
   -4   11   25     -0.72      0.00
   -3   11   25      1.31      0.00
   -2   11   25      0.38      0.00
   -1   11   25      0.25      0.00
    0   11   25      1.45      0.00
    1   11   25      0.95      0.00
    2   11   25     -0.76      0.00
   -5   12   25      0.16      0.00
   -4   12   25     -0.20      0.00
   -3   12   25      0.47      0.00
   -2   12   25      1.07      0.00
   -1   12   25      1.04      0.00
    0   12   25      1.19      0.00
    1   12   25      0.43      0.00
   -3   13   25     -0.63      0.00
   -2   13   25      0.44      0.00
   -1   13   25      1.49      0.00
    0   13   25     -0.07      0.00
   -8    0   26      0.31      0.00
   -6    0   26     -1.70      0.00
   -4    0   26      0.58      0.00
   -2    0   26      0.70      0.00
    0    0   26     -0.12      0.00
    2    0   26      2.20      0.00
    4    0   26     -0.78      0.00
   -9    1   26     -0.20      0.00
   -8    1   26      0.43      0.00
   -7    1   26      0.72      0.00
   -6    1   26      0.58      0.00
   -5    1   26     -0.44      0.00
   -4    1   26     -0.83      0.00
   -3    1   26      0.37      0.00
   -2    1   26      0.15      0.00
   -1    1   26      1.63      0.00
    0    1   26      1.01      0.00
    1    1   26      0.22      0.00
    2    1   26      2.30      0.00
    3    1   26      1.14      0.00
    4    1   26     -0.18      0.00
    5    1   26     -1.52      0.00
   -9    2   26     -1.06      0.00
   -8    2   26     -1.44      0.00
   -7    2   26     -0.39      0.00
   -6    2   26     -0.69      0.00
   -5    2   26     -0.39      0.00
   -4    2   26     -1.03      0.00
   -3    2   26     -0.32      0.00
   -2    2   26     -0.26      0.00
   -1    2   26      0.33      0.00
    0    2   26      1.64      0.00
    1    2   26      0.23      0.00
    2    2   26     -2.01      0.00
    3    2   26     -0.96      0.00
    4    2   26      0.13      0.00
    5    2   26     -0.43      0.00
   -9    3   26      0.30      0.00
   -8    3   26      0.43      0.00
   -7    3   26     -0.08      0.00
   -6    3   26     -1.05      0.00
   -5    3   26     -0.85      0.00
   -4    3   26      1.56      0.00
   -3    3   26     -1.48      0.00
   -2    3   26     -0.27      0.00
   -1    3   26     -0.97      0.00
    0    3   26     -1.56      0.00
    1    3   26     -1.34      0.00
    2    3   26     -2.29      0.00
    3    3   26     -0.07      0.00
    4    3   26     -3.23      0.00
    5    3   26      0.78      0.00
   -9    4   26      1.46      0.00
   -8    4   26     -0.20      0.00
   -7    4   26     -0.23      0.00
   -6    4   26     -1.65      0.00
   -5    4   26      0.28      0.00
   -4    4   26      1.08      0.00
   -3    4   26     -0.26      0.00
   -2    4   26     -0.98      0.00
   -1    4   26      0.25      0.00
    0    4   26     -1.74      0.00
    1    4   26     -0.79      0.00
    2    4   26     -1.24      0.00
    3    4   26     -2.15      0.00
    4    4   26      0.04      0.00
    5    4   26     -2.00      0.00
   -9    5   26      1.07      0.00
   -8    5   26      0.01      0.00
   -7    5   26     -0.81      0.00
   -6    5   26      0.43      0.00
   -5    5   26      0.14      0.00
   -4    5   26     -1.67      0.00
   -3    5   26      0.43      0.00
   -2    5   26      1.68      0.00
   -1    5   26     -1.13      0.00
    0    5   26     -0.43      0.00
    1    5   26     -0.57      0.00
    2    5   26     -1.31      0.00
    3    5   26     -1.98      0.00
    4    5   26     -2.16      0.00
    5    5   26      0.28      0.00
   -8    6   26      0.76      0.00
   -7    6   26      0.90      0.00
   -6    6   26      0.32      0.00
   -5    6   26     -0.61      0.00
   -4    6   26      0.62      0.00
   -3    6   26      0.69      0.00
   -2    6   26     -0.86      0.00
   -1    6   26     -1.59      0.00
    0    6   26     -1.85      0.00
    1    6   26     -1.43      0.00
    2    6   26      0.36      0.00
    3    6   26      0.34      0.00
    4    6   26      0.24      0.00
   -8    7   26     -0.32      0.00
   -7    7   26     -2.01      0.00
   -6    7   26     -0.26      0.00
   -5    7   26      0.11      0.00
   -4    7   26      0.07      0.00
   -3    7   26     -1.59      0.00
   -2    7   26     -0.26      0.00
   -1    7   26     -0.91      0.00
    0    7   26     -1.04      0.00
    1    7   26      0.79      0.00
    2    7   26     -0.04      0.00
    3    7   26      0.62      0.00
    4    7   26     -0.30      0.00
   -7    8   26      0.73      0.00
   -6    8   26     -0.41      0.00
   -5    8   26      1.01      0.00
   -4    8   26     -0.69      0.00
   -3    8   26      0.11      0.00
   -2    8   26     -0.46      0.00
   -1    8   26     -0.04      0.00
    0    8   26      0.99      0.00
    1    8   26      2.69      0.00
    2    8   26     -0.07      0.00
    3    8   26     -0.16      0.00
    4    8   26     -1.69      0.00
   -7    9   26     -0.38      0.00
   -6    9   26     -0.35      0.00
   -5    9   26     -0.31      0.00
   -4    9   26     -0.22      0.00
   -3    9   26     -2.58      0.00
   -2    9   26      1.27      0.00
   -1    9   26     -1.19      0.00
    0    9   26      2.81      0.00
    1    9   26      1.14      0.00
    2    9   26      0.17      0.00
    3    9   26     -0.82      0.00
   -6   10   26     -0.07      0.00
   -5   10   26      1.39      0.00
   -4   10   26     -0.81      0.00
   -3   10   26      0.96      0.00
   -2   10   26     -1.12      0.00
   -1   10   26      2.36      0.00
    0   10   26      1.10      0.00
    1   10   26      0.11      0.00
    2   10   26      0.55      0.00
   -5   11   26      0.61      0.00
   -4   11   26     -0.46      0.00
   -3   11   26      0.26      0.00
   -2   11   26      0.19      0.00
   -1   11   26      0.04      0.00
    0   11   26      0.63      0.00
    1   11   26     -0.66      0.00
   -4   12   26     -0.72      0.00
   -3   12   26     -0.96      0.00
   -2   12   26      0.98      0.00
   -1   12   26      0.37      0.00
    0   12   26     -1.49      0.00
   -9    0   27      0.09      0.00
   -7    0   27      0.64      0.00
   -5    0   27     -0.26      0.00
   -3    0   27      0.87      0.00
   -1    0   27     -0.49      0.00
    1    0   27      0.52      0.00
    3    0   27     -1.93      0.00
    5    0   27     -1.08      0.00
   -9    1   27     -1.25      0.00
   -8    1   27     -0.61      0.00
   -7    1   27      0.45      0.00
   -6    1   27     -0.48      0.00
   -5    1   27     -0.25      0.00
   -4    1   27      1.15      0.00
   -3    1   27     -0.37      0.00
   -2    1   27     -0.03      0.00
   -1    1   27      0.68      0.00
    0    1   27      0.44      0.00
    1    1   27     -3.06      0.00
    2    1   27     -0.71      0.00
    3    1   27     -1.05      0.00
    4    1   27     -1.55      0.00
    5    1   27     -2.25      0.00
   -9    2   27     -0.09      0.00
   -8    2   27      0.60      0.00
   -7    2   27      0.43      0.00
   -6    2   27     -0.16      0.00
   -5    2   27      1.57      0.00
   -4    2   27      0.20      0.00
   -3    2   27      0.08      0.00
   -2    2   27     -0.56      0.00
   -1    2   27     -0.72      0.00
    0    2   27      0.09      0.00
    1    2   27     -0.41      0.00
    2    2   27     -0.60      0.00
    3    2   27      0.62      0.00
    4    2   27      0.21      0.00
    5    2   27      0.97      0.00
   -8    3   27     -1.08      0.00
   -7    3   27     -0.30      0.00
   -6    3   27      0.64      0.00
   -5    3   27      2.11      0.00
   -4    3   27      0.57      0.00
   -3    3   27     -0.93      0.00
   -2    3   27     -0.27      0.00
   -1    3   27      0.24      0.00
    0    3   27      0.61      0.00
    1    3   27      1.35      0.00
    2    3   27      0.67      0.00
    3    3   27     -0.28      0.00
    4    3   27     -0.78      0.00
   -8    4   27     -1.47      0.00
   -7    4   27      0.64      0.00
   -6    4   27      1.01      0.00
   -5    4   27     -1.55      0.00
   -4    4   27      0.23      0.00
   -3    4   27      0.22      0.00
   -2    4   27     -0.62      0.00
   -1    4   27     -0.38      0.00
    0    4   27      1.20      0.00
    1    4   27      0.86      0.00
    2    4   27     -1.06      0.00
    3    4   27     -0.34      0.00
    4    4   27      1.02      0.00
   -8    5   27      0.22      0.00
   -7    5   27      0.63      0.00
   -6    5   27     -1.14      0.00
   -5    5   27     -1.15      0.00
   -4    5   27     -1.05      0.00
   -3    5   27     -0.21      0.00
   -2    5   27     -2.93      0.00
   -1    5   27      0.16      0.00
    0    5   27     -0.73      0.00
    1    5   27      1.18      0.00
    2    5   27      1.20      0.00
    3    5   27     -0.21      0.00
    4    5   27      1.02      0.00
   -8    6   27     -0.17      0.00
   -7    6   27     -0.29      0.00
   -6    6   27     -0.37      0.00
   -5    6   27     -1.23      0.00
   -4    6   27     -1.43      0.00
   -3    6   27     -5.24      0.00
   -2    6   27      1.04      0.00
   -1    6   27      0.40      0.00
    0    6   27      0.81      0.00
    1    6   27      1.03      0.00
    2    6   27      0.31      0.00
    3    6   27     -0.04      0.00
    4    6   27      0.43      0.00
   -7    7   27      1.15      0.00
   -6    7   27      0.98      0.00
   -5    7   27     -0.36      0.00
   -4    7   27     -1.73      0.00
   -3    7   27     -0.02      0.00
   -2    7   27      0.45      0.00
   -1    7   27      1.16      0.00
    0    7   27     -1.16      0.00
    1    7   27      0.40      0.00
    2    7   27     -2.72      0.00
    3    7   27      1.09      0.00
   -7    8   27      1.17      0.00
   -6    8   27     -1.74      0.00
   -5    8   27      0.40      0.00
   -4    8   27     -1.80      0.00
   -3    8   27     -1.04      0.00
   -2    8   27      2.36      0.00
   -1    8   27      0.48      0.00
    0    8   27      0.78      0.00
    1    8   27     -3.03      0.00
    2    8   27     -0.36      0.00
    3    8   27     -0.27      0.00
   -6    9   27      0.86      0.00
   -5    9   27     -1.10      0.00
   -4    9   27     -0.59      0.00
   -3    9   27     -0.72      0.00
   -2    9   27      1.35      0.00
   -1    9   27      0.55      0.00
    0    9   27     -1.54      0.00
    1    9   27      0.38      0.00
    2    9   27      0.40      0.00
   -5   10   27      0.50      0.00
   -4   10   27     -1.10      0.00
   -3   10   27      0.16      0.00
   -2   10   27      0.00      0.00
   -1   10   27     -0.64      0.00
    0   10   27     -1.03      0.00
    1   10   27     -0.65      0.00
   -4   11   27     -0.96      0.00
   -3   11   27      0.98      0.00
   -2   11   27      0.61      0.00
   -1   11   27     -0.74      0.00
    0   11   27      0.23      0.00
   -8    0   28      0.00      0.00
   -4    0   28     -0.49      0.00
   -2    0   28      2.11      0.00
    0    0   28     -0.06      0.00
    2    0   28      1.70      0.00
    4    0   28     -0.41      0.00
   -8    1   28      0.39      0.00
   -7    1   28     -0.53      0.00
   -6    1   28     -0.03      0.00
   -5    1   28     -0.16      0.00
   -4    1   28     -0.33      0.00
   -3    1   28     -0.16      0.00
   -2    1   28      0.84      0.00
   -1    1   28      1.31      0.00
    0    1   28      0.19      0.00
    1    1   28      0.14      0.00
    2    1   28      1.76      0.00
    3    1   28      1.76      0.00
    4    1   28      0.00      0.00
   -8    2   28     -1.49      0.00
   -7    2   28      0.27      0.00
   -6    2   28     -0.67      0.00
   -5    2   28     -0.84      0.00
   -4    2   28     -0.99      0.00
   -3    2   28      0.84      0.00
   -2    2   28     -0.57      0.00
   -1    2   28      0.69      0.00
    0    2   28      1.15      0.00
    1    2   28      0.29      0.00
    2    2   28     -1.39      0.00
    3    2   28     -1.28      0.00
    4    2   28      0.75      0.00
   -8    3   28      0.28      0.00
   -7    3   28      0.09      0.00
   -6    3   28     -0.41      0.00
   -5    3   28     -1.22      0.00
   -4    3   28      0.42      0.00
   -3    3   28     -0.08      0.00
   -2    3   28      0.00      0.00
   -1    3   28     -0.71      0.00
    0    3   28     -0.99      0.00
    1    3   28     -2.87      0.00
    2    3   28     -1.97      0.00
    3    3   28     -0.43      0.00
    4    3   28     -2.74      0.00
   -8    4   28     -0.47      0.00
   -7    4   28      0.09      0.00
   -6    4   28     -2.05      0.00
   -5    4   28      0.19      0.00
   -4    4   28      3.67      0.00
   -3    4   28     -0.20      0.00
   -2    4   28     -0.79      0.00
   -1    4   28     -0.56      0.00
    0    4   28     -1.42      0.00
    1    4   28     -0.21      0.00
    2    4   28     -1.76      0.00
    3    4   28     -0.66      0.00
    4    4   28      0.48      0.00
   -7    5   28     -0.63      0.00
   -6    5   28      0.59      0.00
   -5    5   28      1.06      0.00
   -4    5   28     -1.56      0.00
   -3    5   28      1.43      0.00
   -2    5   28      2.24      0.00
   -1    5   28     -0.35      0.00
    0    5   28     -0.88      0.00
    1    5   28      0.11      0.00
    2    5   28     -0.33      0.00
    3    5   28     -2.21      0.00
   -7    6   28      0.50      0.00
   -6    6   28      0.86      0.00
   -5    6   28      0.14      0.00
   -4    6   28      2.21      0.00
   -3    6   28      0.42      0.00
   -2    6   28      0.21      0.00
   -1    6   28     -2.19      0.00
    0    6   28     -1.63      0.00
    1    6   28     -0.18      0.00
    2    6   28      0.14      0.00
    3    6   28      0.75      0.00
   -6    7   28     -0.39      0.00
   -5    7   28      0.70      0.00
   -4    7   28      0.47      0.00
   -3    7   28     -0.23      0.00
   -2    7   28     -1.19      0.00
   -1    7   28     -1.45      0.00
    0    7   28     -2.49      0.00
    1    7   28      0.64      0.00
    2    7   28      0.65      0.00
   -6    8   28     -0.52      0.00
   -5    8   28      1.39      0.00
   -4    8   28      0.14      0.00
   -3    8   28     -0.24      0.00
   -2    8   28     -0.27      0.00
   -1    8   28     -0.34      0.00
    0    8   28     -0.47      0.00
    1    8   28      1.68      0.00
    2    8   28      0.38      0.00
   -5    9   28      0.35      0.00
   -4    9   28      1.00      0.00
   -3    9   28     -2.29      0.00
   -2    9   28      0.72      0.00
   -1    9   28     -1.66      0.00
    0    9   28      2.45      0.00
    1    9   28      0.89      0.00
   -3   10   28      0.71      0.00
   -2   10   28     -1.96      0.00
   -1   10   28      1.25      0.00
   -7    0   29      0.57      0.00
   -3    0   29     -0.02      0.00
   -1    0   29     -1.44      0.00
    1    0   29      1.14      0.00
    3    0   29     -0.14      0.00
   -7    1   29      0.12      0.00
   -5    1   29      0.34      0.00
   -4    1   29      1.56      0.00
   -3    1   29     -1.24      0.00
   -2    1   29     -0.68      0.00
   -1    1   29      1.46      0.00
    0    1   29      0.88      0.00
    1    1   29     -1.54      0.00
    2    1   29     -0.01      0.00
    3    1   29     -0.51      0.00
   -7    2   29      0.51      0.00
   -6    2   29     -1.03      0.00
   -5    2   29     -0.06      0.00
   -4    2   29      0.20      0.00
   -3    2   29      0.05      0.00
   -2    2   29     -0.73      0.00
   -1    2   29     -0.51      0.00
    0    2   29      0.07      0.00
    1    2   29     -0.13      0.00
    2    2   29     -0.22      0.00
    3    2   29      0.76      0.00
   -7    3   29     -0.12      0.00
   -6    3   29      0.48      0.00
   -5    3   29      2.56      0.00
   -4    3   29     -0.35      0.00
   -3    3   29     -1.46      0.00
   -2    3   29     -1.33      0.00
   -1    3   29      0.72      0.00
    0    3   29      0.74      0.00
    1    3   29      0.13      0.00
    2    3   29      1.01      0.00
    3    3   29      0.03      0.00
   -7    4   29      0.58      0.00
   -6    4   29      0.63      0.00
   -5    4   29     -1.00      0.00
   -4    4   29     -0.26      0.00
   -3    4   29     -0.96      0.00
   -2    4   29     -0.06      0.00
   -1    4   29     -1.37      0.00
    0    4   29      1.43      0.00
    1    4   29      0.17      0.00
    2    4   29     -2.17      0.00
   -6    5   29     -0.38      0.00
   -5    5   29     -1.98      0.00
   -4    5   29     -1.79      0.00
   -3    5   29      0.31      0.00
   -2    5   29     -2.92      0.00
   -1    5   29      0.00      0.00
    0    5   29     -1.54      0.00
    1    5   29      0.09      0.00
    2    5   29      0.09      0.00
   -6    6   29     -0.72      0.00
   -5    6   29     -1.30      0.00
   -4    6   29     -1.46      0.00
   -3    6   29     -5.99      0.00
   -2    6   29      0.82      0.00
   -1    6   29     -0.32      0.00
    0    6   29      0.47      0.00
    1    6   29      0.17      0.00
    2    6   29     -0.34      0.00
   -5    7   29     -0.67      0.00
   -4    7   29     -1.79      0.00
   -3    7   29      0.16      0.00
   -2    7   29     -0.11      0.00
   -1    7   29      1.02      0.00
    0    7   29     -2.40      0.00
    1    7   29      1.22      0.00
   -4    8   29     -2.16      0.00
   -3    8   29     -1.37      0.00
   -2    8   29      2.65      0.00
   -1    8   29      0.68      0.00
    0    8   29      0.43      0.00
   -2    9   29      0.49      0.00
   -4    0   30     -0.88      0.00
   -2    0   30      2.29      0.00
    0    0   30     -0.17      0.00
    2    0   30      1.14      0.00
   -5    1   30      0.13      0.00
   -4    1   30      0.20      0.00
   -3    1   30     -0.47      0.00
   -2    1   30      0.34      0.00
   -1    1   30      0.20      0.00
    0    1   30     -0.12      0.00
    1    1   30      0.05      0.00
    2    1   30      1.17      0.00
   -5    2   30     -1.08      0.00
   -4    2   30     -0.18      0.00
   -3    2   30      1.02      0.00
   -2    2   30     -0.61      0.00
   -1    2   30      0.83      0.00
    0    2   30      0.47      0.00
    1    2   30      0.74      0.00
    2    2   30     -0.26      0.00
   -6    3   30     -0.38      0.00
   -5    3   30     -0.69      0.00
   -4    3   30     -1.22      0.00
   -3    3   30      0.77      0.00
   -2    3   30     -0.20      0.00
   -1    3   30      0.01      0.00
    0    3   30     -0.01      0.00
    1    3   30     -2.24      0.00
    2    3   30     -0.05      0.00
   -6    4   30     -1.76      0.00
   -5    4   30     -0.55      0.00
   -4    4   30      4.30      0.00
   -3    4   30     -0.01      0.00
   -2    4   30     -0.87      0.00
   -1    4   30     -0.86      0.00
    0    4   30     -0.31      0.00
    1    4   30      0.57      0.00
   -5    5   30      0.83      0.00
   -4    5   30     -1.12      0.00
   -3    5   30      1.45      0.00
   -2    5   30      1.85      0.00
   -1    5   30      0.24      0.00
    0    5   30     -0.28      0.00
    1    5   30      0.74      0.00
   -4    6   30      2.21      0.00
   -3    6   30     -0.31      0.00
   -2    6   30      0.60      0.00
   -1    6   30     -1.78      0.00
    0    6   30     -0.49      0.00
   -3    7   30      0.48      0.00
   -2    7   30     -1.11      0.00
   -1    7   30     -1.29      0.00
   -3    0   31     -0.67      0.00
   -1    0   31     -0.74      0.00
    1    0   31      1.04      0.00
   -4    1   31      1.71      0.00
   -3    1   31     -1.30      0.00
   -2    1   31     -0.24      0.00
   -1    1   31      1.45      0.00
    0    1   31      1.08      0.00
    1    1   31     -0.21      0.00
   -5    2   31     -0.92      0.00
   -4    2   31      0.00      0.00
   -3    2   31      0.35      0.00
   -2    2   31     -0.38      0.00
   -1    2   31     -0.28      0.00
    0    2   31     -0.08      0.00
   -4    3   31     -0.34      0.00
   -3    3   31     -1.28      0.00
   -2    3   31     -1.64      0.00
   -1    3   31      0.89      0.00
    0    3   31      0.37      0.00
   -4    4   31     -0.33      0.00
   -3    4   31     -1.02      0.00
   -2    4   31     -0.01      0.00
   -1    4   31     -1.30      0.00
   -3    5   31      0.39      0.00
   -2    5   31     -1.79      0.00
    4    0    0      1.38      0.00
   12    0    0     -4.00      0.00
   13    1    0      0.91      0.00
    1    2    0    -11.30      0.00
   13    2    0     -1.34      0.00
   13    3    0     -1.30      0.00
    9   16    0      0.62      0.00
    4   20    0      1.32      0.00
    5   20    0      0.08      0.00
    3   21    0      0.64      0.00
  -13    0    1      2.93      0.00
    1    0    1    -88.42      0.00
   13    0    1      4.02      0.00
  -13    1    1      0.30      0.00
  -12    1    1      0.99      0.00
   13    1    1     -0.35      0.00
  -13    2    1      2.73      0.00
  -12    2    1     -2.07      0.00
   -1    2    1      1.87      0.00
   13    2    1      1.11      0.00
  -13    3    1      0.89      0.00
  -13    4    1      0.84      0.00
   13    5    1     -2.24      0.00
  -13    6    1     -2.11      0.00
  -12   10    1     -0.16      0.00
   11   12    1     -0.28      0.00
   -9   16    1     -1.14      0.00
   -5   20    1     -0.42      0.00
   -4   20    1     -0.55      0.00
   -3   20    1     -1.78      0.00
    4   20    1      0.64      0.00
   -3   21    1      1.26      0.00
    1   21    1     -0.74      0.00
    2   21    1     -3.46      0.00
  -12    0    2     -2.66      0.00
  -13    1    2     -0.15      0.00
  -12    1    2     -1.40      0.00
  -13    2    2      0.47      0.00
  -12    2    2     -1.72      0.00
  -13    3    2     -1.54      0.00
  -13    4    2      2.52      0.00
   13    4    2     -4.87      0.00
  -13    6    2      0.71      0.00
   12    9    2      0.21      0.00
  -12   10    2      0.70      0.00
   11   12    2     -0.92      0.00
   10   14    2      1.02      0.00
   -9   16    2     -0.80      0.00
    8   17    2      0.62      0.00
    6   19    2     -1.46      0.00
   -5   20    2     -0.64      0.00
   -4   20    2      1.86      0.00
   -3   20    2      0.32      0.00
   -3   21    2      0.72      0.00
   -2   21    2     -0.81      0.00
    0   21    2     -0.06      0.00
    1   21    2      1.05      0.00
    2   21    2      1.19      0.00
  -13    0    3      1.47      0.00
    3    0    3     -0.60      0.00
  -13    1    3     -0.22      0.00
  -12    1    3      2.57      0.00
    3    1    3      5.59      0.00
  -13    2    3      3.77      0.00
  -12    2    3     -0.86      0.00
  -13    3    3      1.04      0.00
   13    3    3     -0.13      0.00
  -13    4    3      0.65      0.00
   13    4    3      0.63      0.00
   12    9    3      0.83      0.00
  -12   10    3     -0.96      0.00
   -9   16    3     -1.45      0.00
    7   17    3     -1.98      0.00
    8   17    3      0.18      0.00
    7   18    3      1.24      0.00
    6   19    3     -0.32      0.00
   -5   20    3     -0.20      0.00
   -4   20    3     -0.31      0.00
   -3   20    3     -1.40      0.00
   -3   21    3      1.57      0.00
   -2   21    3     -2.06      0.00
   -1   21    3      0.21      0.00
    1   21    3     -0.74      0.00
    2   21    3     -2.75      0.00
  -12    0    4     -0.31      0.00
  -13    1    4     -0.36      0.00
  -12    1    4     -2.06      0.00
    3    1    4      3.71      0.00
   13    1    4      0.28      0.00
  -13    2    4     -0.90      0.00
   13    2    4     -0.43      0.00
  -13    3    4     -1.35      0.00
   13    3    4      0.50      0.00
  -13    4    4      0.68      0.00
  -12   10    4     -0.01      0.00
   -9   16    4     -0.46      0.00
   -5   20    4     -1.34      0.00
   -4   20    4      1.25      0.00
   -3   20    4      0.98      0.00
    4   20    4      0.08      0.00
   -2   21    4     -0.44      0.00
   -1   21    4     -0.46      0.00
    1   21    4     -0.22      0.00
    2   21    4      1.23      0.00
  -13    0    5      0.18      0.00
   13    0    5      3.57      0.00
  -13    1    5     -0.90      0.00
  -13    2    5      3.45      0.00
  -13    3    5     -0.11      0.00
  -13    4    5     -0.28      0.00
  -13    5    5      0.34      0.00
    0    5    5     -1.62      0.00
   12    6    5     -0.72      0.00
   12    8    5     -2.21      0.00
   11   11    5      0.46      0.00
    9   15    5     -0.19      0.00
   -9   16    5     -1.00      0.00
   -4   20    5     -0.65      0.00
   -3   20    5     -0.79      0.00
   -2   20    5     -0.32      0.00
    3   20    5     -2.43      0.00
    4   20    5      0.49      0.00
   -2   21    5     -1.05      0.00
   -1   21    5     -0.09      0.00
    0   21    5      1.78      0.00
    1   21    5     -0.26      0.00
    2    0    6     -5.78      0.00
  -13    1    6      0.59      0.00
  -13    2    6     -1.11      0.00
    1    4    6     16.57      0.00
    2    4    6      0.70      0.00
  -13    5    6     -1.74      0.00
    1    5    6     12.93      0.00
   12    7    6     -1.21      0.00
  -12   10    6     -0.97      0.00
   10   13    6     -1.60      0.00
   -9   16    6      0.00      0.00
    5   19    6     -0.74      0.00
   -4   20    6      0.21      0.00
   -3   20    6      1.63      0.00
   -2   20    6     -0.64      0.00
   -1   20    6      1.79      0.00
    3   20    6      0.27      0.00
   -2   21    6      0.21      0.00
   -1   21    6     -0.03      0.00
    0   21    6      0.33      0.00
    1   21    6     -1.08      0.00
    5    2    7      0.75      0.00
    1    3    7      5.43      0.00
    6    3    7      2.08      0.00
  -13    5    7     -0.85      0.00
   12    6    7      0.62      0.00
  -12   10    7     -2.14      0.00
   -9   16    7      0.02      0.00
    8   16    7     -0.20      0.00
   -6   19    7     -1.08      0.00
    4   19    7     -0.89      0.00
    5   19    7     -0.67      0.00
   -4   20    7     -1.25      0.00
   -3   20    7     -0.05      0.00
   -2   20    7      0.00      0.00
   -1   20    7      1.29      0.00
    0   20    7     -0.23      0.00
    3   20    7     -1.97      0.00
   -1   21    7     -0.17      0.00
    0   21    7      1.03      0.00
   12    0    8      2.85      0.00
   12    1    8      0.64      0.00
   12    2    8     -0.96      0.00
   12    3    8      1.62      0.00
   12    4    8      2.16      0.00
  -13    5    8     -1.13      0.00
   12    5    8     -0.15      0.00
  -13    6    8     -0.03      0.00
  -12   10    8     -1.11      0.00
   10   12    8     -0.49      0.00
    9   14    8      1.65      0.00
   -8   17    8     -0.30      0.00
    7   17    8      1.02      0.00
   -7   18    8     -1.66      0.00
    6   18    8      0.58      0.00
   -6   19    8     -0.57      0.00
    4   19    8      1.33      0.00
   -4   20    8     -0.18      0.00
   -3   20    8      1.91      0.00
   -2   20    8     -0.12      0.00
   -1   20    8      0.69      0.00
    0   20    8     -0.57      0.00
    1   20    8      1.24      0.00
    3   20    8      0.05      0.00
   12    1    9      0.65      0.00
    5    2    9      0.37      0.00
   12    2    9      0.36      0.00
   12    3    9      1.17      0.00
   12    4    9      1.67      0.00
  -13    6    9     -0.03      0.00
   11    8    9      0.11      0.00
   11    9    9     -0.89      0.00
  -12   10    9     -1.16      0.00
   10   11    9     -1.49      0.00
   -8   17    9     -1.05      0.00
   -7   18    9      0.21      0.00
    5   18    9     -1.28      0.00
    4   19    9     -1.65      0.00
   -4   20    9     -1.10      0.00
   -3   20    9      0.40      0.00
   -2   20    9      0.69      0.00
   -1   20    9      0.85      0.00
    0   20    9      0.04      0.00
    1   20    9     -0.16      0.00
    2   20    9     -0.91      0.00
    6    0   10      1.85      0.00
   12    0   10      2.45      0.00
    5    1   10      5.69      0.00
   12    1   10      1.24      0.00
   12    2   10     -0.76      0.00
   12    3   10      0.56      0.00
  -13    6   10     -0.33      0.00
   -4    7   10     -1.39      0.00
   11    7   10     -0.16      0.00
   -4    8   10     -2.73      0.00
   11    8   10      1.29      0.00
   10   10   10     -0.91      0.00
   10   11   10      0.98      0.00
  -11   12   10     -0.89      0.00
    9   13   10      1.61      0.00
  -10   14   10     -0.28      0.00
    8   15   10      0.85      0.00
    5   18   10      1.33      0.00
   -2   19   10      1.55      0.00
    1   19   10     -1.56      0.00
    2   19   10     -1.21      0.00
    4   19   10      0.62      0.00
   -3   20   10      1.37      0.00
   -2   20   10      0.39      0.00
   -1   20   10     -0.43      0.00
    0   20   10     -0.92      0.00
    1   20   10      1.15      0.00
    2   20   10     -1.48      0.00
  -13    5   11     -1.06      0.00
   11    5   11     -0.80      0.00
   11    6   11      0.32      0.00
   -4    7   11      2.72      0.00
   11    7   11     -0.49      0.00
   10   10   11      0.76      0.00
  -11   12   11     -1.62      0.00
    9   12   11      0.52      0.00
    8   14   11     -0.96      0.00
    7   16   11     -1.56      0.00
    6   17   11     -1.02      0.00
    5   18   11     -1.56      0.00
   -5   19   11      0.07      0.00
   -2   19   11     -1.62      0.00
   -1   19   11     -1.36      0.00
    0   19   11      0.12      0.00
    1   19   11      0.82      0.00
    2   19   11     -0.54      0.00
   -2   20   11      1.25      0.00
   -1   20   11      0.11      0.00
    0   20   11      0.45      0.00
    1   20   11      0.10      0.00
   11    1   12     -0.10      0.00
   11    2   12      0.39      0.00
   11    3   12      1.46      0.00
   11    4   12     -0.66      0.00
  -13    5   12     -0.30      0.00
   11    5   12      0.54      0.00
   11    6   12      0.49      0.00
   -4    7   12     -1.53      0.00
   -4    8   12     -1.57      0.00
   10    8   12     -0.87      0.00
  -12    9   12      0.56      0.00
   10    9   12      1.43      0.00
   10   10   12     -0.85      0.00
    9   11   12     -0.15      0.00
    9   12   12     -0.66      0.00
    8   13   12     -1.74      0.00
    8   14   12     -0.26      0.00
   -9   15   12     -0.22      0.00
    7   15   12      0.88      0.00
    2   17   12      1.62      0.00
   -2   19   12      0.83      0.00
   -1   19   12     -0.32      0.00
    0   19   12      0.82      0.00
    1   19   12     -0.31      0.00
    2   19   12     -0.45      0.00
    3   19   12      0.90      0.00
   -1   20   12     -0.91      0.00
   11    0   13      2.03      0.00
   11    1   13      1.16      0.00
   11    2   13     -0.17      0.00
   -6    3   13     -1.82      0.00
   11    3   13      1.88      0.00
  -13    4   13     -0.50      0.00
   11    4   13     -0.24      0.00
   11    5   13      0.31      0.00
   10    7   13     -1.95      0.00
   10    8   13     -0.18      0.00
   10    9   13     -1.17      0.00
    9   10   13      0.35      0.00
    9   11   13     -1.31      0.00
    8   13   13     -0.85      0.00
    7   14   13     -1.27      0.00
    7   15   13     -0.05      0.00
   -8   16   13     -0.54      0.00
   -7   17   13     -0.49      0.00
    5   17   13      1.56      0.00
   -6   18   13      1.19      0.00
    2   18   13      1.02      0.00
    3   18   13      0.19      0.00
    4   18   13     -0.02      0.00
   -4   19   13     -0.26      0.00
   -2   19   13     -2.29      0.00
   -1   19   13     -1.16      0.00
    0   19   13     -0.30      0.00
    1   19   13      0.25      0.00
    2   19   13     -0.32      0.00
   11    1   14     -0.54      0.00
  -13    2   14      0.47      0.00
   11    2   14      0.74      0.00
  -13    3   14      1.81      0.00
   11    3   14      0.84      0.00
   10    5   14      2.36      0.00
   10    6   14     -0.86      0.00
   10    7   14     -1.08      0.00
  -12    8   14     -0.20      0.00
   10    8   14     -0.12      0.00
    9    9   14     -0.71      0.00
    9   10   14     -0.93      0.00
  -11   11   14      0.81      0.00
    9   11   14     -0.07      0.00
    8   12   14     -1.32      0.00
  -10   13   14     -1.17      0.00
    8   13   14     -0.43      0.00
    7   14   14      0.94      0.00
    3   17   14      0.73      0.00
    0   18   14      1.33      0.00
    1   18   14      0.50      0.00
    2   18   14      0.81      0.00
    3   18   14      0.52      0.00
   -3   19   14      1.27      0.00
   -2   19   14      0.46      0.00
   -1   19   14      0.34      0.00
    0   19   14      0.85      0.00
    1   19   14      1.12      0.00
  -13    0   15      0.36      0.00
    3    0   15     -1.45      0.00
  -13    1   15     -0.40      0.00
   10    2   15      0.78      0.00
   10    3   15     -0.48      0.00
   10    4   15      0.66      0.00
   10    5   15     -1.35      0.00
   10    6   15      0.45      0.00
   10    7   15     -0.82      0.00
    9    8   15     -0.96      0.00
    9    9   15     -0.44      0.00
    9   10   15      0.48      0.00
    8   11   15     -0.24      0.00
    8   12   15      0.49      0.00
    7   13   15      1.67      0.00
    7   14   15     -1.52      0.00
    6   15   15     -1.93      0.00
    2   17   15     -0.84      0.00
    3   17   15     -1.71      0.00
    4   17   15     -1.95      0.00
   -5   18   15      0.06      0.00
    0   18   15      2.47      0.00
    1   18   15     -0.12      0.00
    2   18   15      0.68      0.00
   -2   19   15     -1.75      0.00
   -1   19   15     -0.80      0.00
    0   19   15     -0.22      0.00
   10    0   16     -0.26      0.00
   10    1   16      0.68      0.00
   10    2   16     -0.39      0.00
   10    3   16      1.43      0.00
   10    4   16      0.70      0.00
   10    5   16      2.14      0.00
   10    6   16     -0.01      0.00
  -12    7   16     -0.45      0.00
    9    7   16      0.51      0.00
    9    8   16     -0.14      0.00
    9    9   16     -0.38      0.00
  -11   10   16     -1.62      0.00
    8   10   16     -1.28      0.00
    8   11   16      1.05      0.00
  -10   12   16     -0.19      0.00
    7   13   16     -0.62      0.00
   -8   15   16     -0.21      0.00
   -7   16   16      0.20      0.00
    3   16   16      1.96      0.00
    4   16   16      0.34      0.00
   -6   17   16      0.51      0.00
    1   17   16      1.11      0.00
    2   17   16      2.02      0.00
    3   17   16      0.59      0.00
   -4   18   16     -0.03      0.00
    0   18   16      1.01      0.00
    1   18   16      0.43      0.00
    2   18   16      1.15      0.00
   10    1   17      0.83      0.00
   10    2   17      0.96      0.00
   10    3   17      0.02      0.00
   10    4   17     -0.26      0.00
    9    5   17      1.43      0.00
  -12    6   17      1.70      0.00
    9    6   17      0.00      0.00
    9    7   17     -0.13      0.00
    9    8   17      0.00      0.00
    8    9   17     -1.31      0.00
    8   10   17     -0.67      0.00
    8   11   17      0.27      0.00
    7   12   17      0.41      0.00
    6   14   17     -0.06      0.00
    4   15   17     -1.37      0.00
    3   16   17      0.41      0.00
    4   16   17     -0.26      0.00
    1   17   17     -0.95      0.00
    2   17   17     -1.06      0.00
    3   17   17     -1.19      0.00
   -3   18   17     -0.17      0.00
    0   18   17      1.63      0.00
    1   18   17      0.28      0.00
    9    2   18      1.07      0.00
    9    3   18     -1.99      0.00
    9    4   18      2.28      0.00
  -12    5   18     -0.78      0.00
    9    5   18     -0.10      0.00
    9    6   18      3.94      0.00
    9    7   18      1.09      0.00
    8    8   18     -0.18      0.00
    8    9   18     -0.70      0.00
    8   10   18     -0.84      0.00
  -10   11   18     -0.38      0.00
    7   11   18     -1.22      0.00
    7   12   18     -0.29      0.00
   -9   13   18     -0.11      0.00
    4   14   18      1.23      0.00
    3   15   18      1.17      0.00
    4   15   18      0.59      0.00
    2   16   18      0.68      0.00
    3   16   18      2.01      0.00
    1   17   18      0.48      0.00
    2   17   18      0.45      0.00
    9    0   19     -4.49      0.00
    9    1   19     -1.41      0.00
    9    2   19      1.50      0.00
  -12    3   19     -0.31      0.00
    9    3   19      1.56      0.00
    9    4   19      0.57      0.00
    9    5   19      0.66      0.00
    8    7   19     -2.56      0.00
  -11    8   19      0.60      0.00
    8    8   19     -2.20      0.00
    8    9   19     -0.94      0.00
    7   10   19     -0.03      0.00
    7   11   19      0.70      0.00
    5   13   19     -0.99      0.00
    4   14   19      0.01      0.00
    5   14   19      0.80      0.00
    3   15   19     -1.98      0.00
    4   15   19     -1.89      0.00
    2   16   19     -0.98      0.00
    3   16   19      0.23      0.00
    1   17   19     -0.78      0.00
  -12    0   20      0.76      0.00
  -12    1   20      0.70      0.00
    9    1   20      0.62      0.00
    9    2   20      0.27      0.00
    9    3   20     -0.90      0.00
    8    5   20      1.28      0.00
    8    6   20     -0.73      0.00
  -11    7   20     -0.02      0.00
    8    7   20      0.39      0.00
    7    9   20     -0.89      0.00
    7   10   20      3.26      0.00
    5   12   20     -0.57      0.00
    6   12   20      0.16      0.00
    4   13   20     -1.21      0.00
    5   13   20      0.50      0.00
    4   14   20      0.87      0.00
    3   15   20      0.30      0.00
   -4   16   20      0.72      0.00
    0   16   20      0.05      0.00
    2   16   20      0.50      0.00
    8    1   21     -1.97      0.00
    8    2   21      0.50      0.00
    8    3   21     -0.45      0.00
    8    4   21     -0.06      0.00
    8    5   21     -0.26      0.00
  -11    6   21     -0.11      0.00
    8    6   21      0.79      0.00
  -10    9   21     -0.01      0.00
    7    9   21      1.95      0.00
   -9   11   21      0.34      0.00
    6   11   21     -0.01      0.00
    5   12   21      0.05      0.00
    4   13   21     -0.66      0.00
   -3   16   21     -0.56      0.00
    0   16   21     -0.20      0.00
    8    0   22     -0.52      0.00
    8    1   22      3.04      0.00
    8    2   22     -0.39      0.00
    8    3   22      0.52      0.00
    8    4   22     -0.08      0.00
  -10    8   22      1.48      0.00
    6   10   22      0.98      0.00
   -8   12   22     -0.68      0.00
   -7   13   22     -0.13      0.00
    4   13   22     -2.22      0.00
   -6   14   22     -0.64      0.00
    3   14   22     -2.10      0.00
    1   15   22      0.69      0.00
  -11    0   23     -1.43      0.00
  -11    1   23      0.57      0.00
  -11    2   23      0.28      0.00
    7    6   23     -0.45      0.00
  -10    7   23      1.41      0.00
    6    9   23      0.44      0.00
   -8   11   23     -1.00      0.00
    4   12   23      0.77      0.00
    3   13   23      2.03      0.00
   -5   14   23     -0.29      0.00
    2   14   23      0.34      0.00
   -3   15   23      0.15      0.00
   -2   15   23      1.27      0.00
   -1   15   23      0.29      0.00
    7    1   24     -1.01      0.00
    7    2   24     -0.43      0.00
    7    3   24      0.95      0.00
    7    4   24      0.16      0.00
    6    7   24     -0.10      0.00
    4   11   24     -1.74      0.00
    3   12   24     -1.86      0.00
    2   13   24     -0.48      0.00
   -3   14   24      1.48      0.00
    0   14   24      0.77      0.00
  -10    3   25      0.18      0.00
   -9    7   25     -1.00      0.00
    5    8   25     -0.94      0.00
    4   10   25     -0.73      0.00
    3   11   25      0.62      0.00
    2   12   25     -1.22      0.00
   -4   13   25      1.69      0.00
    6    0   26      1.37      0.00
    6    1   26      0.51      0.00
    6    2   26     -0.49      0.00
    5    6   26     -0.96      0.00
   -8    8   26     -2.05      0.00
    3   10   26      1.49      0.00
    2   11   26     -0.50      0.00
    1   12   26      0.43      0.00
   -9    3   27      0.66      0.00
    5    3   27      0.98      0.00
    5    4   27      0.46      0.00
    4    7   27     -0.44      0.00
    2   10   27      0.12      0.00
   -6    0   28     -0.87      0.00
    4    5   28     -1.39      0.00
   -7    7   28     -1.06      0.00
    3    7   28      0.47      0.00
   -4   10   28     -0.40      0.00
    0   10   28      0.85      0.00
   -5    0   29     -0.08      0.00
   -8    1   29     -0.20      0.00
   -6    1   29     -0.45      0.00
    3    4   29     -0.29      0.00
   -7    5   29      0.33      0.00
    3    5   29     -1.03      0.00
   -6    7   29      0.02      0.00
    2    7   29     -1.71      0.00
   -5    8   29     -0.11      0.00
    1    8   29     -3.09      0.00
   -4    9   29     -0.91      0.00
   -3    9   29     -1.36      0.00
   -1    9   29      0.83      0.00
   -6    0   30      0.17      0.00
   -7    1   30     -0.67      0.00
   -6    1   30     -0.39      0.00
   -7    2   30      0.26      0.00
   -6    2   30     -0.02      0.00
    2    4   30     -1.27      0.00
   -6    5   30      0.21      0.00
   -5    6   30      0.60      0.00
    1    6   30      1.24      0.00
   -4    7   30      0.54      0.00
    0    7   30     -2.10      0.00
   -2    8   30      0.44      0.00
   -5    0   31      0.42      0.00
   -5    1   31      0.56      0.00
    1    2   31      0.16      0.00
   -5    3   31      2.21      0.00
    1    3   31     -0.79      0.00
   -5    4   31     -0.19      0.00
    0    4   31      0.84      0.00
   -4    5   31     -1.37      0.00
   -1    5   31     -0.26      0.00
    0    5   31     -1.34      0.00
   -3    6   31     -4.13      0.00
   -2    6   31      0.32      0.00
    0    0    0      0.00      0.00
loop_
  _platon_squeeze_void_nr
  _platon_squeeze_void_average_x
  _platon_squeeze_void_average_y
  _platon_squeeze_void_average_z
  _platon_squeeze_void_volume
  _platon_squeeze_void_count_electrons
  _platon_squeeze_void_content
   1 -0.044  0.007  0.000       566       142 ' '
   2  0.006 -0.005  0.500       566       142 ' '
loop_
  _platon_missing_refln_index_h
  _platon_missing_refln_index_k
  _platon_missing_refln_index_l
  _platon_missing_refln_theta
    4    0    0     8.155
    1    2    0     3.260
    1    0    1     2.336
   -1    2    1     3.285
    3    0    3     7.024
    3    1    3     7.139
    3    1    4     7.615
    0    5    5     7.711
    2    0    6     7.105
    1    4    6     7.789
    2    4    6     8.762
    1    5    6     8.687
    1    3    7     7.715
_platon_squeeze_void_probe_radius                  1.20
_platon_squeeze_details
)
TITL 2         P 1 21/n 1   R = 0.08
CELL   10.1620   15.9860   23.9710     90.00     99.58     90.00
SPGR P21/n
C101 0.903 0.983 0.006 !       1.83 eA-3
C102 0.538 0.444 0.468 !       1.63 eA-3
C103 1.000 1.000 0.500 !       1.58 eA-3
C104 0.554 0.122 0.009 !       1.55 eA-3
Q105 0.073 0.951 0.294 !       1.54 eA-3
Q106 0.685 0.969 0.191 !       1.52 eA-3
C107 0.361 0.462 0.496 !       1.40 eA-3
Q108 0.551 0.863 0.265 !       1.35 eA-3
C109 0.136 0.310 0.482 !       1.31 eA-3
C110 0.385 0.873 0.014 !       1.27 eA-3
C111 0.652 0.425 0.067 !       1.27 eA-3
C112 0.221 0.957 0.009 !       1.25 eA-3
C113 0.261 0.674 0.013 !       1.24 eA-3
C114 0.308 0.423 0.477 !       1.19 eA-3
C115 0.809 0.782 0.480 !       1.18 eA-3
C116 0.106 0.079 0.487 !       1.16 eA-3
C117 0.224 0.206 0.493 !       1.15 eA-3
C118 0.305 0.202 0.460 !       1.15 eA-3
C119 0.972 0.956 0.495 !       1.10 eA-3
C120 0.890 0.922 0.469 !       1.04 eA-3
C121 0.712 0.826 0.481 !       1.02 eA-3
C122 0.297 0.981 0.007 !       1.00 eA-3
C123 0.306 0.858 0.053 !       1.00 eA-3
C124 0.091 0.096 0.424 !       0.98 eA-3
C125 0.702 0.357 0.015 !       0.96 eA-3
C126 0.204 0.141 0.461 !       0.95 eA-3
C127 0.188 0.234 0.469 !       0.95 eA-3
C128 0.820 0.890 0.481 !       0.93 eA-3
C129 0.325 0.154 0.500 !       0.92 eA-3
C130 0.326 0.841 0.083 !       0.90 eA-3
C131 0.629 0.986 0.008 !       0.89 eA-3
C132 0.765 0.833 0.445 !       0.88 eA-3
C133 0.123 0.283 0.448 !       0.86 eA-3
C134 0.442 0.564 0.068 !       0.85 eA-3
C135 0.231 0.809 0.031 !       0.84 eA-3
C136 0.147 0.220 0.486 !       0.84 eA-3
Q137 0.942 0.890 0.315 !       0.80 eA-3
C138 0.239 0.766 0.021 !       0.80 eA-3
C139 0.600 0.286 0.008 !       0.80 eA-3
C140 0.082 0.487 0.487 !       0.79 eA-3
C141 0.268 0.280 0.440 !       0.78 eA-3
Q142 0.805 0.530 0.321 !       0.76 eA-3
C143 0.365 0.657 0.064 !       0.75 eA-3
C144 0.966 0.760 0.475 !       0.73 eA-3
C145 0.135 0.221 0.431 !       0.72 eA-3
C146 0.240 0.097 0.477 !       0.71 eA-3
C147 0.660 0.344 0.047 !       0.71 eA-3
Q148 0.089 0.362 0.257 !       0.71 eA-3
C149 0.371 0.026 0.016 !       0.70 eA-3
C150 0.973 0.939 0.417 !       0.69 eA-3
C151 0.231 0.191 0.442 !       0.69 eA-3
Q152 0.852 0.388 0.400 !       0.68 eA-3
Q153 0.330 0.044 0.157 !       0.68 eA-3
C154 0.025 0.705 0.491 !       0.67 eA-3
C155 0.968 0.904 0.487 !       0.66 eA-3
C156 0.622 0.089 0.032 !       0.65 eA-3
C157 0.608 0.484 0.037 !       0.64 eA-3
Q158 0.801 0.829 0.368 !       0.64 eA-3
Q159 0.677 0.857 0.204 !       0.64 eA-3
Q160 0.732 0.358 0.088 !       0.63 eA-3
Q161 0.094 0.062 0.149 !       0.61 eA-3
Q162 0.877 0.877 0.403 !       0.61 eA-3
Q163 0.467 0.890 0.219 !       0.60 eA-3
Q164 0.744 0.737 0.162 !       0.58 eA-3
Q165 0.904 0.510 0.341 !       0.58 eA-3
C166 0.310 0.574 0.102 !       0.57 eA-3
Q167 0.150 0.437 0.323 !       0.57 eA-3
C168 0.484 0.043 0.009 !       0.57 eA-3
Q169 0.772 0.575 0.187 !       0.57 eA-3
Q170 0.680 0.328 0.174 !       0.57 eA-3
Q171 0.986 0.938 0.350 !       0.56 eA-3
Q172 0.301 0.109 0.303 !       0.56 eA-3
Q173 0.801 0.278 0.179 !       0.56 eA-3
Q174 0.508 0.379 0.144 !       0.54 eA-3
Q175 0.805 0.656 0.042 !       0.54 eA-3
Q176 0.789 0.599 0.142 !       0.54 eA-3
C177 0.501 0.405 0.051 !       0.53 eA-3
Q178 0.398 0.439 0.428 !       0.53 eA-3
Q179 0.513 0.419 0.128 !       0.53 eA-3
Q180 0.366 0.606 0.188 !       0.52 eA-3
Q181 0.218 0.594 0.334 !       0.52 eA-3
Q182 0.682 0.781 0.164 !       0.52 eA-3
Q183 0.426 0.936 0.219 !       0.51 eA-3
Q184 0.866 0.750 0.345 !       0.51 eA-3
Q185 0.103 0.812 0.072 !       0.51 eA-3
Q186 0.089 0.184 0.126 !       0.51 eA-3
C187 0.420 0.486 0.070 !       0.51 eA-3
Q188 0.304 0.126 0.148 !       0.50 eA-3
Q189 0.935 0.895 0.378 !       0.50 eA-3
C190 0.343 0.517 0.088 !       0.50 eA-3
)
;
_shelx_shelxl_version_number     2014/7
_olex2_submission_special_instructions 'No special instructions were received'
loop_
_space_group_symop_operation_xyz
'x, y, z'
'-x+1/2, y+1/2, -z+1/2'
'-x, -y, -z'
'x-1/2, -y-1/2, z-1/2'
loop_
_atom_site_label
_atom_site_type_symbol
_atom_site_fract_x
_atom_site_fract_y
_atom_site_fract_z
_atom_site_U_iso_or_equiv
_atom_site_adp_type
_atom_site_occupancy
_atom_site_site_symmetry_order
_atom_site_calc_flag
_atom_site_refinement_flags_posn
_atom_site_refinement_flags_adp
_atom_site_refinement_flags_occupancy
_atom_site_disorder_assembly
_atom_site_disorder_group
Co1 Co 1.16900(4) 0.49825(3) 0.66578(2) 0.02660(15) Uani 1 1 d . . . . .
Co2 Co 0.98648(5) 0.61151(3) 0.75450(2) 0.03140(16) Uani 1 1 d . . . . .
O1 O 0.9951(3) 0.44422(18) 0.63900(14) 0.0508(7) Uani 1 1 d . . . . .
O2 O 0.9049(3) 0.5273(2) 0.69528(13) 0.0551(8) Uani 1 1 d . . . . .
O3 O 0.4064(3) 0.52590(19) 0.68027(14) 0.0549(8) Uani 1 1 d . . . . .
O4 O 0.2937(2) 0.42929(17) 0.62922(12) 0.0421(6) Uani 1 1 d . . . . .
O5 O 0.4866(4) 0.17974(17) 0.66629(12) 0.0567(8) Uani 1 1 d . . . . .
O6 O 0.6464(4) 0.0893(2) 0.68479(13) 0.0619(9) Uani 1 1 d . . . . .
O7 O 0.6134(3) -0.02442(16) 0.30258(11) 0.0474(7) Uani 1 1 d . . . . .
O8 O 0.7068(3) 0.04886(19) 0.24208(11) 0.0551(8) Uani 1 1 d . . . . .
O9 O 0.8614(3) 0.33199(16) 0.28078(10) 0.0462(7) Uani 1 1 d . . . . .
O10 O 0.8533(3) 0.38731(14) 0.36527(11) 0.0371(6) Uani 1 1 d . . . . .
O11 O 0.8342(7) 0.6865(4) 0.7104(3) 0.0574(18) Uani 0.598(10) 1 d D U P A 1
O11A O 0.9054(14) 0.7241(8) 0.7206(5) 0.078(3) Uani 0.402(10) 1 d . U P A 2
N1 N 0.6922(12) 0.7888(7) 0.6866(5) 0.112(4) Uani 0.592(13) 1 d . U P A 1
N1A N 0.7751(13) 0.8355(7) 0.7035(4) 0.066(3) Uani 0.408(13) 1 d . U P A 2
C1 C 0.8987(3) 0.4697(2) 0.66071(15) 0.0336(8) Uani 1 1 d . . . . .
C2 C 0.7671(3) 0.4263(2) 0.64447(14) 0.0275(7) Uani 1 1 d . . . . .
C3 C 0.7623(3) 0.3496(2) 0.61688(14) 0.0295(7) Uani 1 1 d . . . . .
H3 H 0.8405 0.3257 0.6089 0.035 Uiso 1 1 calc R . . . .
C4 C 0.6413(3) 0.3084(2) 0.60116(13) 0.0277(7) Uani 1 1 d . . . . .
C5 C 0.5249(3) 0.3459(2) 0.61233(13) 0.0273(7) Uani 1 1 d . . . . .
H5 H 0.4434 0.3190 0.6017 0.033 Uiso 1 1 calc R . . . .
C6 C 0.5290(3) 0.4229(2) 0.63904(14) 0.0296(7) Uani 1 1 d . . . . .
C7 C 0.6510(3) 0.4620(2) 0.65624(14) 0.0302(7) Uani 1 1 d . . . . .
H7 H 0.6546 0.5125 0.6758 0.036 Uiso 1 1 calc R . . . .
C8 C 0.4032(4) 0.4628(2) 0.65085(15) 0.0360(8) Uani 1 1 d . . . . .
C9 C 0.6388(4) 0.2273(2) 0.56948(14) 0.0309(7) Uani 1 1 d . . . . .
C10 C 0.6721(4) 0.2294(2) 0.51589(14) 0.0342(8) Uani 1 1 d . . . . .
H10 H 0.6903 0.2809 0.5009 0.041 Uiso 1 1 calc R . . . .
C11 C 0.6797(4) 0.1586(2) 0.48350(15) 0.0398(9) Uani 1 1 d . . . . .
C12 C 0.6572(6) 0.0821(2) 0.50787(18) 0.0584(13) Uani 1 1 d . . . . .
H12 H 0.6641 0.0330 0.4877 0.070 Uiso 1 1 calc R . . . .
C13 C 0.6249(6) 0.0779(2) 0.56150(18) 0.0628(15) Uani 1 1 d . . . . .
H13 H 0.6098 0.0261 0.5768 0.075 Uiso 1 1 calc R . . . .
C14 C 0.6145(4) 0.1496(2) 0.59282(16) 0.0439(10) Uani 1 1 d . . . . .
C15 C 0.5797(5) 0.1393(2) 0.65217(17) 0.0442(10) Uani 1 1 d . . . . .
C16 C 0.7109(4) 0.1649(2) 0.42457(15) 0.0350(8) Uani 1 1 d . . . . .
C17 C 0.7641(4) 0.2384(2) 0.40593(15) 0.0367(8) Uani 1 1 d . . . . .
H17 H 0.7818 0.2831 0.4308 0.044 Uiso 1 1 calc R . . . .
C18 C 0.7912(3) 0.2465(2) 0.35113(14) 0.0304(7) Uani 1 1 d . . . . .
C19 C 0.7650(4) 0.1789(2) 0.31413(14) 0.0315(7) Uani 1 1 d . . . . .
H19 H 0.7840 0.1831 0.2776 0.038 Uiso 1 1 calc R . . . .
C20 C 0.7110(4) 0.10577(19) 0.33121(14) 0.0296(7) Uani 1 1 d . . . . .
C21 C 0.6836(4) 0.0989(2) 0.38597(15) 0.0348(8) Uani 1 1 d . . . . .
H21 H 0.6466 0.0497 0.3971 0.042 Uiso 1 1 calc R . . . .
C22 C 0.8398(3) 0.3272(2) 0.33056(15) 0.0328(8) Uani 1 1 d . . . . .
C23 C 0.6739(4) 0.0368(2) 0.28881(14) 0.0307(7) Uani 1 1 d . . . . .
C24 C 0.7974(6) 0.7585(3) 0.7104(2) 0.0693(13) Uani 1 1 d D U . . .
C25 C 0.5968(15) 0.7275(12) 0.6625(8) 0.161(6) Uani 0.598(10) 1 d D U P A 1
H25A H 0.6336 0.6725 0.6701 0.242 Uiso 0.598(10) 1 calc GR . P A 1
H25B H 0.5755 0.7359 0.6223 0.242 Uiso 0.598(10) 1 calc GR . P A 1
H25C H 0.5172 0.7329 0.6789 0.242 Uiso 0.598(10) 1 calc GR . P A 1
C25A C 0.6681(17) 0.7120(13) 0.7178(9) 0.113(6) Uani 0.402(10) 1 d D U P A 2
H25D H 0.6461 0.6717 0.6879 0.169 Uiso 0.402(10) 1 calc GR . P A 2
H25E H 0.5965 0.7515 0.7164 0.169 Uiso 0.402(10) 1 calc GR . P A 2
H25F H 0.6814 0.6838 0.7536 0.169 Uiso 0.402(10) 1 calc GR . P A 2
C26 C 0.9141(10) 0.8226(6) 0.7314(4) 0.071(3) Uani 0.598(10) 1 d . U P A 1
H26A H 0.9312 0.8236 0.7720 0.107 Uiso 0.598(10) 1 calc GR . P A 1
H26B H 0.8884 0.8774 0.7174 0.107 Uiso 0.598(10) 1 calc GR . P A 1
H26C H 0.9934 0.8055 0.7176 0.107 Uiso 0.598(10) 1 calc GR . P A 1
C26A C 0.9148(19) 0.8752(13) 0.7054(9) 0.101(6) Uani 0.402(10) 1 d . U P A 2
H26D H 0.9813 0.8320 0.7098 0.152 Uiso 0.402(10) 1 calc GR . P A 2
H26E H 0.9325 0.9133 0.7367 0.152 Uiso 0.402(10) 1 calc GR . P A 2
H26F H 0.9172 0.9050 0.6708 0.152 Uiso 0.402(10) 1 calc GR . P A 2
C27 C 0.6548(8) 0.8802(5) 0.6930(4) 0.130(3) Uani 1 1 d . U . . .
H27A H 0.5687 0.8908 0.6709 0.194 Uiso 0.592(13) 1 calc R . P A 1
H27B H 0.6521 0.8918 0.7321 0.194 Uiso 0.592(13) 1 calc R . P A 1
H27C H 0.7200 0.9155 0.6801 0.194 Uiso 0.592(13) 1 calc R . P A 1
H27D H 0.6734 0.9387 0.6900 0.194 Uiso 0.408(13) 1 calc R . P A 2
H27E H 0.6025 0.8610 0.6583 0.194 Uiso 0.408(13) 1 calc R . P A 2
H27F H 0.6061 0.8714 0.7235 0.194 Uiso 0.408(13) 1 calc R . P A 2
N2 N 0.6731(11) 0.3378(7) 0.1596(5) 0.198(4) Uani 1 1 d D U . . .
H2A H 0.6672 0.3547 0.1239 0.238 Uiso 1 1 calc R . . . .
H2B H 0.7534 0.3520 0.1779 0.238 Uiso 1 1 calc R . . . .
C28 C 0.5617(16) 0.3842(10) 0.1879(7) 0.258(7) Uani 1 1 d D U . . .
H28A H 0.5023 0.4140 0.1593 0.387 Uiso 1 1 calc GR . . . .
H28B H 0.6037 0.4230 0.2159 0.387 Uiso 1 1 calc GR . . . .
H28C H 0.5121 0.3437 0.2054 0.387 Uiso 1 1 calc GR . . . .
C29 C 0.6593(11) 0.2503(6) 0.1607(4) 0.154(4) Uani 1 1 d D U . . .
H29A H 0.5910 0.2330 0.1303 0.232 Uiso 1 1 calc GR . . . .
H29B H 0.6351 0.2337 0.1962 0.232 Uiso 1 1 calc GR . . . .
H29C H 0.7424 0.2245 0.1565 0.232 Uiso 1 1 calc GR . . . .
loop_
_atom_site_aniso_label
_atom_site_aniso_U_11
_atom_site_aniso_U_22
_atom_site_aniso_U_33
_atom_site_aniso_U_23
_atom_site_aniso_U_13
_atom_site_aniso_U_12
Co1 0.0276(3) 0.0212(2) 0.0343(3) 0.00239(17) 0.01492(19) -0.00093(17)
Co2 0.0450(3) 0.0231(3) 0.0305(3) -0.00135(18) 0.0192(2) 0.00310(19)
O1 0.0240(13) 0.0460(16) 0.086(2) -0.0105(15) 0.0196(14) -0.0111(11)
O2 0.0497(18) 0.0536(18) 0.0622(19) -0.0257(16) 0.0093(15) -0.0200(15)
O3 0.0444(17) 0.0487(17) 0.076(2) -0.0230(16) 0.0225(15) 0.0056(13)
O4 0.0252(13) 0.0510(16) 0.0534(16) -0.0109(13) 0.0166(11) 0.0037(11)
O5 0.098(2) 0.0337(15) 0.0493(16) 0.0047(12) 0.0455(17) 0.0052(15)
O6 0.078(2) 0.067(2) 0.0487(17) 0.0178(16) 0.0344(17) 0.0088(18)
O7 0.083(2) 0.0266(13) 0.0365(14) -0.0078(11) 0.0208(14) -0.0191(14)
O8 0.079(2) 0.0564(18) 0.0389(15) -0.0185(13) 0.0351(14) -0.0350(16)
O9 0.074(2) 0.0367(14) 0.0332(13) 0.0025(11) 0.0237(13) -0.0255(13)
O10 0.0530(16) 0.0209(12) 0.0396(14) 0.0019(10) 0.0144(12) -0.0034(10)
O11 0.060(4) 0.042(3) 0.068(4) 0.004(3) 0.004(3) 0.025(3)
O11A 0.083(6) 0.067(7) 0.087(7) 0.021(6) 0.024(5) 0.034(5)
N1 0.084(5) 0.076(6) 0.162(9) 0.008(5) -0.021(5) 0.034(4)
N1A 0.077(6) 0.056(5) 0.063(7) -0.009(4) 0.006(5) 0.028(4)
C1 0.0302(18) 0.0300(18) 0.0408(19) 0.0050(16) 0.0068(15) -0.0074(14)
C2 0.0223(16) 0.0285(17) 0.0333(17) -0.0035(13) 0.0091(13) -0.0069(13)
C3 0.0303(17) 0.0258(17) 0.0363(18) -0.0003(14) 0.0170(14) 0.0007(13)
C4 0.0359(18) 0.0262(16) 0.0251(15) -0.0023(13) 0.0165(13) -0.0048(13)
C5 0.0252(16) 0.0274(17) 0.0320(16) -0.0032(13) 0.0122(13) -0.0054(13)
C6 0.0281(17) 0.0327(18) 0.0313(17) -0.0006(14) 0.0149(14) 0.0011(13)
C7 0.0375(19) 0.0217(16) 0.0346(17) -0.0069(13) 0.0147(15) -0.0017(13)
C8 0.0324(19) 0.042(2) 0.0372(19) -0.0003(16) 0.0165(15) 0.0031(16)
C9 0.0417(19) 0.0214(16) 0.0336(17) -0.0047(13) 0.0185(15) -0.0077(14)
C10 0.050(2) 0.0244(17) 0.0329(17) -0.0022(14) 0.0212(16) -0.0096(15)
C11 0.064(3) 0.0255(18) 0.0370(19) -0.0075(15) 0.0280(18) -0.0124(16)
C12 0.114(4) 0.0256(19) 0.046(2) -0.0079(17) 0.045(3) -0.010(2)
C13 0.126(4) 0.0233(19) 0.052(3) -0.0006(18) 0.053(3) -0.012(2)
C14 0.071(3) 0.0298(19) 0.040(2) -0.0043(16) 0.035(2) -0.0114(18)
C15 0.072(3) 0.0266(18) 0.043(2) -0.0043(17) 0.036(2) -0.0137(18)
C16 0.053(2) 0.0230(16) 0.0354(18) -0.0048(14) 0.0248(17) -0.0095(15)
C17 0.058(2) 0.0219(17) 0.0350(18) -0.0057(14) 0.0214(17) -0.0108(16)
C18 0.0374(19) 0.0223(16) 0.0348(17) 0.0017(13) 0.0155(15) -0.0052(13)
C19 0.044(2) 0.0256(17) 0.0294(16) -0.0018(13) 0.0179(15) -0.0070(14)
C20 0.0413(19) 0.0216(16) 0.0298(16) -0.0028(13) 0.0173(14) -0.0024(13)
C21 0.053(2) 0.0193(16) 0.0380(19) -0.0029(13) 0.0246(17) -0.0112(14)
C22 0.0380(19) 0.0235(17) 0.0390(19) 0.0005(14) 0.0127(15) -0.0047(14)
C23 0.0391(19) 0.0246(17) 0.0316(17) -0.0061(14) 0.0153(14) -0.0045(14)
C24 0.083(3) 0.056(3) 0.069(3) -0.001(2) 0.015(2) 0.028(2)
C25 0.143(8) 0.147(8) 0.185(10) -0.014(7) 0.000(7) -0.016(6)
C25A 0.106(7) 0.106(8) 0.125(10) 0.011(7) 0.019(6) 0.003(6)
C26 0.076(5) 0.055(5) 0.077(6) -0.003(4) -0.006(4) 0.023(4)
C26A 0.096(8) 0.093(10) 0.115(15) 0.000(9) 0.019(8) 0.005(7)
C27 0.093(5) 0.089(5) 0.194(9) -0.002(5) -0.015(5) 0.051(4)
N2 0.190(7) 0.157(6) 0.235(8) -0.020(6) -0.003(6) -0.037(5)
C28 0.233(10) 0.243(10) 0.290(11) -0.055(8) 0.018(8) -0.018(7)
C29 0.171(7) 0.128(6) 0.155(7) -0.005(5) 0.001(6) -0.007(5)
loop_
_atom_type_symbol
_atom_type_description
_atom_type_scat_dispersion_real
_atom_type_scat_dispersion_imag
_atom_type_scat_source
C C 0.0033 0.0016 'International Tables Vol C Tables 4.2.6.8 and 6.1.1.4'
H H 0.0000 0.0000 'International Tables Vol C Tables 4.2.6.8 and 6.1.1.4'
Co Co 0.3494 0.9721 'International Tables Vol C Tables 4.2.6.8 and 6.1.1.4'
N N 0.0061 0.0033 'International Tables Vol C Tables 4.2.6.8 and 6.1.1.4'
O O 0.0106 0.0060 'International Tables Vol C Tables 4.2.6.8 and 6.1.1.4'
loop_
_geom_angle_atom_site_label_1
_geom_angle_atom_site_label_2
_geom_angle_atom_site_label_3
_geom_angle
_geom_angle_site_symmetry_1
_geom_angle_site_symmetry_3
O1 Co1 O4 102.45(12) . 1_655
O8 Co1 O1 99.28(15) 4_666 .
O8 Co1 O4 99.11(11) 4_666 1_655
O8 Co1 O10 134.58(12) 4_666 3_766
O10 Co1 O1 104.02(12) 3_766 .
O10 Co1 O4 112.88(11) 3_766 1_655
O2 Co2 O5 157.45(12) . 2_656
O2 Co2 O6 97.65(13) . 2_656
O2 Co2 O7 94.93(13) . 4_666
O2 Co2 O9 104.31(11) . 3_766
O2 Co2 O11 81.1(2) . .
O2 Co2 O11A 102.2(4) . .
O2 Co2 C15 127.51(14) . 2_656
O5 Co2 O6 59.83(12) 2_656 2_656
O5 Co2 C15 29.94(13) 2_656 2_656
O6 Co2 C15 29.94(13) 2_656 2_656
O7 Co2 O5 82.92(11) 4_666 2_656
O7 Co2 O6 85.27(13) 4_666 2_656
O7 Co2 C15 81.84(12) 4_666 2_656
O9 Co2 O5 98.24(11) 3_766 2_656
O9 Co2 O6 157.96(12) 3_766 2_656
O9 Co2 O7 94.60(12) 3_766 4_666
O9 Co2 O11 94.7(2) 3_766 .
O9 Co2 C15 128.18(13) 3_766 2_656
O11 Co2 O5 97.4(2) . 2_656
O11 Co2 O6 86.7(2) . 2_656
O11 Co2 O7 170.5(2) . 4_666
O11 Co2 C15 93.7(2) . 2_656
O11A Co2 O5 83.8(4) . 2_656
O11A Co2 O6 98.8(3) . 2_656
O11A Co2 O7 161.7(5) . 4_666
O11A Co2 O9 74.9(4) . 3_766
O11A Co2 C15 92.8(3) . 2_656
C1 O1 Co1 116.2(3) . .
C1 O2 Co2 159.1(3) . .
C8 O4 Co1 99.6(2) . 1_455
C15 O5 Co2 89.2(2) . 2_646
C15 O6 Co2 89.0(2) . 2_646
C23 O7 Co2 131.9(2) . 4_565
C23 O8 Co1 138.3(2) . 4_565
C22 O9 Co2 132.2(2) . 3_766
C22 O10 Co1 117.6(2) . 3_766
C24 O11 Co2 138.2(6) . .
C24 O11A Co2 138.8(11) . .
C24 N1 C25 113.4(11) . .
C24 N1 C27 123.0(11) . .
C25 N1 C27 122.2(10) . .
C24 N1A C26A 104.7(11) . .
C24 N1A C27 130.9(12) . .
C27 N1A C26A 124.3(12) . .
O1 C1 C2 117.9(3) . .
O2 C1 O1 124.5(3) . .
O2 C1 C2 117.6(3) . .
C3 C2 C1 119.4(3) . .
C7 C2 C1 120.7(3) . .
C7 C2 C3 119.9(3) . .
C2 C3 C4 120.4(3) . .
C3 C4 C5 119.0(3) . .
C3 C4 C9 119.1(3) . .
C5 C4 C9 121.8(3) . .
C6 C5 C4 120.7(3) . .
C5 C6 C7 119.7(3) . .
C5 C6 C8 120.3(3) . .
C7 C6 C8 120.0(3) . .
C2 C7 C6 120.2(3) . .
O3 C8 O4 121.4(3) . .
O3 C8 C6 121.1(3) . .
O4 C8 C6 117.5(3) . .
C10 C9 C4 117.7(3) . .
C10 C9 C14 118.6(3) . .
C14 C9 C4 123.6(3) . .
C11 C10 C9 123.3(3) . .
C10 C11 C12 117.1(3) . .
C10 C11 C16 120.9(3) . .
C12 C11 C16 121.9(3) . .
C13 C12 C11 121.0(4) . .
C12 C13 C14 121.1(4) . .
C9 C14 C15 123.4(3) . .
C13 C14 C9 118.9(3) . .
C13 C14 C15 117.7(3) . .
O5 C15 Co2 60.86(19) . 2_646
O5 C15 C14 120.2(4) . .
O6 C15 Co2 61.11(19) . 2_646
O6 C15 O5 121.8(3) . .
O6 C15 C14 118.0(4) . .
C14 C15 Co2 175.2(3) . 2_646
C17 C16 C11 120.7(3) . .
C17 C16 C21 117.8(3) . .
C21 C16 C11 121.4(3) . .
C18 C17 C16 121.9(3) . .
C17 C18 C19 118.7(3) . .
C17 C18 C22 121.3(3) . .
C19 C18 C22 119.8(3) . .
C20 C19 C18 120.6(3) . .
C19 C20 C21 119.9(3) . .
C19 C20 C23 119.1(3) . .
C21 C20 C23 120.9(3) . .
C20 C21 C16 121.0(3) . .
O9 C22 O10 124.4(3) . .
O9 C22 C18 119.1(3) . .
O10 C22 C18 116.4(3) . .
O7 C23 O8 126.1(3) . .
O7 C23 C20 118.8(3) . .
O8 C23 C20 115.1(3) . .
O11 C24 N1 128.5(9) . .
O11 C24 C26 113.6(6) . .
O11A C24 N1A 127.3(11) . .
O11A C24 C25A 121.1(11) . .
N1 C24 C26 116.2(8) . .
N1A C24 C25A 110.4(11) . .
C29 N2 C28 112.0(10) . .
loop_
_geom_bond_atom_site_label_1
_geom_bond_atom_site_label_2
_geom_bond_distance
_geom_bond_site_symmetry_2
Co1 O1 1.976(3) .
Co1 O4 1.990(2) 1_655
Co1 O8 1.956(3) 4_666
Co1 O10 1.974(2) 3_766
Co2 O2 2.030(3) .
Co2 O5 2.167(3) 2_656
Co2 O6 2.173(3) 2_656
Co2 O7 2.106(3) 4_666
Co2 O9 2.087(3) 3_766
Co2 O11 2.099(5) .
Co2 O11A 2.087(10) .
Co2 C15 2.481(4) 2_656
O1 C1 1.252(4) .
O2 C1 1.233(5) .
O3 C8 1.228(5) .
O4 Co1 1.990(2) 1_455
O4 C8 1.265(5) .
O5 Co2 2.167(3) 2_646
O5 C15 1.239(5) .
O6 Co2 2.173(3) 2_646
O6 C15 1.238(5) .
O7 Co2 2.106(3) 4_565
O7 C23 1.230(4) .
O8 Co1 1.956(3) 4_565
O8 C23 1.236(4) .
O9 Co2 2.087(2) 3_766
O9 C22 1.251(4) .
O10 Co1 1.974(2) 3_766
O10 C22 1.263(4) .
O11 C24 1.209(7) .
O11A C24 1.216(12) .
N1 C24 1.224(11) .
N1 C25 1.43(2) .
N1 C27 1.524(13) .
N1A C24 1.258(12) .
N1A C26A 1.55(2) .
N1A C27 1.402(12) .
C1 C2 1.499(5) .
C2 C3 1.390(5) .
C2 C7 1.381(4) .
C3 C4 1.391(5) .
C4 C5 1.391(4) .
C4 C9 1.500(4) .
C5 C6 1.384(5) .
C6 C7 1.389(5) .
C6 C8 1.498(5) .
C9 C10 1.382(4) .
C9 C14 1.401(5) .
C10 C11 1.381(5) .
C11 C12 1.390(5) .
C11 C16 1.502(5) .
C12 C13 1.381(5) .
C13 C14 1.384(5) .
C14 C15 1.531(5) .
C15 Co2 2.481(4) 2_646
C16 C17 1.397(4) .
C16 C21 1.400(5) .
C17 C18 1.392(4) .
C18 C19 1.395(5) .
C18 C22 1.495(4) .
C19 C20 1.382(4) .
C20 C21 1.391(4) .
C20 C23 1.504(4) .
C24 C25A 1.545(14) .
C24 C26 1.585(12) .
N2 C28 1.596(13) .
N2 C29 1.407(11) .
