#------------------------------------------------------------------------------
#$Date: 2016-11-08 21:39:40 +0200 (Tue, 08 Nov 2016) $
#$Revision: 188124 $
#$URL: file:///home/coder/svn-repositories/cod/cif/7/04/03/7040333.cif $
#------------------------------------------------------------------------------
#
# This file is available in the Crystallography Open Database (COD),
# http://www.crystallography.net/
#
# All data on this site have been placed in the public domain by the
# contributors.
#
data_7040333
loop_
_publ_author_name
'Li, Ke'
'Lv, Xiu-Xiu'
'Shi, Lu-Lu'
'Liu, Lu'
'Li, Bao-Long'
'Wu, Bing'
_publ_section_title
;
 A new strategy to obtain tetranuclear cobalt(ii) metal-organic frameworks
 based on the [Co4(\m3-OH)2] cluster: synthesis, structures and
 properties.
;
_journal_issue                   38
_journal_name_full
'Dalton transactions (Cambridge, England : 2003)'
_journal_page_first              15078
_journal_page_last               15088
_journal_paper_doi               10.1039/c6dt02895k
_journal_volume                  45
_journal_year                    2016
_chemical_formula_moiety         'C36 H29 Co4 N9 O23'
_chemical_formula_sum            'C36 H29 Co4 N9 O23'
_chemical_formula_weight         1191.40
_space_group_crystal_system      triclinic
_space_group_IT_number           2
_space_group_name_Hall           '-P 1'
_space_group_name_H-M_alt        'P -1'
_symmetry_space_group_name_Hall  '-P 1'
_symmetry_space_group_name_H-M   'P -1'
_atom_sites_solution_hydrogens   mixed
_atom_sites_solution_primary     direct
_audit_creation_date             2016-06-27
_audit_creation_method
;
Olex2 1.2-alpha
(compiled 2016.02.24 svn.r3266 for OlexSys, GUI svn.r5155)
;
_audit_update_record
;
2016-06-27 deposited with the CCDC.
2016-08-16 downloaded from the CCDC.
;
_cell_angle_alpha                78.401(3)
_cell_angle_beta                 89.438(2)
_cell_angle_gamma                83.039(2)
_cell_formula_units_Z            2
_cell_length_a                   10.7998(3)
_cell_length_b                   14.5731(5)
_cell_length_c                   17.0590(6)
_cell_measurement_reflns_used    9640
_cell_measurement_temperature    222.95(10)
_cell_measurement_theta_max      29.9130
_cell_measurement_theta_min      3.2560
_cell_volume                     2610.35(15)
_computing_cell_refinement
;
CrysAlisPro, Agilent Technologies,
Version 1.171.36.32 (release 02-08-2013 CrysAlis171 .NET)
(compiled Aug  2 2013,16:46:58)
;
_computing_data_collection
;
CrysAlisPro, Agilent Technologies,
Version 1.171.36.32 (release 02-08-2013 CrysAlis171 .NET)
(compiled Aug  2 2013,16:46:58)
;
_computing_data_reduction
;
CrysAlisPro, Agilent Technologies,
Version 1.171.36.32 (release 02-08-2013 CrysAlis171 .NET)
(compiled Aug  2 2013,16:46:58)
;
_computing_molecular_graphics    'Olex2 (Dolomanov et al., 2009)'
_computing_publication_material  'Olex2 (Dolomanov et al., 2009)'
_computing_structure_refinement  'ShelXL (Sheldrick, 2015)'
_computing_structure_solution    'ShelXT (Sheldrick, 2015)'
_diffrn_ambient_temperature      222.95(10)
_diffrn_detector_area_resol_mean 10.4471
_diffrn_measured_fraction_theta_full 0.998
_diffrn_measured_fraction_theta_max 0.998
_diffrn_measurement_details
;
  1 omega  -47.00   15.00   1.0000    8.0000
omega____ theta____ kappa____ phi______ frames
    -       13.6514  -77.0000  -60.0000 62

  2 omega   24.00   59.00   1.0000    8.0000
omega____ theta____ kappa____ phi______ frames
    -       13.6514   37.0000 -150.0000 35

  3 omega    2.00   57.00   1.0000    8.0000
omega____ theta____ kappa____ phi______ frames
    -      -14.5889   37.0000   90.0000 55

  4 omega -105.00  -57.00   1.0000    8.0000
omega____ theta____ kappa____ phi______ frames
    -      -14.5889 -178.0000  -90.0000 48

  5 omega  -24.00   26.00   1.0000    8.0000
omega____ theta____ kappa____ phi______ frames
    -      -14.5889  -99.0000 -120.0000 50

  6 omega  -25.00    0.00   1.0000    8.0000
omega____ theta____ kappa____ phi______ frames
    -      -14.5889  -99.0000  -60.0000 25

  7 omega  -21.00   23.00   1.0000    8.0000
omega____ theta____ kappa____ phi______ frames
    -      -14.5889  -99.0000   60.0000 44

  8 omega  -92.00   19.00   1.0000    8.0000
omega____ theta____ kappa____ phi______ frames
    -      -14.5889  -19.0000  120.0000 111
;
_diffrn_measurement_device_type  'Xcalibur, Atlas, Gemini'
_diffrn_measurement_method       '\w scans'
_diffrn_orient_matrix_UB_11      -0.0004163000
_diffrn_orient_matrix_UB_12      0.0339572000
_diffrn_orient_matrix_UB_13      0.0245525000
_diffrn_orient_matrix_UB_21      0.0175633000
_diffrn_orient_matrix_UB_22      -0.0365653000
_diffrn_orient_matrix_UB_23      0.0335890000
_diffrn_orient_matrix_UB_31      0.0637975000
_diffrn_orient_matrix_UB_32      0.0039687000
_diffrn_orient_matrix_UB_33      -0.0084279000
_diffrn_radiation_monochromator  graphite
_diffrn_radiation_type           MoK\a
_diffrn_radiation_wavelength     0.71073
_diffrn_reflns_av_R_equivalents  0.0380
_diffrn_reflns_av_unetI/netI     0.0519
_diffrn_reflns_Laue_measured_fraction_full 0.998
_diffrn_reflns_Laue_measured_fraction_max 0.998
_diffrn_reflns_limit_h_max       13
_diffrn_reflns_limit_h_min       -13
_diffrn_reflns_limit_k_max       18
_diffrn_reflns_limit_k_min       -17
_diffrn_reflns_limit_l_max       21
_diffrn_reflns_limit_l_min       -21
_diffrn_reflns_number            26543
_diffrn_reflns_point_group_measured_fraction_full 0.998
_diffrn_reflns_point_group_measured_fraction_max 0.998
_diffrn_reflns_theta_full        26.000
_diffrn_reflns_theta_max         26.599
_diffrn_reflns_theta_min         2.875
_diffrn_source                   'Enhance (Mo) X-ray Source'
_exptl_absorpt_coefficient_mu    1.333
_exptl_absorpt_correction_T_max  1.00000
_exptl_absorpt_correction_T_min  0.59835
_exptl_absorpt_correction_type   multi-scan
_exptl_absorpt_process_details
;
CrysAlisPro, Agilent Technologies,
Version 1.171.36.32 (release 02-08-2013 CrysAlis171 .NET)
(compiled Aug  2 2013,16:46:58)
Empirical absorption correction using spherical harmonics,
 implemented in SCALE3 ABSPACK scaling algorithm.
;
_exptl_crystal_colour            'clear dark red'
_exptl_crystal_colour_lustre     clear
_exptl_crystal_colour_modifier   dark
_exptl_crystal_colour_primary    red
_exptl_crystal_density_diffrn    1.516
_exptl_crystal_description       block
_exptl_crystal_F_000             1200
_exptl_crystal_size_max          1
_exptl_crystal_size_mid          0.4
_exptl_crystal_size_min          0.3
_refine_diff_density_max         1.318
_refine_diff_density_min         -0.407
_refine_diff_density_rms         0.077
_refine_ls_extinction_method     none
_refine_ls_goodness_of_fit_ref   1.036
_refine_ls_hydrogen_treatment    mixed
_refine_ls_matrix_type           full
_refine_ls_number_parameters     705
_refine_ls_number_reflns         10935
_refine_ls_number_restraints     27
_refine_ls_restrained_S_all      1.045
_refine_ls_R_factor_all          0.0529
_refine_ls_R_factor_gt           0.0388
_refine_ls_shift/su_max          0.002
_refine_ls_shift/su_mean         0.000
_refine_ls_structure_factor_coef Fsqd
_refine_ls_weighting_details
'w=1/[\s^2^(Fo^2^)+(0.0497P)^2^] where P=(Fo^2^+2Fc^2^)/3'
_refine_ls_weighting_scheme      calc
_refine_ls_wR_factor_gt          0.0943
_refine_ls_wR_factor_ref         0.0997
_reflns_Friedel_coverage         0.000
_reflns_number_gt                8732
_reflns_number_total             10935
_reflns_threshold_expression     'I > 2\s(I)'
_cod_data_source_file            c6dt02895k2.cif
_cod_data_source_block           2_sq
_cod_depositor_comments
;Adding full bibliography for 7040332--7040334.cif.

 Adding full bibliography for 7040332--7040334.cif.
;
_cod_original_cell_volume        2610.35(14)
_cod_database_code               7040333
_shelx_space_group_comment
;
The symmetry employed for this shelxl refinement is uniquely defined
by the following loop, which should always be used as a source of
symmetry information in preference to the above space-group names.
They are only intended as comments.
;
_shelx_estimated_absorpt_t_max   0.691
_shelx_estimated_absorpt_t_min   0.349
_reflns_odcompleteness_completeness 99.87
_reflns_odcompleteness_iscentric 1
_reflns_odcompleteness_theta     27.42
_olex2_refinement_description
;
1. Fixed Uiso
 At 1.2 times of:
  All C(H) groups, All C(H,H) groups
 At 1.5 times of:
  All O(H,H) groups
2. Restrained distances
 H10-O10
 0.9 with sigma of 0.001
 H7-O7
 0.9 with sigma of 0.001
3. Rigid bond restraints
 Co3, O4
 with sigma for 1-2 distances of 0.001 and sigma for 1-3 distances of 0.002
4. Uiso/Uaniso restraints and constraints
Uanis(O17A) \\sim Ueq: with sigma of 0.01 and sigma for terminal atoms of 0.02
Uanis(O18) \\sim Ueq, Uanis(O23) \\sim Ueq, Uanis(O23A) \\sim Ueq: with sigma
of 0.005 and sigma for terminal atoms of 0.01
5. Others
 Fixed Sof: O16(0.75) O16A(0.25) O17(0.75) O17A(0.25) O18(0.5) O18A(0.3)
 O18B(0.2) O23(0.45) O23A(0.55)
6.a Rotating group:
 O19(H19A,H19B), O20(H20A,H20B), O21(H21A,H21B)
6.b Secondary CH2 refined with riding coordinates:
 C3(H3A,H3B), C10(H10A,H10B)
6.c Aromatic/amide H refined with riding coordinates:
 C1(H1), C2(H2), C5(H5), C6(H6), C8(H8), C9(H9), C11(H11), C12(H12), C15(H15),
 C17(H17), C19(H19), C23(H23), C25(H25), C27(H27), C31(H31), C33(H33), C35(H35)
;
_shelx_res_file
;
    g150427a_sq.res created by SHELXL-2014/7

TITL g150427a in P-1 #2
REM reset to P-1 #2
CELL 0.71073 10.799791 14.573122 17.058957 78.4011 89.4376 83.0393
ZERR 2 0.000273 0.000493 0.00056 0.0028 0.0024 0.0024
LATT 1
SFAC C H Co N O
UNIT 72 58 8 18 46
EQIV $1 1-X,2-Y,2-Z
EQIV $2 1+X,+Y,+Z
EQIV $3 +X,-1+Y,+Z
EQIV $4 1-X,1-Y,1-Z
EQIV $5 2-X,1-Y,2-Z
DFIX 0.9 0.001 H10 O10
DFIX 0.9 0.001 H7 O7
DELU 0.001 0.002 Co3 O4
ISOR 0.01 0.02 O17A
ISOR 0.005 0.01 O18 O23 O23A

L.S. 30
PLAN  20
SIZE 0.3 0.4 1
TEMP -50.2(1)
HTAB O19 O5_$1
HTAB O20 O17_$2
HTAB O20 O17A_$2
HTAB O21 O12
HTAB C1 O1_$3
HTAB C1 O6_$4
HTAB C3 O6_$4
HTAB C11 O4_$5
HTAB C11 O8_$2
BOND
MORE -1
BOND $H
CONF
HTAB
ABIN
fmap 2 53
acta 52
OMIT 0 53.2
OMIT 0 2 3
OMIT 0 2 2
OMIT 0 2 1
REM <olex2.extras>
REM <HklSrc "%.\\g150427a_sq.hkl">
REM </olex2.extras>

WGHT    0.049700
FVAR       3.22405
CO1   3    0.267604    0.888793    1.508348    11.00000    0.01991    0.01719 =
         0.01668    0.00116   -0.00058   -0.00577
CO2   3    0.492779    1.019184    1.406031    11.00000    0.01847    0.01949 =
         0.01499   -0.00341    0.00072   -0.00496
CO3   3    0.736622    0.586675    0.974742    11.00000    0.01813    0.01680 =
         0.01684   -0.00152    0.00108   -0.00451
CO4   3    0.500623    0.464007    0.918047    11.00000    0.01840    0.01857 =
         0.02060   -0.00542    0.00217   -0.00559
O1    5    0.818330    1.029264    0.591254    11.00000    0.02712    0.02246 =
         0.01940    0.00525   -0.00516   -0.00797
O2    5    0.696886    0.912776    0.601365    11.00000    0.01751    0.02157 =
         0.02304   -0.00140   -0.00201   -0.00501
O3    5    0.741378    0.660367    0.846295    11.00000    0.02581    0.03174 =
         0.03184    0.00793    0.00180   -0.00868
O4    5    0.902532    0.646247    0.927035    11.00000    0.02563    0.03397 =
         0.02250    0.00903    0.00188   -0.00343
O5    5    0.278051    0.783324    0.617967    11.00000    0.02668    0.03105 =
         0.02529    0.00529   -0.00208   -0.01382
O6    5    0.095336    0.820268    0.558158    11.00000    0.03029    0.02909 =
         0.02481    0.00755   -0.00222   -0.00689
O7    5    0.447049    0.916600    1.502209    11.00000    0.02003    0.01652 =
         0.01566   -0.00056    0.00039   -0.00317
O8    5    0.178807    0.460353    0.915281    11.00000    0.02580    0.02414 =
         0.01872    0.00416   -0.00032   -0.00790
O9    5    0.332096    0.548108    0.873470    11.00000    0.02105    0.02557 =
         0.02685    0.00216   -0.00378   -0.00561
O10   5    0.555274    0.573462    0.961561    11.00000    0.01874    0.01517 =
         0.02069   -0.00153    0.00062   -0.00349
O11   5    0.448529    0.969336    1.306705    11.00000    0.03611    0.03362 =
         0.02519   -0.01682   -0.00060   -0.00362
O12   5    0.448534    0.814330    1.321628    11.00000    0.14249    0.03797 =
         0.04605   -0.01399    0.05427   -0.02366
O13   5    0.682098    0.718243    1.006520    11.00000    0.03310    0.01798 =
         0.02376   -0.00877    0.00827   -0.00562
O14   5    0.557083    0.656475    1.104831    11.00000    0.03372    0.02188 =
         0.02743   -0.00746    0.00758   -0.01166
O15   5    0.591139    1.139313    1.043470    11.00000    0.05430    0.02153 =
         0.04411   -0.00224   -0.00169   -0.00858
PART 1
O16   5    0.705385    1.063261    0.972420    10.75000    0.06288    0.03018 =
         0.02930   -0.00125    0.01430   -0.01394
PART 0
PART 2
O16A  5    0.746666    1.048025    0.991927    10.25000    0.07956    0.02184 =
         0.05653    0.00434    0.04563   -0.00801
PART 0
PART 1
O17   5   -0.180231    0.482784    0.747365    10.75000    0.03577    0.04914 =
         0.05151    0.00832   -0.00230   -0.02501
PART 0
PART 2
O17A  5   -0.158647    0.463192    0.723466    10.25000    0.04813    0.04798 =
         0.05633    0.00171   -0.00652   -0.03795
PART 0
PART 1
O18   5   -0.211113    0.586751    0.637243    10.50000    0.03367    0.05388 =
         0.03988    0.00689   -0.01910   -0.01743
PART 0
PART 2
O18A  5   -0.234325    0.613487    0.662520    10.30000    0.02505    0.07202 =
         0.04175    0.00790   -0.01393   -0.00948
PART 0
PART 3
O18B  5   -0.181329    0.562856    0.615317    10.20000    0.05540    0.07976 =
         0.05381   -0.02721   -0.01385   -0.01787
PART 0
O19   5    0.532001    1.141446    1.324770    11.00000    0.03814    0.03990 =
         0.02371    0.00309   -0.00651   -0.02053
AFIX   7
H19A  2    0.611298    1.154304    1.330249    11.00000   -1.50000
H19B  2    0.522642    1.135583    1.273470    11.00000   -1.50000
AFIX   0
O20   5    0.560959    0.507820    0.798199    11.00000    0.03879    0.05378 =
         0.02958    0.00573    0.01166    0.00018
AFIX   7
H20A  2    0.516556    0.563786    0.771522    11.00000   -1.50000
H20B  2    0.644019    0.518245    0.795301    11.00000   -1.50000
AFIX   0
O21   5    0.301402    0.779494    1.444909    11.00000    0.05963    0.02545 =
         0.04409   -0.01178    0.02476   -0.01535
AFIX   7
H21A  2    0.321589    0.724415    1.477808    11.00000   -1.50000
H21B  2    0.363860    0.789360    1.411431    11.00000   -1.50000
AFIX   0
O22   5    1.182946    0.985018    0.766093    11.00000    0.06022    0.09592 =
         0.06089    0.02237   -0.02118   -0.05821
PART 1
O23   5    1.218906    0.859542    0.857167    10.45000    0.06951    0.09234 =
         0.09540    0.03556   -0.06285   -0.04409
PART 0
PART 2
O23A  5    1.161879    0.906623    0.885954    10.55000    0.09113    0.11678 =
         0.05363    0.01876   -0.03651   -0.06400
PART 0
N1    4    1.224296    0.004749    0.566109    11.00000    0.02292    0.02290 =
         0.01897   -0.00131    0.00332   -0.00442
N2    4    1.317545    0.045024    0.595123    11.00000    0.01779    0.02699 =
         0.02093   -0.00406    0.00191   -0.00429
N3    4    1.143476    0.138432    0.594347    11.00000    0.02549    0.02843 =
         0.02525   -0.00629    0.00103    0.00291
N4    4    0.866702    0.307504    0.945857    11.00000    0.02603    0.02284 =
         0.02255   -0.00427    0.00202    0.00162
N5    4    0.781466    0.449658    0.949114    11.00000    0.02070    0.01927 =
         0.02212   -0.00279    0.00065   -0.00488
N6    4    0.687973    0.395566    0.940437    11.00000    0.02056    0.02224 =
         0.03089   -0.00908    0.00315   -0.00596
N7    4    0.641858    1.064410    1.030674    11.00000    0.04048    0.02763 =
         0.02815   -0.00720   -0.00001   -0.01389
N8    4    1.144008    0.918975    0.809153    11.00000    0.06046    0.09564 =
         0.05721    0.03093   -0.03784   -0.05298
N9    4   -0.147997    0.547916    0.696216    11.00000    0.04034    0.06465 =
         0.06543    0.02857   -0.02185   -0.02963
C1    1    1.120947    0.062454    0.565674    11.00000    0.02144    0.03264 =
         0.02201   -0.00477   -0.00045   -0.00453
AFIX  43
H1    2    1.042623    0.052186    0.547917    11.00000   -1.20000
AFIX   0
C2    1    1.266515    0.124748    0.612097    11.00000    0.02617    0.03370 =
         0.02870   -0.01147   -0.00176   -0.00410
AFIX  43
H2    2    1.309589    0.166522    0.633615    11.00000   -1.20000
AFIX   0
C3    1    1.051475    0.219858    0.604292    11.00000    0.03718    0.03453 =
         0.03556   -0.01168   -0.00081    0.00985
AFIX  23
H3A   2    0.972593    0.216024    0.577922    11.00000   -1.20000
H3B   2    1.082622    0.278734    0.578254    11.00000   -1.20000
AFIX   0
C4    1    1.028359    0.221488    0.691512    11.00000    0.02923    0.02981 =
         0.03185   -0.01172   -0.00049    0.00973
C5    1    1.103631    0.265872    0.733359    11.00000    0.02801    0.04669 =
         0.03984   -0.01435    0.00716   -0.00673
AFIX  43
H5    2    1.169273    0.295806    0.707106    11.00000   -1.20000
AFIX   0
C6    1    1.083337    0.266684    0.813490    11.00000    0.02713    0.04301 =
         0.03984   -0.01948   -0.00221   -0.00131
AFIX  43
H6    2    1.134972    0.297393    0.841106    11.00000   -1.20000
AFIX   0
C7    1    0.987516    0.222574    0.853192    11.00000    0.02976    0.02655 =
         0.02918   -0.01177    0.00159    0.00643
C8    1    0.911782    0.178676    0.811229    11.00000    0.03871    0.03848 =
         0.04726   -0.02142    0.01347   -0.00989
AFIX  43
H8    2    0.846040    0.148895    0.837506    11.00000   -1.20000
AFIX   0
C9    1    0.931435    0.178038    0.731533    11.00000    0.03435    0.04468 =
         0.05085   -0.02627    0.00172   -0.00819
AFIX  43
H9    2    0.878951    0.148002    0.703892    11.00000   -1.20000
AFIX   0
C10   1    0.961969    0.227301    0.939924    11.00000    0.03764    0.02513 =
         0.03534   -0.00410    0.00151    0.01185
AFIX  23
H10A  2    0.932813    0.168281    0.967514    11.00000   -1.20000
H10B  2    1.039385    0.234454    0.966341    11.00000   -1.20000
AFIX   0
C11   1    0.887056    0.395333    0.952131    11.00000    0.01917    0.02560 =
         0.02021   -0.00350    0.00202   -0.00066
AFIX  43
H11   2    0.965946    0.414493    0.957845    11.00000   -1.20000
AFIX   0
C12   1    0.742101    0.311211    0.938018    11.00000    0.02949    0.02142 =
         0.03386   -0.00989    0.00618   -0.00475
AFIX  43
H12   2    0.700137    0.260235    0.931703    11.00000   -1.20000
AFIX   0
C13   1    0.785916    0.949536    0.623418    11.00000    0.01927    0.01826 =
         0.01721   -0.00186    0.00144   -0.00330
C14   1    0.862307    0.896597    0.695120    11.00000    0.01850    0.02465 =
         0.01641    0.00128    0.00058   -0.00430
C15   1    0.824001    0.815570    0.741916    11.00000    0.01799    0.02565 =
         0.02094   -0.00068    0.00118   -0.00779
AFIX  43
H15   2    0.752168    0.792313    0.727011    11.00000   -1.20000
AFIX   0
C16   1    0.891076    0.768490    0.810713    11.00000    0.01845    0.02923 =
         0.01943    0.00322    0.00373   -0.00210
C17   1    0.996835    0.801335    0.832813    11.00000    0.02841    0.04186 =
         0.01917    0.00820   -0.00424   -0.00714
AFIX  43
H17   2    1.042723    0.770201    0.879080    11.00000   -1.20000
AFIX   0
C18   1    1.033819    0.881572    0.784978    11.00000    0.03194    0.04665 =
         0.03072    0.00570   -0.01012   -0.01838
C19   1    0.968422    0.930200    0.717798    11.00000    0.02564    0.02879 =
         0.02343    0.00372   -0.00014   -0.01095
AFIX  43
H19   2    0.995131    0.985454    0.687596    11.00000   -1.20000
AFIX   0
C20   1    0.843185    0.685744    0.864021    11.00000    0.02446    0.02491 =
         0.02221    0.00145    0.00863    0.00217
C21   1    0.226693    0.523678    0.866196    11.00000    0.02387    0.01877 =
         0.01882   -0.00450    0.00422   -0.00248
C22   1    0.149784    0.570927    0.793185    11.00000    0.01876    0.02277 =
         0.01864   -0.00053    0.00135   -0.00283
C23   1    0.189540    0.647025    0.739203    11.00000    0.01798    0.02339 =
         0.02140   -0.00134    0.00145   -0.00573
AFIX  43
H23   2    0.265387    0.668698    0.748792    11.00000   -1.20000
AFIX   0
C24   1    0.117970    0.691213    0.671236    11.00000    0.02266    0.02388 =
         0.01728    0.00099    0.00261   -0.00583
C25   1    0.006282    0.659078    0.656292    11.00000    0.02648    0.02921 =
         0.02490    0.00507   -0.00612   -0.00642
AFIX  43
H25   2   -0.043106    0.688058    0.610937    11.00000   -1.20000
AFIX   0
C26   1   -0.030131    0.582866    0.710394    11.00000    0.02153    0.03499 =
         0.03612    0.00447   -0.00371   -0.01137
C27   1    0.039172    0.538502    0.777853    11.00000    0.02422    0.02440 =
         0.02772    0.00556    0.00260   -0.00696
AFIX  43
H27   2    0.011535    0.486870    0.812957    11.00000   -1.20000
AFIX   0
C28   1    0.164377    0.770517    0.612159    11.00000    0.02816    0.02215 =
         0.01593   -0.00438    0.00278   -0.00745
C29   1    0.614900    0.721554    1.066900    11.00000    0.02306    0.02011 =
         0.02180   -0.00492   -0.00006   -0.00508
C30   1    0.599206    0.811780    1.097847    11.00000    0.02108    0.02311 =
         0.02287   -0.00778   -0.00116   -0.00650
C31   1    0.636594    0.894101    1.053140    11.00000    0.02475    0.02586 =
         0.02335   -0.00620    0.00314   -0.00782
AFIX  43
H31   2    0.678659    0.893721    1.004683    11.00000   -1.20000
AFIX   0
C32   1    0.610549    0.976525    1.081516    11.00000    0.02723    0.02050 =
         0.02525   -0.00490   -0.00164   -0.01105
C33   1    0.554953    0.979364    1.154497    11.00000    0.02742    0.02171 =
         0.02702   -0.01032   -0.00038   -0.00575
AFIX  43
H33   2    0.539791    1.036403    1.172676    11.00000   -1.20000
AFIX   0
C34   1    0.521915    0.895832    1.200476    11.00000    0.02584    0.02550 =
         0.02223   -0.00829   -0.00073   -0.00918
C35   1    0.542954    0.813252    1.170687    11.00000    0.03119    0.02328 =
         0.02074   -0.00740    0.00419   -0.01095
AFIX  43
H35   2    0.518318    0.757197    1.200830    11.00000   -1.20000
AFIX   0
C36   1    0.467003    0.893291    1.282531    11.00000    0.04263    0.03026 =
         0.02449   -0.00810    0.00719   -0.00846
H7    2    0.506753    0.866918    1.507498    11.00000    0.03449
H10   2    0.505091    0.626625    0.940961    11.00000    0.05381
HKLF 4

REM  g150427a in P-1 #2
REM R1 =  0.0388 for    8732 Fo > 4sig(Fo)  and  0.0529 for all   10935 data
REM    705 parameters refined using     27 restraints

END

WGHT      0.0499      0.0000

REM Instructions for potential hydrogen bonds
HTAB O19 O5_$1
HTAB O20 O17_$2
HTAB O20 O17A_$2
HTAB O21 O12
HTAB C1 O1_$3
HTAB C1 O6_$4
HTAB C3 O6_$4
HTAB C11 O4_$5
HTAB C11 O8_$2

REM Highest difference peak  1.318,  deepest hole -0.407,  1-sigma level  0.077
Q1    1   0.3048  0.6963  1.4547  11.00000  0.05    1.32
Q2    1   0.5981  0.4260  0.9361  11.00000  0.05    0.51
Q3    1   0.3722  0.8354  1.2949  11.00000  0.05    0.47
Q4    1   0.5812  0.9945  1.4393  11.00000  0.05    0.46
Q5    1   0.5830  0.4380  0.9513  11.00000  0.05    0.46
Q6    1   0.6483  0.6128  0.9546  11.00000  0.05    0.45
Q7    1   0.4059  1.0428  1.3813  11.00000  0.05    0.44
Q8    1   0.6046  0.7493  0.8040  11.00000  0.05    0.43
Q9    1   0.8170  0.5657  0.9472  11.00000  0.05    0.41
Q10   1   0.8201  0.5724  0.9665  11.00000  0.05    0.41
Q11   1   0.8232  0.5648  0.9958  11.00000  0.05    0.41
Q12   1   1.1924  0.8809  0.8795  11.00000  0.05    0.40
Q13   1   0.4199  0.4850  0.8885  11.00000  0.05    0.40
Q14   1   0.5804  0.4555  0.8789  11.00000  0.05    0.40
Q15   1   0.4776  1.1660  1.2033  11.00000  0.05    0.39
Q16   1   0.1872  0.9040  1.5415  11.00000  0.05    0.38
Q17   1   0.5815  1.0012  1.3771  11.00000  0.05    0.37
Q18   1   0.9586  0.6413  0.9202  11.00000  0.05    0.37
Q19   1   0.4997  1.1685  1.2821  11.00000  0.05    0.37
Q20   1   0.5080  0.5027  0.8619  11.00000  0.05    0.37
;
_shelx_res_checksum              61777
_shelx_fab_checksum              55043
_shelx_fab_file
;
    0    0    3    -21.32      0.00
    0    0    4    -10.25      0.00
    0    0    5      7.40      0.00
    0    0    6     10.62      0.00
    0    0    7     12.10      0.00
    0    0    8    -18.22      0.00
    0    0    9      5.96      0.00
    0    0   10    -12.17      0.00
    0    0   11      9.95      0.00
    0    0   12      1.51      0.00
    0    0   13      1.23      0.00
    0    0   14     -2.30      0.00
    0    0   15     -2.71      0.00
    0    0   16     -2.07      0.00
    0    0   17      4.38      0.00
    0    0   18      1.01      0.00
    0    0   19     -1.18      0.00
    0    0   20      0.82      0.00
    0    0   21     -2.15      0.00
    0   -1   20     -0.28      0.00
    0   -1   19      2.00      0.00
    0   -1   18      3.24      0.00
    0   -1   17     -4.02      0.00
    0   -1   16     -1.35      0.00
    0   -1   15     -0.92      0.00
    0   -1   14      0.30      0.00
    0   -1   13      3.76      0.00
    0   -1   12      5.41      0.00
    0   -1   11     -7.59      0.00
    0   -1   10     -5.72      0.00
    0   -1    9      2.64      0.00
    0   -1    8     -0.75      0.00
    0   -1    7     13.78      0.00
    0   -1    6      3.44      0.00
    0   -1    5    -15.70      0.00
    0   -1    4     -7.54      0.00
    0   -1    3     -1.56      0.00
    0   -1    2     -7.31      0.00
    0    1    3     -4.02      0.00
    0    1    4     14.10      0.00
    0    1    5     17.92      0.00
    0    1    6     -0.13      0.00
    0    1    7    -19.62      0.00
    0    1    8     12.06      0.00
    0    1    9    -17.67      0.00
    0    1   10     13.40      0.00
    0    1   11      6.07      0.00
    0    1   12     -5.89      0.00
    0    1   13      0.23      0.00
    0    1   14     -5.23      0.00
    0    1   15      2.21      0.00
    0    1   16      2.09      0.00
    0    1   17      2.04      0.00
    0    1   18     -1.19      0.00
    0    1   19     -0.37      0.00
    0    1   20     -2.69      0.00
    0    1   21      1.24      0.00
    0   -2   20      0.95      0.00
    0   -2   19      0.91      0.00
    0   -2   18     -1.53      0.00
    0   -2   17     -2.22      0.00
    0   -2   16      1.24      0.00
    0   -2   15     -2.54      0.00
    0   -2   14      8.24      0.00
    0   -2   13     -1.90      0.00
    0   -2   12     -3.75      0.00
    0   -2   11     -5.12      0.00
    0   -2   10      6.06      0.00
    0   -2    9     -5.45      0.00
    0   -2    8     17.14      0.00
    0   -2    7     -1.80      0.00
    0   -2    6    -25.43      0.00
    0   -2    5     13.49      0.00
    0   -2    4    -14.25      0.00
    0   -2    3     26.80      0.00
    0   -2    2      0.02      0.00
    0   -2    1      4.24      0.00
    0    2    0     -7.94      0.00
    0    2    4     29.72      0.00
    0    2    5    -27.23      0.00
    0    2    6      6.73      0.00
    0    2    7     -9.35      0.00
    0    2    8     -4.36      0.00
    0    2    9     14.04      0.00
    0    2   10      4.79      0.00
    0    2   11    -10.90      0.00
    0    2   12      3.55      0.00
    0    2   13     -6.11      0.00
    0    2   14      3.11      0.00
    0    2   15      3.20      0.00
    0    2   16      1.31      0.00
    0    2   17     -2.21      0.00
    0    2   18     -1.74      0.00
    0    2   19      0.14      0.00
    0    2   20     -0.14      0.00
    0    2   21      1.82      0.00
    0   -3   20      0.91      0.00
    0   -3   19     -1.75      0.00
    0   -3   18     -2.24      0.00
    0   -3   17      2.35      0.00
    0   -3   16     -1.37      0.00
    0   -3   15      6.08      0.00
    0   -3   14     -3.46      0.00
    0   -3   13     -2.39      0.00
    0   -3   12     -1.84      0.00
    0   -3   11      1.03      0.00
    0   -3   10      3.42      0.00
    0   -3    9      7.17      0.00
    0   -3    8     -4.06      0.00
    0   -3    7    -20.55      0.00
    0   -3    6     18.43      0.00
    0   -3    5    -14.83      0.00
    0   -3    4     23.03      0.00
    0   -3    3      5.03      0.00
    0   -3    2     -2.70      0.00
    0   -3    1    -34.81      0.00
    0    3    0     16.95      0.00
    0    3    1     11.44      0.00
    0    3    2    -14.72      0.00
    0    3    3     45.19      0.00
    0    3    4    -45.44      0.00
    0    3    5     17.72      0.00
    0    3    6    -20.06      0.00
    0    3    7     12.15      0.00
    0    3    8      6.38      0.00
    0    3    9      2.54      0.00
    0    3   10     -6.01      0.00
    0    3   11     -2.52      0.00
    0    3   12     -2.09      0.00
    0    3   13      1.42      0.00
    0    3   14      7.17      0.00
    0    3   15     -2.94      0.00
    0    3   16     -1.48      0.00
    0    3   17     -1.86      0.00
    0    3   18      0.61      0.00
    0    3   19     -0.40      0.00
    0    3   20      3.55      0.00
    0    3   21     -1.52      0.00
    0   -4   19      0.39      0.00
    0   -4   18      0.78      0.00
    0   -4   17      0.55      0.00
    0   -4   16      1.21      0.00
    0   -4   15      0.46      0.00
    0   -4   14     -5.14      0.00
    0   -4   13      1.84      0.00
    0   -4   12     -0.02      0.00
    0   -4   11      4.37      0.00
    0   -4   10      1.54      0.00
    0   -4    9     -3.95      0.00
    0   -4    8    -10.42      0.00
    0   -4    7      6.58      0.00
    0   -4    6      0.65      0.00
    0   -4    5      9.42      0.00
    0   -4    4     13.94      0.00
    0   -4    3    -33.78      0.00
    0   -4    2      5.85      0.00
    0   -4    1      4.07      0.00
    0    4    0     -1.53      0.00
    0    4    1     14.09      0.00
    0    4    2     19.69      0.00
    0    4    3    -40.82      0.00
    0    4    4      9.15      0.00
    0    4    5      0.55      0.00
    0    4    6     -1.13      0.00
    0    4    7     14.52      0.00
    0    4    8     -2.21      0.00
    0    4    9     -7.07      0.00
    0    4   10     -5.24      0.00
    0    4   11      5.19      0.00
    0    4   12     -1.23      0.00
    0    4   13      6.84      0.00
    0    4   14     -3.65      0.00
    0    4   15     -2.22      0.00
    0    4   16     -0.70      0.00
    0    4   17     -0.62      0.00
    0    4   18      3.01      0.00
    0    4   19      1.23      0.00
    0    4   20     -1.66      0.00
    0    4   21     -0.55      0.00
    0   -5   19      0.06      0.00
    0   -5   18      1.75      0.00
    0   -5   17     -0.47      0.00
    0   -5   16      1.05      0.00
    0   -5   15     -6.11      0.00
    0   -5   14      4.20      0.00
    0   -5   13      0.61      0.00
    0   -5   12      0.70      0.00
    0   -5   11      4.30      0.00
    0   -5   10     -9.16      0.00
    0   -5    9     -1.80      0.00
    0   -5    8      1.03      0.00
    0   -5    7      9.69      0.00
    0   -5    6     -2.55      0.00
    0   -5    5     10.21      0.00
    0   -5    4    -26.12      0.00
    0   -5    3     10.78      0.00
    0   -5    2     -6.99      0.00
    0   -5    1     13.08      0.00
    0    5    0     16.04      0.00
    0    5    1    -14.21      0.00
    0    5    2     -8.75      0.00
    0    5    3     -7.05      0.00
    0    5    4     15.58      0.00
    0    5    5    -14.36      0.00
    0    5    6     29.76      0.00
    0    5    7    -17.59      0.00
    0    5    8     -5.84      0.00
    0    5    9      3.06      0.00
    0    5   10     -0.24      0.00
    0    5   11      1.87      0.00
    0    5   12      4.34      0.00
    0    5   13     -1.53      0.00
    0    5   14     -6.61      0.00
    0    5   15      3.47      0.00
    0    5   16     -1.70      0.00
    0    5   17      4.14      0.00
    0    5   18     -0.45      0.00
    0    5   19     -0.35      0.00
    0    5   20     -1.66      0.00
    0    5   21     -0.18      0.00
    0   -6   18     -0.05      0.00
    0   -6   17     -0.28      0.00
    0   -6   16     -2.86      0.00
    0   -6   15      2.79      0.00
    0   -6   14      0.75      0.00
    0   -6   13     -0.21      0.00
    0   -6   12      3.81      0.00
    0   -6   11     -9.38      0.00
    0   -6   10      1.73      0.00
    0   -6    9      2.33      0.00
    0   -6    8      3.91      0.00
    0   -6    7      0.35      0.00
    0   -6    6      1.61      0.00
    0   -6    5    -12.20      0.00
    0   -6    4     -3.49      0.00
    0   -6    3     13.74      0.00
    0   -6    2      2.69      0.00
    0   -6    1      3.61      0.00
    0    6    0     -4.98      0.00
    0    6    1     -9.13      0.00
    0    6    2     -6.70      0.00
    0    6    3     15.38      0.00
    0    6    4     -4.35      0.00
    0    6    5     17.05      0.00
    0    6    6    -18.49      0.00
    0    6    7     -0.89      0.00
    0    6    8      2.70      0.00
    0    6    9     -2.95      0.00
    0    6   10      8.82      0.00
    0    6   11     -1.04      0.00
    0    6   12     -2.72      0.00
    0    6   13     -5.58      0.00
    0    6   14      5.58      0.00
    0    6   15     -2.08      0.00
    0    6   16      3.06      0.00
    0    6   17      1.32      0.00
    0    6   18     -3.31      0.00
    0    6   19     -0.25      0.00
    0    6   20     -0.46      0.00
    0    6   21      1.04      0.00
    0   -7   17     -0.93      0.00
    0   -7   16      1.56      0.00
    0   -7   15      0.85      0.00
    0   -7   14      0.52      0.00
    0   -7   13     -0.33      0.00
    0   -7   12     -3.59      0.00
    0   -7   11     -1.43      0.00
    0   -7   10      6.62      0.00
    0   -7    9     -2.73      0.00
    0   -7    8      5.54      0.00
    0   -7    7     -6.71      0.00
    0   -7    6     -5.13      0.00
    0   -7    5     -0.97      0.00
    0   -7    4     15.67      0.00
    0   -7    3     -7.48      0.00
    0   -7    2      5.39      0.00
    0   -7    1      1.10      0.00
    0    7    0    -26.38      0.00
    0    7    1     21.07      0.00
    0    7    2     -2.33      0.00
    0    7    3      7.24      0.00
    0    7    4     -1.30      0.00
    0    7    5     -4.39      0.00
    0    7    6     -6.46      0.00
    0    7    7      0.85      0.00
    0    7    8      7.64      0.00
    0    7    9     -0.54      0.00
    0    7   10      1.86      0.00
    0    7   11     -5.86      0.00
    0    7   12     -0.60      0.00
    0    7   13      1.84      0.00
    0    7   14      1.31      0.00
    0    7   15      1.60      0.00
    0    7   16      0.49      0.00
    0    7   17     -4.69      0.00
    0    7   18      2.43      0.00
    0    7   19     -1.67      0.00
    0    7   20      1.39      0.00
    0    7   21      0.01      0.00
    0   -8   17      1.48      0.00
    0   -8   16     -0.34      0.00
    0   -8   15      0.74      0.00
    0   -8   14     -1.77      0.00
    0   -8   13     -0.10      0.00
    0   -8   12     -2.96      0.00
    0   -8   11      7.58      0.00
    0   -8   10     -4.38      0.00
    0   -8    9      3.78      0.00
    0   -8    8     -5.10      0.00
    0   -8    7     -4.30      0.00
    0   -8    6      5.29      0.00
    0   -8    5      3.85      0.00
    0   -8    4      1.08      0.00
    0   -8    3      0.04      0.00
    0   -8    2     -3.83      0.00
    0   -8    1    -16.97      0.00
    0    8    0     25.39      0.00
    0    8    1    -13.20      0.00
    0    8    2     13.19      0.00
    0    8    3     -5.08      0.00
    0    8    4     -4.94      0.00
    0    8    5     -6.88      0.00
    0    8    6      6.00      0.00
    0    8    7      9.42      0.00
    0    8    8    -11.01      0.00
    0    8    9     12.55      0.00
    0    8   10    -14.48      0.00
    0    8   11      4.43      0.00
    0    8   12      1.04      0.00
    0    8   13      3.04      0.00
    0    8   14     -0.35      0.00
    0    8   15     -1.68      0.00
    0    8   16     -1.32      0.00
    0    8   17     -0.50      0.00
    0    8   18      0.90      0.00
    0    8   19      1.30      0.00
    0    8   20     -0.40      0.00
    0   -9   16      0.18      0.00
    0   -9   15     -1.18      0.00
    0   -9   14     -0.94      0.00
    0   -9   13      0.36      0.00
    0   -9   12      3.82      0.00
    0   -9   11     -1.90      0.00
    0   -9   10     -0.62      0.00
    0   -9    9     -0.11      0.00
    0   -9    8     -6.14      0.00
    0   -9    7      8.31      0.00
    0   -9    6     -0.38      0.00
    0   -9    5      2.98      0.00
    0   -9    4     -4.81      0.00
    0   -9    3     -3.17      0.00
    0   -9    2     -3.39      0.00
    0   -9    1      7.99      0.00
    0    9    0      0.58      0.00
    0    9    1      3.66      0.00
    0    9    2     -3.41      0.00
    0    9    3     -8.44      0.00
    0    9    4      1.64      0.00
    0    9    5      5.20      0.00
    0    9    6      2.44      0.00
    0    9    7     -4.04      0.00
    0    9    8      7.90      0.00
    0    9    9    -15.50      0.00
    0    9   10      8.74      0.00
    0    9   11      1.42      0.00
    0    9   12     -0.23      0.00
    0    9   13      1.05      0.00
    0    9   14     -2.52      0.00
    0    9   15     -0.61      0.00
    0    9   16     -2.19      0.00
    0    9   17      4.86      0.00
    0    9   18     -1.26      0.00
    0    9   19     -0.19      0.00
    0    9   20      0.97      0.00
    0  -10   15     -1.16      0.00
    0  -10   14      2.12      0.00
    0  -10   13      0.12      0.00
    0  -10   12      0.14      0.00
    0  -10   11     -1.53      0.00
    0  -10   10      0.58      0.00
    0  -10    9     -4.08      0.00
    0  -10    8      6.26      0.00
    0  -10    7      0.65      0.00
    0  -10    6     -2.33      0.00
    0  -10    5      0.19      0.00
    0  -10    4     -4.60      0.00
    0  -10    3      0.54      0.00
    0  -10    2      2.70      0.00
    0  -10    1      8.01      0.00
    0   10    0     -8.06      0.00
    0   10    1      1.69      0.00
    0   10    2     -5.35      0.00
    0   10    3     -0.25      0.00
    0   10    4      6.49      0.00
    0   10    5     -0.98      0.00
    0   10    6      2.67      0.00
    0   10    7     -4.90      0.00
    0   10    8     -2.96      0.00
    0   10    9      4.21      0.00
    0   10   10      1.61      0.00
    0   10   11     -0.40      0.00
    0   10   12      1.51      0.00
    0   10   13     -3.17      0.00
    0   10   14     -2.49      0.00
    0   10   15      2.52      0.00
    0   10   16      2.14      0.00
    0   10   17     -0.93      0.00
    0   10   18      0.00      0.00
    0   10   19      0.84      0.00
    0  -11   14      0.55      0.00
    0  -11   13     -0.81      0.00
    0  -11   12     -0.25      0.00
    0  -11   11     -1.38      0.00
    0  -11   10      0.60      0.00
    0  -11    9      1.82      0.00
    0  -11    8      1.90      0.00
    0  -11    7     -4.46      0.00
    0  -11    6      2.86      0.00
    0  -11    5     -5.52      0.00
    0  -11    4      2.20      0.00
    0  -11    3      5.08      0.00
    0  -11    2      0.33      0.00
    0  -11    1     -4.29      0.00
    0   11    0      1.17      0.00
    0   11    1     -3.50      0.00
    0   11    2     -3.08      0.00
    0   11    3     12.33      0.00
    0   11    4     -6.60      0.00
    0   11    5      2.46      0.00
    0   11    6     -4.82      0.00
    0   11    7      1.90      0.00
    0   11    8     -0.75      0.00
    0   11    9      4.36      0.00
    0   11   10     -0.10      0.00
    0   11   11     -2.72      0.00
    0   11   12     -0.14      0.00
    0   11   13     -2.68      0.00
    0   11   14      5.40      0.00
    0   11   15     -2.67      0.00
    0   11   16      1.97      0.00
    0   11   17     -1.08      0.00
    0   11   18      0.47      0.00
    0   11   19     -2.09      0.00
    0  -12   12     -1.46      0.00
    0  -12   11      1.37      0.00
    0  -12   10      0.22      0.00
    0  -12    9      1.03      0.00
    0  -12    8     -2.52      0.00
    0  -12    7      0.49      0.00
    0  -12    6     -1.30      0.00
    0  -12    5      0.71      0.00
    0  -12    4      4.94      0.00
    0  -12    3     -3.87      0.00
    0  -12    2      1.38      0.00
    0  -12    1     -3.27      0.00
    0   12    0     -1.76      0.00
    0   12    1      0.99      0.00
    0   12    2      8.05      0.00
    0   12    3     -7.33      0.00
    0   12    4      2.73      0.00
    0   12    5     -1.21      0.00
    0   12    6     -3.17      0.00
    0   12    7      4.44      0.00
    0   12    8      2.18      0.00
    0   12    9     -1.87      0.00
    0   12   10     -2.76      0.00
    0   12   11      2.47      0.00
    0   12   12     -3.32      0.00
    0   12   13      4.44      0.00
    0   12   14     -1.14      0.00
    0   12   15      0.73      0.00
    0   12   16     -0.99      0.00
    0   12   17     -0.97      0.00
    0   12   18      0.49      0.00
    0  -13   11      1.62      0.00
    0  -13   10     -1.70      0.00
    0  -13    9      0.10      0.00
    0  -13    8     -1.16      0.00
    0  -13    7      1.49      0.00
    0  -13    6     -1.16      0.00
    0  -13    5      4.08      0.00
    0  -13    4     -2.50      0.00
    0  -13    3     -1.27      0.00
    0  -13    2     -1.04      0.00
    0  -13    1     -1.70      0.00
    0   13    0      4.67      0.00
    0   13    1     -0.29      0.00
    0   13    2     -0.10      0.00
    0   13    3     -1.36      0.00
    0   13    4     -0.23      0.00
    0   13    5     -2.74      0.00
    0   13    6      6.84      0.00
    0   13    7     -1.74      0.00
    0   13    8     -1.53      0.00
    0   13    9     -0.28      0.00
    0   13   10     -0.84      0.00
    0   13   11      0.18      0.00
    0   13   12      3.30      0.00
    0   13   13      0.03      0.00
    0   13   14     -3.12      0.00
    0   13   15      1.63      0.00
    0   13   16     -1.80      0.00
    0   13   17      2.40      0.00
    0  -14   10      1.39      0.00
    0  -14    9     -1.27      0.00
    0  -14    8      0.90      0.00
    0  -14    7      0.25      0.00
    0  -14    6      1.79      0.00
    0  -14    5     -1.81      0.00
    0  -14    4     -2.69      0.00
    0  -14    3      3.01      0.00
    0  -14    2     -3.91      0.00
    0  -14    1      5.57      0.00
    0   14    0     -2.45      0.00
    0   14    1      2.69      0.00
    0   14    2     -5.20      0.00
    0   14    3      2.59      0.00
    0   14    4     -1.06      0.00
    0   14    5      3.00      0.00
    0   14    6      0.37      0.00
    0   14    7     -2.75      0.00
    0   14    8      1.11      0.00
    0   14    9     -2.41      0.00
    0   14   10      3.63      0.00
    0   14   11     -0.21      0.00
    0   14   12      0.50      0.00
    0   14   13     -2.11      0.00
    0   14   14      0.98      0.00
    0   14   15     -1.33      0.00
    0   14   16      1.82      0.00
    0  -15    8      0.44      0.00
    0  -15    7     -0.03      0.00
    0  -15    6     -1.09      0.00
    0  -15    5     -0.20      0.00
    0  -15    4      0.36      0.00
    0  -15    3     -1.82      0.00
    0  -15    2      4.00      0.00
    0  -15    1     -0.87      0.00
    0   15    0     -0.62      0.00
    0   15    1     -2.60      0.00
    0   15    2      2.90      0.00
    0   15    3     -2.01      0.00
    0   15    4      3.16      0.00
    0   15    5      0.62      0.00
    0   15    6     -3.58      0.00
    0   15    7      1.75      0.00
    0   15    8     -1.05      0.00
    0   15    9      1.74      0.00
    0   15   10      0.31      0.00
    0   15   11      0.31      0.00
    0   15   12     -1.77      0.00
    0   15   13     -0.44      0.00
    0   15   14      1.70      0.00
    0   15   15     -0.24      0.00
    0  -16    6      1.25      0.00
    0  -16    5     -1.98      0.00
    0  -16    4      2.62      0.00
    0  -16    3     -0.83      0.00
    0  -16    2      0.93      0.00
    0  -16    1     -2.48      0.00
    0   16    0      1.16      0.00
    0   16    1      0.41      0.00
    0   16    2     -1.31      0.00
    0   16    3      4.20      0.00
    0   16    4     -2.96      0.00
    0   16    5      0.18      0.00
    0   16    6     -0.08      0.00
    0   16    7      0.97      0.00
    0   16    8     -1.24      0.00
    0   16    9      2.78      0.00
    0   16   10     -2.67      0.00
    0   16   11      0.27      0.00
    0   16   12      0.54      0.00
    0   16   13      0.91      0.00
    0  -17    3      2.05      0.00
    0  -17    2     -2.54      0.00
    0  -17    1      1.77      0.00
    0   17    0     -0.49      0.00
    0   17    1      0.26      0.00
    0   17    2      2.34      0.00
    0   17    3     -2.81      0.00
    0   17    4      1.56      0.00
    0   17    5     -1.49      0.00
    0   17    6      1.85      0.00
    0   17    7     -1.47      0.00
    0   17    8      2.59      0.00
    0   17    9     -3.64      0.00
    0   17   10      2.20      0.00
    0   17   11     -0.28      0.00
    0   18    1      0.33      0.00
    0   18    2     -0.89      0.00
    0   18    3     -0.40      0.00
    0   18    4      1.10      0.00
    0   18    5     -0.13      0.00
    0   18    6      0.03      0.00
    0   18    7      0.17      0.00
   -1   18    5      0.70      0.00
   -1   18    4     -1.25      0.00
   -1   17   10     -1.63      0.00
   -1   17    9      2.37      0.00
   -1   17    8     -0.22      0.00
   -1   17    7     -1.43      0.00
   -1   17    6      0.83      0.00
   -1   17    5     -1.21      0.00
   -1   17    4      1.80      0.00
   -1   17    3      0.41      0.00
   -1   17    2     -0.32      0.00
   -1   17    1     -0.31      0.00
   -1   17    0     -0.06      0.00
    1  -17    1     -0.80      0.00
    1  -17    2      1.54      0.00
   -1   16   13     -2.23      0.00
   -1   16   12      1.35      0.00
   -1   16   11     -1.00      0.00
   -1   16   10      3.49      0.00
   -1   16    9     -2.53      0.00
   -1   16    8     -0.64      0.00
   -1   16    7      1.39      0.00
   -1   16    6     -2.60      0.00
   -1   16    5      3.46      0.00
   -1   16    4     -0.06      0.00
   -1   16    3     -0.29      0.00
   -1   16    2     -1.20      0.00
   -1   16    1      0.38      0.00
   -1   16    0     -0.06      0.00
    1  -16    1      1.19      0.00
    1  -16    2      0.85      0.00
    1  -16    3     -1.53      0.00
    1  -16    4     -0.42      0.00
    1  -16    5     -0.03      0.00
   -1   15   15     -0.52      0.00
   -1   15   14     -1.11      0.00
   -1   15   13      0.19      0.00
   -1   15   12      1.68      0.00
   -1   15   11      1.16      0.00
   -1   15   10     -2.14      0.00
   -1   15    9      0.20      0.00
   -1   15    8     -0.91      0.00
   -1   15    7     -0.75      0.00
   -1   15    6      3.67      0.00
   -1   15    5      0.06      0.00
   -1   15    4     -2.10      0.00
   -1   15    3      0.70      0.00
   -1   15    2     -0.79      0.00
   -1   15    1      0.99      0.00
   -1   15    0      0.86      0.00
    1  -15    1      2.33      0.00
    1  -15    2     -5.53      0.00
    1  -15    3      3.04      0.00
    1  -15    4     -2.32      0.00
    1  -15    5      0.82      0.00
    1  -15    6      1.69      0.00
    1  -15    7     -0.56      0.00
   -1   14   16     -3.12      0.00
   -1   14   15      2.23      0.00
   -1   14   14     -1.26      0.00
   -1   14   13      2.31      0.00
   -1   14   12     -0.35      0.00
   -1   14   11     -0.79      0.00
   -1   14   10     -1.08      0.00
   -1   14    9     -1.76      0.00
   -1   14    8      3.31      0.00
   -1   14    7     -0.30      0.00
   -1   14    6      2.82      0.00
   -1   14    5     -4.94      0.00
   -1   14    4      3.15      0.00
   -1   14    3     -2.42      0.00
   -1   14    2      2.64      0.00
   -1   14    1      1.39      0.00
   -1   14    0     -0.82      0.00
    1  -14    1     -4.06      0.00
    1  -14    2      3.68      0.00
    1  -14    3     -3.82      0.00
    1  -14    4      2.60      0.00
    1  -14    5      2.49      0.00
    1  -14    6     -2.73      0.00
    1  -14    7      0.77      0.00
    1  -14    8     -1.67      0.00
    1  -14    9      1.26      0.00
   -1   13   17     -1.77      0.00
   -1   13   16      2.31      0.00
   -1   13   15     -1.56      0.00
   -1   13   14      1.80      0.00
   -1   13   13      0.69      0.00
   -1   13   12     -3.38      0.00
   -1   13   11     -0.40      0.00
   -1   13   10      0.64      0.00
   -1   13    9      1.95      0.00
   -1   13    8     -0.38      0.00
   -1   13    7      3.53      0.00
   -1   13    6     -6.76      0.00
   -1   13    5      3.65      0.00
   -1   13    4     -0.85      0.00
   -1   13    3      1.66      0.00
   -1   13    2      2.73      0.00
   -1   13    1     -4.58      0.00
   -1   13    0      0.40      0.00
    1  -13    1     -1.52      0.00
    1  -13    2      0.96      0.00
    1  -13    3      2.33      0.00
    1  -13    4      1.26      0.00
    1  -13    5     -3.17      0.00
    1  -13    6      0.24      0.00
    1  -13    7     -0.25      0.00
    1  -13    8     -0.74      0.00
    1  -13    9      1.45      0.00
    1  -13   10      0.70      0.00
    1  -13   11     -0.90      0.00
   -1   12   18      0.71      0.00
   -1   12   17      0.58      0.00
   -1   12   16      0.91      0.00
   -1   12   15     -0.22      0.00
   -1   12   14      0.15      0.00
   -1   12   13     -4.59      0.00
   -1   12   12      2.54      0.00
   -1   12   11      0.27      0.00
   -1   12   10     -0.27      0.00
   -1   12    9      4.77      0.00
   -1   12    8     -3.44      0.00
   -1   12    7     -2.87      0.00
   -1   12    6      1.81      0.00
   -1   12    5      2.02      0.00
   -1   12    4     -0.92      0.00
   -1   12    3      4.85      0.00
   -1   12    2     -6.34      0.00
   -1   12    1     -0.58      0.00
   -1   12    0     -0.73      0.00
    1  -12    1      4.30      0.00
    1  -12    2     -0.38      0.00
    1  -12    3      1.28      0.00
    1  -12    4     -2.49      0.00
    1  -12    5     -2.84      0.00
    1  -12    6      3.21      0.00
    1  -12    7     -2.76      0.00
    1  -12    8      4.83      0.00
    1  -12    9     -2.34      0.00
    1  -12   10     -0.68      0.00
    1  -12   11     -0.63      0.00
    1  -12   12      0.99      0.00
   -1   11   19      1.97      0.00
   -1   11   18     -0.28      0.00
   -1   11   17      0.62      0.00
   -1   11   16      0.27      0.00
   -1   11   15     -1.44      0.00
   -1   11   14     -2.32      0.00
   -1   11   13      0.25      0.00
   -1   11   12      1.61      0.00
   -1   11   11      1.65      0.00
   -1   11   10      2.87      0.00
   -1   11    9     -6.54      0.00
   -1   11    8      1.37      0.00
   -1   11    7     -0.42      0.00
   -1   11    6      2.99      0.00
   -1   11    5      0.53      0.00
   -1   11    4      2.76      0.00
   -1   11    3     -6.15      0.00
   -1   11    2     -3.69      0.00
   -1   11    1      7.38      0.00
   -1   11    0     -2.70      0.00
    1  -11    1      3.47      0.00
    1  -11    2      0.87      0.00
    1  -11    3     -5.67      0.00
    1  -11    4     -1.66      0.00
    1  -11    5      3.94      0.00
    1  -11    6     -1.25      0.00
    1  -11    7      3.64      0.00
    1  -11    8     -1.59      0.00
    1  -11    9     -3.02      0.00
    1  -11   10      1.27      0.00
    1  -11   11     -0.74      0.00
    1  -11   12      1.57      0.00
    1  -11   13      0.92      0.00
   -1   10   19      0.37      0.00
   -1   10   18     -0.31      0.00
   -1   10   17      2.43      0.00
   -1   10   16     -4.94      0.00
   -1   10   15      0.68      0.00
   -1   10   14     -1.85      0.00
   -1   10   13      5.54      0.00
   -1   10   12     -0.99      0.00
   -1   10   11     -0.84      0.00
   -1   10   10      0.21      0.00
   -1   10    9     -5.78      0.00
   -1   10    8      5.75      0.00
   -1   10    7      0.13      0.00
   -1   10    6      3.98      0.00
   -1   10    5     -3.50      0.00
   -1   10    4     -3.09      0.00
   -1   10    3     -3.69      0.00
   -1   10    2      8.99      0.00
   -1   10    1     -5.37      0.00
   -1   10    0      8.84      0.00
    1  -10    1     -4.38      0.00
    1  -10    2     -8.54      0.00
    1  -10    3      4.77      0.00
    1  -10    4     -0.42      0.00
    1  -10    5      4.64      0.00
    1  -10    6     -1.83      0.00
    1  -10    7      2.09      0.00
    1  -10    8     -7.82      0.00
    1  -10    9      4.52      0.00
    1  -10   10     -0.83      0.00
    1  -10   11      1.83      0.00
    1  -10   12      0.50      0.00
    1  -10   13     -1.71      0.00
    1  -10   14     -0.42      0.00
    1  -10   15      0.21      0.00
   -1    9   20      0.98      0.00
   -1    9   19     -1.08      0.00
   -1    9   18      1.52      0.00
   -1    9   17     -3.88      0.00
   -1    9   16      1.37      0.00
   -1    9   15     -0.59      0.00
   -1    9   14      3.91      0.00
   -1    9   13     -2.82      0.00
   -1    9   12      1.77      0.00
   -1    9   11     -0.73      0.00
   -1    9   10    -10.15      0.00
   -1    9    9     16.22      0.00
   -1    9    8     -8.28      0.00
   -1    9    7      6.86      0.00
   -1    9    6     -5.26      0.00
   -1    9    5     -3.61      0.00
   -1    9    4     -0.95      0.00
   -1    9    3      5.18      0.00
   -1    9    2      4.69      0.00
   -1    9    1     -1.76      0.00
   -1    9    0     -2.27      0.00
    1   -9    1     -8.73      0.00
    1   -9    2      6.37      0.00
    1   -9    3     -0.62      0.00
    1   -9    4      6.72      0.00
    1   -9    5     -3.45      0.00
    1   -9    6      1.30      0.00
    1   -9    7     -9.02      0.00
    1   -9    8      5.63      0.00
    1   -9    9      1.36      0.00
    1   -9   10     -0.79      0.00
    1   -9   11      3.17      0.00
    1   -9   12     -4.91      0.00
    1   -9   13      0.68      0.00
    1   -9   14      0.35      0.00
    1   -9   15      1.03      0.00
   -1    8   20     -0.98      0.00
   -1    8   19     -0.29      0.00
   -1    8   18     -0.36      0.00
   -1    8   17     -1.46      0.00
   -1    8   16      3.27      0.00
   -1    8   15     -0.15      0.00
   -1    8   14     -0.52      0.00
   -1    8   13      1.27      0.00
   -1    8   12     -6.87      0.00
   -1    8   11      0.99      0.00
   -1    8   10      9.92      0.00
   -1    8    9     -7.67      0.00
   -1    8    8      7.05      0.00
   -1    8    7     -5.44      0.00
   -1    8    6     -7.88      0.00
   -1    8    5      5.85      0.00
   -1    8    4      5.17      0.00
   -1    8    3      5.44      0.00
   -1    8    2    -10.77      0.00
   -1    8    1      6.98      0.00
   -1    8    0    -15.51      0.00
    1   -8    1      6.78      0.00
    1   -8    2     10.00      0.00
    1   -8    3     -3.65      0.00
    1   -8    4      3.53      0.00
    1   -8    5     -8.04      0.00
    1   -8    6     -2.72      0.00
    1   -8    7      4.00      0.00
    1   -8    8      4.07      0.00
    1   -8    9     -2.51      0.00
    1   -8   10      3.06      0.00
    1   -8   11     -6.28      0.00
    1   -8   12      1.19      0.00
    1   -8   13      2.23      0.00
    1   -8   14     -0.09      0.00
    1   -8   15      0.87      0.00
    1   -8   16     -1.56      0.00
   -1    7   20     -0.81      0.00
   -1    7   19      0.20      0.00
   -1    7   18     -1.30      0.00
   -1    7   17      4.61      0.00
   -1    7   16     -1.64      0.00
   -1    7   15     -0.91      0.00
   -1    7   14     -0.26      0.00
   -1    7   13     -6.26      0.00
   -1    7   12      7.94      0.00
   -1    7   11     -2.12      0.00
   -1    7   10      4.89      0.00
   -1    7    9     -3.33      0.00
   -1    7    8     -3.71      0.00
   -1    7    7     -4.56      0.00
   -1    7    6      5.89      0.00
   -1    7    5      9.85      0.00
   -1    7    4     -7.69      0.00
   -1    7    3      3.48      0.00
   -1    7    2     -6.53      0.00
   -1    7    1    -12.50      0.00
   -1    7    0     14.99      0.00
    1   -7    1     10.84      0.00
    1   -7    2    -13.25      0.00
    1   -7    3     11.78      0.00
    1   -7    4    -16.66      0.00
    1   -7    5      2.03      0.00
    1   -7    6      4.98      0.00
    1   -7    7      4.25      0.00
    1   -7    8     -1.12      0.00
    1   -7    9     -1.39      0.00
    1   -7   10     -3.28      0.00
    1   -7   11     -1.76      0.00
    1   -7   12      6.01      0.00
    1   -7   13     -1.74      0.00
    1   -7   14      1.21      0.00
    1   -7   15     -1.88      0.00
    1   -7   16     -0.93      0.00
    1   -7   17      0.28      0.00
   -1    6   21     -1.00      0.00
   -1    6   20     -0.91      0.00
   -1    6   19      1.53      0.00
   -1    6   18      1.79      0.00
   -1    6   17      0.12      0.00
   -1    6   16     -3.40      0.00
   -1    6   15      1.09      0.00
   -1    6   14     -4.59      0.00
   -1    6   13      5.27      0.00
   -1    6   12      1.29      0.00
   -1    6   11      3.62      0.00
   -1    6   10     -9.04      0.00
   -1    6    9      1.47      0.00
   -1    6    8     -1.64      0.00
   -1    6    7     -0.65      0.00
   -1    6    6     20.27      0.00
   -1    6    5    -20.88      0.00
   -1    6    4     14.63      0.00
   -1    6    3    -26.10      0.00
   -1    6    2      9.30      0.00
   -1    6    1     12.79      0.00
   -1    6    0      1.21      0.00
    1   -6    1     -0.67      0.00
    1   -6    2     -2.44      0.00
    1   -6    3    -11.69      0.00
    1   -6    4     -1.11      0.00
    1   -6    5     16.55      0.00
    1   -6    6     -2.87      0.00
    1   -6    7      0.41      0.00
    1   -6    8     -4.38      0.00
    1   -6    9     -2.44      0.00
    1   -6   10     -1.29      0.00
    1   -6   11      7.98      0.00
    1   -6   12     -2.68      0.00
    1   -6   13     -0.62      0.00
    1   -6   14      0.11      0.00
    1   -6   15     -3.40      0.00
    1   -6   16      3.23      0.00
    1   -6   17      0.54      0.00
    1   -6   18     -0.41      0.00
   -1    5   21     -0.03      0.00
   -1    5   20      1.35      0.00
   -1    5   19      0.41      0.00
   -1    5   18      0.76      0.00
   -1    5   17     -3.79      0.00
   -1    5   16      0.68      0.00
   -1    5   15     -2.36      0.00
   -1    5   14      3.64      0.00
   -1    5   13      6.44      0.00
   -1    5   12     -8.58      0.00
   -1    5   11      1.40      0.00
   -1    5   10     -3.05      0.00
   -1    5    9     -0.74      0.00
   -1    5    8      3.82      0.00
   -1    5    7     18.09      0.00
   -1    5    6    -26.19      0.00
   -1    5    5     11.10      0.00
   -1    5    4    -15.60      0.00
   -1    5    3      7.73      0.00
   -1    5    2     11.97      0.00
   -1    5    1      2.73      0.00
   -1    5    0      1.98      0.00
    1   -5    1    -21.86      0.00
    1   -5    2      7.46      0.00
    1   -5    3     -8.94      0.00
    1   -5    4     25.98      0.00
    1   -5    5     -9.19      0.00
    1   -5    6      1.02      0.00
    1   -5    7     -3.78      0.00
    1   -5    8     -8.66      0.00
    1   -5    9      7.49      0.00
    1   -5   10      3.80      0.00
    1   -5   11     -0.23      0.00
    1   -5   12     -3.34      0.00
    1   -5   13      1.29      0.00
    1   -5   14     -5.02      0.00
    1   -5   15      5.90      0.00
    1   -5   16     -0.31      0.00
    1   -5   17     -0.44      0.00
    1   -5   18     -0.38      0.00
   -1    4   21     -0.54      0.00
   -1    4   20      2.18      0.00
   -1    4   19     -1.84      0.00
   -1    4   18     -1.56      0.00
   -1    4   17     -0.68      0.00
   -1    4   16      0.72      0.00
   -1    4   15      2.20      0.00
   -1    4   14      4.59      0.00
   -1    4   13     -8.44      0.00
   -1    4   12      3.84      0.00
   -1    4   11     -8.14      0.00
   -1    4   10      4.81      0.00
   -1    4    9      9.02      0.00
   -1    4    8      2.22      0.00
   -1    4    7    -15.40      0.00
   -1    4    6      3.14      0.00
   -1    4    5     -2.61      0.00
   -1    4    4     -6.40      0.00
   -1    4    3     30.97      0.00
   -1    4    2     -5.54      0.00
   -1    4    1    -18.48      0.00
   -1    4    0      0.53      0.00
    1   -4    1     -3.25      0.00
    1   -4    2      0.00      0.00
    1   -4    3     24.72      0.00
    1   -4    4     -5.29      0.00
    1   -4    5    -10.15      0.00
    1   -4    6      0.31      0.00
    1   -4    7    -11.20      0.00
    1   -4    8     15.33      0.00
    1   -4    9     -0.12      0.00
    1   -4   10      0.48      0.00
    1   -4   11     -4.96      0.00
    1   -4   12     -0.14      0.00
    1   -4   13     -1.69      0.00
    1   -4   14      5.20      0.00
    1   -4   15      0.24      0.00
    1   -4   16     -2.49      0.00
    1   -4   17      0.58      0.00
    1   -4   18     -1.63      0.00
    1   -4   19      0.15      0.00
   -1    3   21      1.90      0.00
   -1    3   20     -3.65      0.00
   -1    3   19     -0.07      0.00
   -1    3   18     -0.18      0.00
   -1    3   17      1.10      0.00
   -1    3   16      2.64      0.00
   -1    3   15      1.01      0.00
   -1    3   14     -3.57      0.00
   -1    3   13     -4.63      0.00
   -1    3   12      2.22      0.00
   -1    3   11      1.71      0.00
   -1    3   10      8.00      0.00
   -1    3    9     -2.13      0.00
   -1    3    8    -10.27      0.00
   -1    3    7     -0.50      0.00
   -1    3    6     -2.53      0.00
   -1    3    5      7.74      0.00
   -1    3    4     20.99      0.00
   -1    3    3    -13.45      0.00
   -1    3    2    -23.77      0.00
   -1    3    1     24.70      0.00
   -1    3    0    -34.88      0.00
    1   -3    1     38.22      0.00
    1   -3    2      6.66      0.00
    1   -3    3     -6.28      0.00
    1   -3    4    -16.74      0.00
    1   -3    5      6.54      0.00
    1   -3    6     -9.72      0.00
    1   -3    7     12.86      0.00
    1   -3    8      7.41      0.00
    1   -3    9     -8.19      0.00
    1   -3   10     -0.90      0.00
    1   -3   11     -4.07      0.00
    1   -3   12      2.29      0.00
    1   -3   13      3.58      0.00
    1   -3   14      1.97      0.00
    1   -3   15     -3.93      0.00
    1   -3   16     -0.24      0.00
    1   -3   17     -2.00      0.00
    1   -3   18      1.60      0.00
    1   -3   19      2.82      0.00
   -1    2   21     -1.92      0.00
   -1    2   20     -0.55      0.00
   -1    2   19      1.51      0.00
   -1    2   18     -0.30      0.00
   -1    2   17      3.56      0.00
   -1    2   16     -1.73      0.00
   -1    2   15     -2.23      0.00
   -1    2   14     -5.00      0.00
   -1    2   13      7.59      0.00
   -1    2   12     -5.20      0.00
   -1    2   11     10.88      0.00
   -1    2   10     -1.71      0.00
   -1    2    9    -17.70      0.00
   -1    2    8     11.29      0.00
   -1    2    7     -9.86      0.00
   -1    2    6     23.04      0.00
   -1    2    5     -6.00      0.00
   -1    2    4      5.45      0.00
   -1    2    3    -33.95      0.00
   -1    2    2     19.04      0.00
   -1    2    1    -15.51      0.00
   -1    2    0     39.89      0.00
    1   -2    1     -2.31      0.00
    1   -2    2    -16.53      0.00
    1   -2    3     -4.64      0.00
    1   -2    4     -4.71      0.00
    1   -2    5      0.85      0.00
    1   -2    6     13.60      0.00
    1   -2    7     11.00      0.00
    1   -2    8    -20.44      0.00
    1   -2    9      5.85      0.00
    1   -2   10     -6.44      0.00
    1   -2   11      3.82      0.00
    1   -2   12      6.14      0.00
    1   -2   13     -1.18      0.00
    1   -2   14     -3.61      0.00
    1   -2   15     -2.03      0.00
    1   -2   16      1.22      0.00
    1   -2   17      0.51      0.00
    1   -2   18      3.08      0.00
    1   -2   19     -1.66      0.00
    1   -2   20      0.07      0.00
   -1    1   21     -1.29      0.00
   -1    1   20      2.01      0.00
   -1    1   19     -0.04      0.00
   -1    1   18      2.64      0.00
   -1    1   17     -1.53      0.00
   -1    1   16     -4.58      0.00
   -1    1   15      0.50      0.00
   -1    1   14      2.53      0.00
   -1    1   13      0.62      0.00
   -1    1   12      6.90      0.00
   -1    1   11     -6.04      0.00
   -1    1   10    -13.95      0.00
   -1    1    9     16.61      0.00
   -1    1    8    -13.09      0.00
   -1    1    7     22.59      0.00
   -1    1    6     -7.05      0.00
   -1    1    5      0.06      0.00
   -1    1    4    -35.72      0.00
   -1    1    3     26.76      0.00
   -1    1    2      6.37      0.00
    1   -1    1    -45.15      0.00
    1   -1    2      6.56      0.00
    1   -1    3    -10.61      0.00
    1   -1    4     15.16      0.00
    1   -1    5     14.05      0.00
    1   -1    6     -1.27      0.00
    1   -1    7    -13.63      0.00
    1   -1    8      0.23      0.00
    1   -1    9     -1.42      0.00
    1   -1   10      1.66      0.00
    1   -1   11     10.70      0.00
    1   -1   12     -7.24      0.00
    1   -1   13     -0.78      0.00
    1   -1   14     -2.96      0.00
    1   -1   15      1.81      0.00
    1   -1   16      0.00      0.00
    1   -1   17      5.11      0.00
    1   -1   18     -2.87      0.00
    1   -1   19     -1.60      0.00
    1   -1   20     -0.31      0.00
   -1    0   21      1.46      0.00
   -1    0   20      0.34      0.00
   -1    0   19      0.50      0.00
   -1    0   18     -0.37      0.00
   -1    0   17     -5.61      0.00
   -1    0   16      4.37      0.00
   -1    0   15     -0.98      0.00
   -1    0   14      4.95      0.00
   -1    0   13     -0.47      0.00
   -1    0   12     -4.63      0.00
   -1    0   11     -5.42      0.00
   -1    0   10      5.66      0.00
   -1    0    9      0.46      0.00
   -1    0    8      8.33      0.00
   -1    0    7      2.21      0.00
   -1    0    6    -20.80      0.00
   -1    0    5     -6.28      0.00
   -1    0    4     20.17      0.00
   -1    0    3     -5.56      0.00
   -1    0    2     11.72      0.00
    1    0    2      6.15      0.00
    1    0    3     -0.68      0.00
    1    0    4     23.40      0.00
    1    0    5    -11.82      0.00
    1    0    6     -6.64      0.00
    1    0    7    -11.46      0.00
    1    0    8     12.11      0.00
    1    0    9     -2.00      0.00
    1    0   10     11.39      0.00
    1    0   11     -9.39      0.00
    1    0   12     -2.21      0.00
    1    0   13     -0.67      0.00
    1    0   14      0.73      0.00
    1    0   15      3.95      0.00
    1    0   16      1.58      0.00
    1    0   17     -4.11      0.00
    1    0   18     -0.36      0.00
    1    0   19      0.79      0.00
    1    0   20     -0.71      0.00
   -1   -1   20      0.42      0.00
   -1   -1   19     -1.11      0.00
   -1   -1   18     -3.55      0.00
   -1   -1   17      3.49      0.00
   -1   -1   16      0.46      0.00
   -1   -1   15      2.20      0.00
   -1   -1   14      0.64      0.00
   -1   -1   13     -5.62      0.00
   -1   -1   12     -2.70      0.00
   -1   -1   11      2.19      0.00
   -1   -1   10     10.17      0.00
   -1   -1    9     -5.83      0.00
   -1   -1    8      6.40      0.00
   -1   -1    7    -22.66      0.00
   -1   -1    6      5.01      0.00
   -1   -1    5     12.29      0.00
   -1   -1    4     -3.58      0.00
   -1   -1    3     29.47      0.00
   -1   -1    2    -27.53      0.00
    1    1    3     38.89      0.00
    1    1    4    -25.74      0.00
    1    1    5    -14.30      0.00
    1    1    6      4.32      0.00
    1    1    7      8.25      0.00
    1    1    8     -0.31      0.00
    1    1    9      8.45      0.00
    1    1   10     -6.88      0.00
    1    1   11     -8.53      0.00
    1    1   12      5.53      0.00
    1    1   13     -0.91      0.00
    1    1   14      5.75      0.00
    1    1   15     -1.90      0.00
    1    1   16     -2.33      0.00
    1    1   17     -0.47      0.00
    1    1   18     -0.88      0.00
    1    1   19      1.74      0.00
    1    1   20      2.02      0.00
    1    1   21     -0.49      0.00
   -1   -2   20     -1.84      0.00
   -1   -2   19     -0.25      0.00
   -1   -2   18      1.34      0.00
   -1   -2   17      1.92      0.00
   -1   -2   16     -0.85      0.00
   -1   -2   15      2.18      0.00
   -1   -2   14     -7.09      0.00
   -1   -2   13      0.56      0.00
   -1   -2   12      4.86      0.00
   -1   -2   11      2.62      0.00
   -1   -2   10     -2.51      0.00
   -1   -2    9      1.39      0.00
   -1   -2    8    -13.40      0.00
   -1   -2    7     -1.71      0.00
   -1   -2    6     23.64      0.00
   -1   -2    5     -9.33      0.00
   -1   -2    4     15.72      0.00
   -1   -2    3    -29.22      0.00
   -1   -2    2      6.34      0.00
   -1   -2    1     -8.33      0.00
    1    2    0     17.21      0.00
    1    2    1     10.05      0.00
    1    2    2      7.80      0.00
    1    2    3    -23.43      0.00
    1    2    4    -14.05      0.00
    1    2    5     23.18      0.00
    1    2    6     -9.99      0.00
    1    2    7     13.48      0.00
    1    2    8      1.41      0.00
    1    2    9     -9.55      0.00
    1    2   10     -7.79      0.00
    1    2   11      9.15      0.00
    1    2   12     -1.51      0.00
    1    2   13      4.10      0.00
    1    2   14      0.06      0.00
    1    2   15     -5.48      0.00
    1    2   16      0.12      0.00
    1    2   17      0.47      0.00
    1    2   18      4.04      0.00
    1    2   19     -1.58      0.00
    1    2   20      1.00      0.00
    1    2   21     -2.08      0.00
   -1   -3   20      0.00      0.00
   -1   -3   19      0.89      0.00
   -1   -3   18      1.80      0.00
   -1   -3   17     -0.83      0.00
   -1   -3   16     -0.51      0.00
   -1   -3   15     -3.25      0.00
   -1   -3   14      0.09      0.00
   -1   -3   13      6.25      0.00
   -1   -3   12     -3.14      0.00
   -1   -3   11      4.44      0.00
   -1   -3   10     -7.81      0.00
   -1   -3    9     -5.13      0.00
   -1   -3    8      0.22      0.00
   -1   -3    7     22.22      0.00
   -1   -3    6    -15.27      0.00
   -1   -3    5      9.45      0.00
   -1   -3    4     -9.86      0.00
   -1   -3    3    -21.40      0.00
   -1   -3    2     20.61      0.00
   -1   -3    1     14.40      0.00
    1    3    0      6.74      0.00
    1    3    1    -20.65      0.00
    1    3    2      7.11      0.00
    1    3    3    -23.40      0.00
    1    3    4     21.69      0.00
    1    3    5     -0.12      0.00
    1    3    6      8.04      0.00
    1    3    7      0.09      0.00
    1    3    8    -16.05      0.00
    1    3    9      3.10      0.00
    1    3   10      2.67      0.00
    1    3   11      2.41      0.00
    1    3   12      2.02      0.00
    1    3   13      0.83      0.00
    1    3   14     -8.74      0.00
    1    3   15      3.63      0.00
    1    3   16      1.05      0.00
    1    3   17      1.87      0.00
    1    3   18     -0.07      0.00
    1    3   19      0.95      0.00
    1    3   20     -4.07      0.00
    1    3   21      1.70      0.00
   -1   -4   19      0.26      0.00
   -1   -4   18     -0.79      0.00
   -1   -4   17     -1.30      0.00
   -1   -4   16      0.11      0.00
   -1   -4   15     -1.71      0.00
   -1   -4   14      6.92      0.00
   -1   -4   13     -3.58      0.00
   -1   -4   12      1.54      0.00
   -1   -4   11     -5.88      0.00
   -1   -4   10     -2.88      0.00
   -1   -4    9      6.44      0.00
   -1   -4    8      6.68      0.00
   -1   -4    7     -4.42      0.00
   -1   -4    6      1.49      0.00
   -1   -4    5     -8.52      0.00
   -1   -4    4    -18.52      0.00
   -1   -4    3     38.84      0.00
   -1   -4    2    -10.65      0.00
   -1   -4    1      4.19      0.00
    1    4    0     -4.50      0.00
    1    4    1     -4.69      0.00
    1    4    2    -22.96      0.00
    1    4    3     29.46      0.00
    1    4    4      9.75      0.00
    1    4    5    -16.05      0.00
    1    4    6     15.98      0.00
    1    4    7    -27.73      0.00
    1    4    8     12.38      0.00
    1    4    9     -0.47      0.00
    1    4   10      6.41      0.00
    1    4   11     -1.55      0.00
    1    4   12     -2.31      0.00
    1    4   13     -4.31      0.00
    1    4   14      2.34      0.00
    1    4   15      2.62      0.00
    1    4   16     -0.06      0.00
    1    4   17      2.84      0.00
    1    4   18     -3.93      0.00
    1    4   19     -1.54      0.00
    1    4   20      2.05      0.00
    1    4   21     -0.13      0.00
   -1   -5   19     -0.55      0.00
   -1   -5   18     -0.17      0.00
   -1   -5   17     -1.13      0.00
   -1   -5   16      0.55      0.00
   -1   -5   15      4.48      0.00
   -1   -5   14     -2.34      0.00
   -1   -5   13     -2.00      0.00
   -1   -5   12      0.05      0.00
   -1   -5   11     -6.04      0.00
   -1   -5   10      9.99      0.00
   -1   -5    9      0.19      0.00
   -1   -5    8      0.83      0.00
   -1   -5    7     -6.90      0.00
   -1   -5    6     -5.29      0.00
   -1   -5    5      0.70      0.00
   -1   -5    4     14.31      0.00
   -1   -5    3      0.75      0.00
   -1   -5    2     -3.59      0.00
   -1   -5    1      2.36      0.00
    1    5    0    -24.73      0.00
    1    5    1      9.82      0.00
    1    5    2     21.75      0.00
    1    5    3     -6.14      0.00
    1    5    4     -6.03      0.00
    1    5    5     12.07      0.00
    1    5    6    -29.62      0.00
    1    5    7     17.62      0.00
    1    5    8      2.60      0.00
    1    5    9      0.51      0.00
    1    5   10     -0.44      0.00
    1    5   11     -3.20      0.00
    1    5   12     -1.84      0.00
    1    5   13     -0.44      0.00
    1    5   14      6.89      0.00
    1    5   15     -2.64      0.00
    1    5   16      1.83      0.00
    1    5   17     -4.17      0.00
    1    5   18      0.56      0.00
    1    5   19      0.47      0.00
    1    5   20      0.33      0.00
    1    5   21      1.75      0.00
   -1   -6   18     -1.04      0.00
   -1   -6   17      2.26      0.00
   -1   -6   16      0.68      0.00
   -1   -6   15     -1.18      0.00
   -1   -6   14     -1.74      0.00
   -1   -6   13      0.46      0.00
   -1   -6   12     -3.79      0.00
   -1   -6   11      7.89      0.00
   -1   -6   10      0.69      0.00
   -1   -6    9     -5.31      0.00
   -1   -6    8     -0.60      0.00
   -1   -6    7     -4.35      0.00
   -1   -6    6      4.33      0.00
   -1   -6    5      3.68      0.00
   -1   -6    4     13.02      0.00
   -1   -6    3    -20.56      0.00
   -1   -6    2      6.14      0.00
   -1   -6    1    -14.12      0.00
    1    6    0     13.25      0.00
    1    6    1     10.91      0.00
    1    6    2     -9.29      0.00
    1    6    3     10.69      0.00
    1    6    4    -17.51      0.00
    1    6    5     -2.95      0.00
    1    6    6      8.62      0.00
    1    6    7      5.53      0.00
    1    6    8     -2.61      0.00
    1    6    9      0.64      0.00
    1    6   10     -3.79      0.00
    1    6   11     -4.97      0.00
    1    6   12      6.71      0.00
    1    6   13      3.48      0.00
    1    6   14     -3.18      0.00
    1    6   15      0.38      0.00
    1    6   16     -1.74      0.00
    1    6   17     -1.81      0.00
    1    6   18      2.96      0.00
    1    6   19      0.39      0.00
    1    6   20      0.83      0.00
    1    6   21     -0.94      0.00
   -1   -7   17      0.54      0.00
   -1   -7   16     -1.55      0.00
   -1   -7   15     -0.17      0.00
   -1   -7   14     -1.59      0.00
   -1   -7   13      1.23      0.00
   -1   -7   12      2.46      0.00
   -1   -7   11      2.42      0.00
   -1   -7   10     -7.83      0.00
   -1   -7    9      4.55      0.00
   -1   -7    8     -7.02      0.00
   -1   -7    7      5.19      0.00
   -1   -7    6      8.63      0.00
   -1   -7    5     -1.29      0.00
   -1   -7    4    -12.79      0.00
   -1   -7    3      4.59      0.00
   -1   -7    2     -4.34      0.00
   -1   -7    1      1.23      0.00
    1    7    0     20.02      0.00
    1    7    1    -13.42      0.00
    1    7    2      2.99      0.00
    1    7    3    -15.84      0.00
    1    7    4     11.04      0.00
    1    7    5     -3.58      0.00
    1    7    6     11.43      0.00
    1    7    7     -3.61      0.00
    1    7    8     -5.51      0.00
    1    7    9      1.50      0.00
    1    7   10     -6.93      0.00
    1    7   11     12.59      0.00
    1    7   12     -4.95      0.00
    1    7   13      2.13      0.00
    1    7   14     -2.35      0.00
    1    7   15     -1.73      0.00
    1    7   16     -0.22      0.00
    1    7   17      3.89      0.00
    1    7   18     -0.69      0.00
    1    7   19     -0.21      0.00
    1    7   20      0.42      0.00
    1    7   21     -0.81      0.00
   -1   -8   17     -1.97      0.00
   -1   -8   16      0.76      0.00
   -1   -8   15     -1.26      0.00
   -1   -8   14      2.22      0.00
   -1   -8   13      0.57      0.00
   -1   -8   12      1.15      0.00
   -1   -8   11     -5.07      0.00
   -1   -8   10      1.76      0.00
   -1   -8    9     -1.78      0.00
   -1   -8    8      2.85      0.00
   -1   -8    7      7.76      0.00
   -1   -8    6    -10.01      0.00
   -1   -8    5      1.74      0.00
   -1   -8    4     -4.82      0.00
   -1   -8    3      0.94      0.00
   -1   -8    2      3.24      0.00
   -1   -8    1     15.30      0.00
    1    8    0    -16.23      0.00
    1    8    1     -1.12      0.00
    1    8    2      1.62      0.00
    1    8    3     -6.41      0.00
    1    8    4      9.52      0.00
    1    8    5      6.44      0.00
    1    8    6     -7.30      0.00
    1    8    7     -4.67      0.00
    1    8    8      4.55      0.00
    1    8    9     -7.21      0.00
    1    8   10     11.28      0.00
    1    8   11     -3.60      0.00
    1    8   12      0.73      0.00
    1    8   13     -3.27      0.00
    1    8   14     -0.80      0.00
    1    8   15      2.62      0.00
    1    8   16      0.27      0.00
    1    8   17      2.16      0.00
    1    8   18     -2.27      0.00
    1    8   19      0.81      0.00
    1    8   20     -1.80      0.00
   -1   -9   16      0.28      0.00
   -1   -9   15      0.18      0.00
   -1   -9   14      2.04      0.00
   -1   -9   13     -1.79      0.00
   -1   -9   12     -1.35      0.00
   -1   -9   11     -0.74      0.00
   -1   -9   10      2.37      0.00
   -1   -9    9     -1.26      0.00
   -1   -9    8      6.42      0.00
   -1   -9    7     -7.23      0.00
   -1   -9    6     -0.22      0.00
   -1   -9    5     -2.65      0.00
   -1   -9    4      2.47      0.00
   -1   -9    3      6.26      0.00
   -1   -9    2      1.41      0.00
   -1   -9    1     -6.55      0.00
    1    9    0     -3.26      0.00
    1    9    1      3.42      0.00
    1    9    2     -9.32      0.00
    1    9    3     20.01      0.00
    1    9    4     -8.08      0.00
    1    9    5     -3.35      0.00
    1    9    6      0.07      0.00
    1    9    7     -1.67      0.00
    1    9    8     -0.35      0.00
    1    9    9      6.90      0.00
    1    9   10     -0.05      0.00
    1    9   11     -6.72      0.00
    1    9   12      3.41      0.00
    1    9   13     -2.29      0.00
    1    9   14      2.22      0.00
    1    9   15      1.39      0.00
    1    9   16      1.39      0.00
    1    9   17     -3.84      0.00
    1    9   18      1.72      0.00
    1    9   19     -0.99      0.00
    1    9   20      0.46      0.00
   -1  -10   15      1.99      0.00
   -1  -10   14     -2.53      0.00
   -1  -10   13      0.09      0.00
   -1  -10   12      0.19      0.00
   -1  -10   11      0.49      0.00
   -1  -10   10      0.56      0.00
   -1  -10    9      2.74      0.00
   -1  -10    8     -4.41      0.00
   -1  -10    7     -2.88      0.00
   -1  -10    6      4.67      0.00
   -1  -10    5     -2.51      0.00
   -1  -10    4      6.05      0.00
   -1  -10    3     -1.28      0.00
   -1  -10    2     -3.56      0.00
   -1  -10    1     -4.05      0.00
    1   10    0      1.43      0.00
    1   10    1      2.18      0.00
    1   10    2      5.96      0.00
    1   10    3     -3.63      0.00
    1   10    4     -2.44      0.00
    1   10    5     -1.15      0.00
    1   10    6     -1.88      0.00
    1   10    7      4.69      0.00
    1   10    8      2.29      0.00
    1   10    9     -1.28      0.00
    1   10   10     -5.33      0.00
    1   10   11      5.08      0.00
    1   10   12     -4.34      0.00
    1   10   13      3.55      0.00
    1   10   14      3.35      0.00
    1   10   15     -4.43      0.00
    1   10   16      0.65      0.00
    1   10   17      0.11      0.00
    1   10   18     -0.32      0.00
    1   10   19      0.18      0.00
    1   10   20      1.39      0.00
   -1  -11   14     -0.47      0.00
   -1  -11   13      1.51      0.00
   -1  -11   12     -1.42      0.00
   -1  -11   11      2.93      0.00
   -1  -11   10     -1.66      0.00
   -1  -11    9     -1.38      0.00
   -1  -11    8     -1.00      0.00
   -1  -11    7      2.69      0.00
   -1  -11    6     -1.69      0.00
   -1  -11    5      3.97      0.00
   -1  -11    4      0.56      0.00
   -1  -11    3     -8.48      0.00
   -1  -11    2      3.10      0.00
   -1  -11    1     -1.21      0.00
    1   11    0      5.45      0.00
    1   11    1     -2.94      0.00
    1   11    2      6.64      0.00
    1   11    3    -11.84      0.00
    1   11    4      2.95      0.00
    1   11    5      2.52      0.00
    1   11    6     -0.82      0.00
    1   11    7      4.99      0.00
    1   11    8     -5.48      0.00
    1   11    9      0.63      0.00
    1   11   10     -1.62      0.00
    1   11   11      2.00      0.00
    1   11   12      2.34      0.00
    1   11   13      0.65      0.00
    1   11   14     -4.17      0.00
    1   11   15      2.53      0.00
    1   11   16     -1.58      0.00
    1   11   17      0.97      0.00
    1   11   18      0.89      0.00
    1   11   19      0.06      0.00
   -1  -12   13     -1.08      0.00
   -1  -12   12      1.46      0.00
   -1  -12   11     -1.20      0.00
   -1  -12   10     -0.70      0.00
   -1  -12    9      0.39      0.00
   -1  -12    8     -0.41      0.00
   -1  -12    7      2.71      0.00
   -1  -12    6     -1.37      0.00
   -1  -12    5      1.91      0.00
   -1  -12    4     -8.07      0.00
   -1  -12    3      6.71      0.00
   -1  -12    2     -4.08      0.00
   -1  -12    1      4.59      0.00
    1   12    0      0.45      0.00
    1   12    1      1.14      0.00
    1   12    2    -10.36      0.00
    1   12    3      7.88      0.00
    1   12    4     -0.97      0.00
    1   12    5     -2.04      0.00
    1   12    6      8.31      0.00
    1   12    7     -9.75      0.00
    1   12    8      3.40      0.00
    1   12    9     -3.04      0.00
    1   12   10      6.31      0.00
    1   12   11     -2.94      0.00
    1   12   12      1.52      0.00
    1   12   13     -1.07      0.00
    1   12   14     -1.94      0.00
    1   12   15      2.08      0.00
    1   12   16     -0.30      0.00
    1   12   17      1.85      0.00
    1   12   18     -1.40      0.00
   -1  -13   11     -1.62      0.00
   -1  -13   10      1.37      0.00
   -1  -13    9     -0.38      0.00
   -1  -13    8      1.59      0.00
   -1  -13    7     -1.67      0.00
   -1  -13    6      1.44      0.00
   -1  -13    5     -4.34      0.00
   -1  -13    4      2.89      0.00
   -1  -13    3     -0.81      0.00
   -1  -13    2      2.65      0.00
   -1  -13    1      1.45      0.00
    1   13    0     -4.94      0.00
    1   13    1     -0.54      0.00
    1   13    2      2.70      0.00
    1   13    3     -2.31      0.00
    1   13    4      3.71      0.00
    1   13    5      1.50      0.00
    1   13    6     -5.94      0.00
    1   13    7      1.43      0.00
    1   13    8      1.01      0.00
    1   13    9      1.53      0.00
    1   13   10     -0.86      0.00
    1   13   11      2.38      0.00
    1   13   12     -3.70      0.00
    1   13   13     -1.04      0.00
    1   13   14      4.72      0.00
    1   13   15     -2.42      0.00
    1   13   16      2.07      0.00
    1   13   17     -1.91      0.00
   -1  -14   10      0.04      0.00
   -1  -14    9     -0.39      0.00
   -1  -14    8      1.04      0.00
   -1  -14    7     -1.76      0.00
   -1  -14    6     -0.41      0.00
   -1  -14    5      0.27      0.00
   -1  -14    4      2.21      0.00
   -1  -14    3     -0.93      0.00
   -1  -14    2      0.89      0.00
   -1  -14    1     -2.47      0.00
    1   14    0      0.07      0.00
    1   14    1     -0.15      0.00
    1   14    2      1.36      0.00
    1   14    3      3.01      0.00
    1   14    4     -3.74      0.00
    1   14    5      1.15      0.00
    1   14    6     -3.19      0.00
    1   14    7      4.97      0.00
    1   14    8     -3.10      0.00
    1   14    9      3.13      0.00
    1   14   10     -1.46      0.00
    1   14   11     -2.46      0.00
    1   14   12      3.07      0.00
    1   14   13     -0.15      0.00
    1   14   14     -0.26      0.00
    1   14   15      0.85      0.00
    1   14   16     -0.80      0.00
   -1  -15    8     -1.41      0.00
   -1  -15    7      0.86      0.00
   -1  -15    6     -0.21      0.00
   -1  -15    5      0.91      0.00
   -1  -15    4     -0.54      0.00
   -1  -15    3      0.61      0.00
   -1  -15    2     -0.89      0.00
   -1  -15    1     -2.68      0.00
    1   15    0      3.86      0.00
    1   15    1      0.26      0.00
    1   15    2     -0.47      0.00
    1   15    3     -0.07      0.00
    1   15    4     -0.52      0.00
    1   15    5     -2.07      0.00
    1   15    6      4.24      0.00
    1   15    7     -2.86      0.00
    1   15    8      2.39      0.00
    1   15    9     -1.77      0.00
    1   15   10     -0.15      0.00
    1   15   11      1.48      0.00
    1   15   12     -0.58      0.00
    1   15   13      2.07      0.00
    1   15   14     -2.12      0.00
    1   15   15      0.00      0.00
   -1  -16    6     -0.42      0.00
   -1  -16    5      0.50      0.00
   -1  -16    4     -1.00      0.00
   -1  -16    3     -0.43      0.00
   -1  -16    2     -0.50      0.00
   -1  -16    1      3.65      0.00
    1   16    0     -2.19      0.00
    1   16    1      0.09      0.00
    1   16    2      2.34      0.00
    1   16    3     -5.08      0.00
    1   16    4      3.78      0.00
    1   16    5     -0.59      0.00
    1   16    6      0.40      0.00
    1   16    7     -0.57      0.00
    1   16    8      0.36      0.00
    1   16    9     -0.78      0.00
    1   16   10      1.49      0.00
    1   16   11      1.30      0.00
    1   16   12     -1.79      0.00
    1   16   13     -0.48      0.00
    1   16   14      0.46      0.00
   -1  -17    3      0.49      0.00
   -1  -17    2      0.87      0.00
   -1  -17    1     -0.40      0.00
    1   17    0      0.61      0.00
    1   17    1      0.23      0.00
    1   17    2     -3.68      0.00
    1   17    3      4.81      0.00
    1   17    4     -2.65      0.00
    1   17    5      1.89      0.00
    1   17    6     -1.41      0.00
    1   17    7      1.05      0.00
    1   17    8     -1.16      0.00
    1   17    9      2.05      0.00
    1   17   10     -0.08      0.00
    1   17   11     -1.72      0.00
    1   18    1     -0.07      0.00
    1   18    2      1.43      0.00
    1   18    3     -0.59      0.00
    1   18    4      0.33      0.00
    1   18    5     -0.15      0.00
    1   18    6      0.17      0.00
    1   18    7     -0.27      0.00
    1   18    8      1.40      0.00
   -2   17    9     -0.94      0.00
   -2   17    8     -1.54      0.00
   -2   17    7      3.18      0.00
   -2   17    6     -2.01      0.00
   -2   17    5      2.99      0.00
   -2   17    4     -2.20      0.00
   -2   17    3     -0.29      0.00
   -2   17    2      1.16      0.00
   -2   17    1     -1.42      0.00
   -2   17    0      2.34      0.00
    2  -17    1     -0.40      0.00
   -2   16   12      0.50      0.00
   -2   16   11     -1.21      0.00
   -2   16   10     -1.78      0.00
   -2   16    9      0.58      0.00
   -2   16    8      2.56      0.00
   -2   16    7     -2.43      0.00
   -2   16    6      4.33      0.00
   -2   16    5     -4.23      0.00
   -2   16    4      1.27      0.00
   -2   16    3      0.02      0.00
   -2   16    2      0.41      0.00
   -2   16    1      1.85      0.00
   -2   16    0     -2.25      0.00
    2  -16    1      0.64      0.00
    2  -16    2     -2.01      0.00
    2  -16    3      2.13      0.00
    2  -16    4     -1.12      0.00
   -2   15   14     -0.61      0.00
   -2   15   13      0.86      0.00
   -2   15   12     -2.36      0.00
   -2   15   11     -0.93      0.00
   -2   15   10      1.86      0.00
   -2   15    9     -0.13      0.00
   -2   15    8      1.37      0.00
   -2   15    7      1.00      0.00
   -2   15    6     -2.78      0.00
   -2   15    5     -0.02      0.00
   -2   15    4      2.10      0.00
   -2   15    3     -0.29      0.00
   -2   15    2      0.76      0.00
   -2   15    1     -1.13      0.00
   -2   15    0      0.05      0.00
    2  -15    1     -2.93      0.00
    2  -15    2      4.69      0.00
    2  -15    3     -2.60      0.00
    2  -15    4      2.48      0.00
    2  -15    5     -0.94      0.00
    2  -15    6     -2.27      0.00
    2  -15    7      1.27      0.00
   -2   14   16      1.56      0.00
   -2   14   15     -1.37      0.00
   -2   14   14      0.03      0.00
   -2   14   13     -1.68      0.00
   -2   14   12     -0.70      0.00
   -2   14   11      2.28      0.00
   -2   14   10     -0.56      0.00
   -2   14    9      3.41      0.00
   -2   14    8     -3.66      0.00
   -2   14    7      0.68      0.00
   -2   14    6     -2.11      0.00
   -2   14    5      4.63      0.00
   -2   14    4     -1.81      0.00
   -2   14    3      0.98      0.00
   -2   14    2     -0.30      0.00
   -2   14    1     -3.78      0.00
   -2   14    0      2.30      0.00
    2  -14    1      2.97      0.00
    2  -14    2     -2.75      0.00
    2  -14    3      2.62      0.00
    2  -14    4     -1.95      0.00
    2  -14    5     -2.75      0.00
    2  -14    6      2.99      0.00
    2  -14    7     -1.49      0.00
    2  -14    8      1.40      0.00
    2  -14    9     -0.60      0.00
   -2   13   17     -0.04      0.00
   -2   13   16     -0.91      0.00
   -2   13   15     -1.08      0.00
   -2   13   14     -0.34      0.00
   -2   13   13     -1.52      0.00
   -2   13   12      3.85      0.00
   -2   13   11      0.02      0.00
   -2   13   10      0.05      0.00
   -2   13    9     -2.15      0.00
   -2   13    8      0.16      0.00
   -2   13    7     -1.15      0.00
   -2   13    6      3.97      0.00
   -2   13    5     -0.35      0.00
   -2   13    4     -0.69      0.00
   -2   13    3      0.16      0.00
   -2   13    2     -5.03      0.00
   -2   13    1      6.09      0.00
   -2   13    0     -1.00      0.00
    2  -13    1      0.64      0.00
    2  -13    2      0.89      0.00
    2  -13    3     -4.17      0.00
    2  -13    4     -0.14      0.00
    2  -13    5      2.16      0.00
    2  -13    6      0.50      0.00
    2  -13    7     -1.17      0.00
    2  -13    8      1.78      0.00
    2  -13    9     -2.92      0.00
    2  -13   10      0.24      0.00
   -2   12   18     -1.48      0.00
   -2   12   17      0.24      0.00
   -2   12   16     -1.85      0.00
   -2   12   15     -0.64      0.00
   -2   12   14      0.16      0.00
   -2   12   13      3.55      0.00
   -2   12   12     -0.51      0.00
   -2   12   11     -2.13      0.00
   -2   12   10      1.71      0.00
   -2   12    9     -5.07      0.00
   -2   12    8      3.60      0.00
   -2   12    7      2.39      0.00
   -2   12    6      0.88      0.00
   -2   12    5     -3.15      0.00
   -2   12    4      0.79      0.00
   -2   12    3     -3.68      0.00
   -2   12    2      4.33      0.00
   -2   12    1      1.94      0.00
   -2   12    0     -1.03      0.00
    2  -12    1     -0.63      0.00
    2  -12    2     -4.10      0.00
    2  -12    3      2.10      0.00
    2  -12    4      0.30      0.00
    2  -12    5      3.25      0.00
    2  -12    6     -3.06      0.00
    2  -12    7      2.22      0.00
    2  -12    8     -5.39      0.00
    2  -12    9      2.24      0.00
    2  -12   10      1.87      0.00
    2  -12   11     -0.77      0.00
    2  -12   12      0.62      0.00
   -2   11   18      0.72      0.00
   -2   11   17     -0.73      0.00
   -2   11   16     -2.16      0.00
   -2   11   15      2.76      0.00
   -2   11   14     -0.09      0.00
   -2   11   13      1.88      0.00
   -2   11   12     -3.03      0.00
   -2   11   11      0.28      0.00
   -2   11   10     -4.40      0.00
   -2   11    9      6.25      0.00
   -2   11    8      1.70      0.00
   -2   11    7     -2.51      0.00
   -2   11    6      0.07      0.00
   -2   11    5     -2.24      0.00
   -2   11    4     -0.69      0.00
   -2   11    3      2.57      0.00
   -2   11    2      6.31      0.00
   -2   11    1     -8.03      0.00
   -2   11    0      2.88      0.00
    2  -11    1     -3.90      0.00
    2  -11    2     -0.07      0.00
    2  -11    3      4.46      0.00
    2  -11    4      1.17      0.00
    2  -11    5     -2.04      0.00
    2  -11    6     -1.98      0.00
    2  -11    7     -1.25      0.00
    2  -11    8      0.24      0.00
    2  -11    9      3.67      0.00
    2  -11   10     -2.24      0.00
    2  -11   11      1.96      0.00
    2  -11   12     -1.90      0.00
    2  -11   13     -1.02      0.00
   -2   10   19      0.95      0.00
   -2   10   18     -0.60      0.00
   -2   10   17     -2.11      0.00
   -2   10   16      3.51      0.00
   -2   10   15     -1.45      0.00
   -2   10   14      2.24      0.00
   -2   10   13     -5.09      0.00
   -2   10   12      1.17      0.00
   -2   10   11     -0.13      0.00
   -2   10   10      1.38      0.00
   -2   10    9      4.73      0.00
   -2   10    8     -5.97      0.00
   -2   10    7      3.58      0.00
   -2   10    6     -7.54      0.00
   -2   10    5      4.52      0.00
   -2   10    4      3.21      0.00
   -2   10    3      3.48      0.00
   -2   10    2     -7.82      0.00
   -2   10    1      2.94      0.00
   -2   10    0     -4.58      0.00
    2  -10    1     -0.86      0.00
    2  -10    2     11.65      0.00
    2  -10    3     -6.28      0.00
    2  -10    4      1.20      0.00
    2  -10    5     -5.65      0.00
    2  -10    6      3.01      0.00
    2  -10    7     -3.56      0.00
    2  -10    8      7.98      0.00
    2  -10    9     -3.13      0.00
    2  -10   10     -0.59      0.00
    2  -10   11     -1.07      0.00
    2  -10   12     -1.54      0.00
    2  -10   13      3.60      0.00
    2  -10   14     -1.09      0.00
   -2    9   20      0.19      0.00
   -2    9   19     -0.44      0.00
   -2    9   18      0.95      0.00
   -2    9   17      0.04      0.00
   -2    9   16      0.95      0.00
   -2    9   15     -2.44      0.00
   -2    9   14     -1.70      0.00
   -2    9   13      2.16      0.00
   -2    9   12     -2.23      0.00
   -2    9   11      2.81      0.00
   -2    9   10      5.60      0.00
   -2    9    9     -8.65      0.00
   -2    9    8      1.57      0.00
   -2    9    7     -3.07      0.00
   -2    9    6      3.34      0.00
   -2    9    5      5.52      0.00
   -2    9    4     -1.51      0.00
   -2    9    3     -2.70      0.00
   -2    9    2     -4.52      0.00
   -2    9    1      0.03      0.00
   -2    9    0      1.90      0.00
    2   -9    1     10.28      0.00
    2   -9    2     -7.65      0.00
    2   -9    3     -0.04      0.00
    2   -9    4     -3.50      0.00
    2   -9    5     -0.23      0.00
    2   -9    6      0.80      0.00
    2   -9    7      8.16      0.00
    2   -9    8     -5.53      0.00
    2   -9    9     -1.76      0.00
    2   -9   10      1.45      0.00
    2   -9   11     -2.92      0.00
    2   -9   12      4.08      0.00
    2   -9   13     -0.36      0.00
    2   -9   14     -0.06      0.00
    2   -9   15     -1.18      0.00
   -2    8   20      0.12      0.00
   -2    8   19      1.60      0.00
   -2    8   18     -1.80      0.00
   -2    8   17      3.54      0.00
   -2    8   16     -6.73      0.00
   -2    8   15      2.66      0.00
   -2    8   14     -0.94      0.00
   -2    8   13     -1.54      0.00
   -2    8   12      8.89      0.00
   -2    8   11     -4.43      0.00
   -2    8   10     -3.71      0.00
   -2    8    9     -1.29      0.00
   -2    8    8      3.61      0.00
   -2    8    7     -4.46      0.00
   -2    8    6     13.44      0.00
   -2    8    5     -6.77      0.00
   -2    8    4     -5.16      0.00
   -2    8    3     -2.30      0.00
   -2    8    2      1.73      0.00
   -2    8    1      4.80      0.00
   -2    8    0      3.97      0.00
    2   -8    1      0.81      0.00
    2   -8    2    -12.21      0.00
    2   -8    3      5.34      0.00
    2   -8    4     -6.61      0.00
    2   -8    5     10.69      0.00
    2   -8    6      2.03      0.00
    2   -8    7     -6.08      0.00
    2   -8    8      0.32      0.00
    2   -8    9     -1.97      0.00
    2   -8   10      0.32      0.00
    2   -8   11      3.01      0.00
    2   -8   12      2.61      0.00
    2   -8   13     -5.06      0.00
    2   -8   14      1.18      0.00
    2   -8   15     -0.90      0.00
    2   -8   16      0.94      0.00
   -2    7   20      0.38      0.00
   -2    7   19      0.53      0.00
   -2    7   18      0.80      0.00
   -2    7   17     -5.05      0.00
   -2    7   16      1.76      0.00
   -2    7   15     -0.59      0.00
   -2    7   14      1.30      0.00
   -2    7   13      6.31      0.00
   -2    7   12     -8.45      0.00
   -2    7   11      2.58      0.00
   -2    7   10     -5.08      0.00
   -2    7    9      4.80      0.00
   -2    7    8     -2.13      0.00
   -2    7    7     13.10      0.00
   -2    7    6    -11.81      0.00
   -2    7    5     -6.67      0.00
   -2    7    4      7.47      0.00
   -2    7    3     -7.31      0.00
   -2    7    2     13.07      0.00
   -2    7    1      1.75      0.00
   -2    7    0     -1.60      0.00
    2   -7    1    -18.71      0.00
    2   -7    2     14.44      0.00
    2   -7    3     -9.08      0.00
    2   -7    4     13.56      0.00
    2   -7    5      0.44      0.00
    2   -7    6     -7.81      0.00
    2   -7    7      1.20      0.00
    2   -7    8     -5.29      0.00
    2   -7    9      6.80      0.00
    2   -7   10     -0.47      0.00
    2   -7   11      3.88      0.00
    2   -7   12     -7.68      0.00
    2   -7   13      3.68      0.00
    2   -7   14     -2.00      0.00
    2   -7   15      0.73      0.00
    2   -7   16      2.76      0.00
    2   -7   17     -1.86      0.00
   -2    6   20      1.66      0.00
   -2    6   19     -2.13      0.00
   -2    6   18     -0.82      0.00
   -2    6   17     -1.38      0.00
   -2    6   16      2.72      0.00
   -2    6   15     -0.08      0.00
   -2    6   14      2.60      0.00
   -2    6   13     -2.61      0.00
   -2    6   12     -3.92      0.00
   -2    6   11     -0.24      0.00
   -2    6   10      2.99      0.00
   -2    6    9      4.20      0.00
   -2    6    8      1.59      0.00
   -2    6    7     -6.03      0.00
   -2    6    6     -7.50      0.00
   -2    6    5      6.43      0.00
   -2    6    4     -2.73      0.00
   -2    6    3     13.03      0.00
   -2    6    2      3.56      0.00
   -2    6    1    -18.58      0.00
   -2    6    0     -0.57      0.00
    2   -6    1      4.00      0.00
    2   -6    2     -1.34      0.00
    2   -6    3     12.20      0.00
    2   -6    4      3.23      0.00
    2   -6    5    -15.66      0.00
    2   -6    6      2.17      0.00
    2   -6    7     -1.23      0.00
    2   -6    8      5.34      0.00
    2   -6    9      1.90      0.00
    2   -6   10      0.66      0.00
    2   -6   11     -6.11      0.00
    2   -6   12      1.22      0.00
    2   -6   13      0.69      0.00
    2   -6   14      0.45      0.00
    2   -6   15      3.49      0.00
    2   -6   16     -3.89      0.00
    2   -6   17      0.30      0.00
    2   -6   18     -0.36      0.00
   -2    5   21     -0.48      0.00
   -2    5   20     -0.74      0.00
   -2    5   19     -0.81      0.00
   -2    5   18     -0.47      0.00
   -2    5   17      2.61      0.00
   -2    5   16     -0.60      0.00
   -2    5   15      1.95      0.00
   -2    5   14     -1.90      0.00
   -2    5   13     -8.80      0.00
   -2    5   12      9.34      0.00
   -2    5   11     -2.82      0.00
   -2    5   10      6.44      0.00
   -2    5    9     -2.10      0.00
   -2    5    8     -3.71      0.00
   -2    5    7    -10.85      0.00
   -2    5    6      9.07      0.00
   -2    5    5      9.39      0.00
   -2    5    4     -6.38      0.00
   -2    5    3     16.47      0.00
   -2    5    2    -35.39      0.00
   -2    5    1     18.96      0.00
   -2    5    0    -12.56      0.00
    2   -5    1     16.48      0.00
    2   -5    2      7.08      0.00
    2   -5    3     -3.79      0.00
    2   -5    4    -13.90      0.00
    2   -5    5      1.11      0.00
    2   -5    6      4.93      0.00
    2   -5    7     -1.89      0.00
    2   -5    8     11.96      0.00
    2   -5    9     -8.46      0.00
    2   -5   10     -2.82      0.00
    2   -5   11     -0.77      0.00
    2   -5   12      3.59      0.00
    2   -5   13     -0.28      0.00
    2   -5   14      3.21      0.00
    2   -5   15     -3.95      0.00
    2   -5   16     -1.09      0.00
    2   -5   17      0.96      0.00
    2   -5   18     -0.09      0.00
   -2    4   21      1.61      0.00
   -2    4   20     -3.47      0.00
   -2    4   19      2.98      0.00
   -2    4   18      0.44      0.00
   -2    4   17      0.44      0.00
   -2    4   16      0.34      0.00
   -2    4   15     -4.09      0.00
   -2    4   14     -2.62      0.00
   -2    4   13      5.73      0.00
   -2    4   12     -1.57      0.00
   -2    4   11      5.05      0.00
   -2    4   10     -0.05      0.00
   -2    4    9    -10.76      0.00
   -2    4    8     -4.00      0.00
   -2    4    7     14.72      0.00
   -2    4    6     -0.94      0.00
   -2    4    5     -2.36      0.00
   -2    4    4     15.95      0.00
   -2    4    3    -41.82      0.00
   -2    4    2     21.78      0.00
   -2    4    1     -2.94      0.00
   -2    4    0     16.09      0.00
    2   -4    1      2.19      0.00
    2   -4    2     -9.41      0.00
    2   -4    3     -8.16      0.00
    2   -4    4     -5.39      0.00
    2   -4    5     13.60      0.00
    2   -4    6     -2.64      0.00
    2   -4    7     13.35      0.00
    2   -4    8    -14.44      0.00
    2   -4    9     -2.14      0.00
    2   -4   10      2.53      0.00
    2   -4   11      1.24      0.00
    2   -4   12      3.13      0.00
    2   -4   13      0.54      0.00
    2   -4   14     -4.23      0.00
    2   -4   15     -1.85      0.00
    2   -4   16      2.88      0.00
    2   -4   17     -0.59      0.00
    2   -4   18      2.03      0.00
    2   -4   19     -0.12      0.00
   -2    3   21     -3.48      0.00
   -2    3   20      4.60      0.00
   -2    3   19     -0.40      0.00
   -2    3   18     -0.40      0.00
   -2    3   17      0.44      0.00
   -2    3   16     -4.96      0.00
   -2    3   15      1.74      0.00
   -2    3   14     -0.57      0.00
   -2    3   13      7.20      0.00
   -2    3   12     -3.59      0.00
   -2    3   11      1.92      0.00
   -2    3   10    -11.60      0.00
   -2    3    9      1.97      0.00
   -2    3    8     13.73      0.00
   -2    3    7    -11.91      0.00
   -2    3    6     21.78      0.00
   -2    3    5    -22.22      0.00
   -2    3    4    -13.27      0.00
   -2    3    3     10.93      0.00
   -2    3    2     15.67      0.00
   -2    3    1     -2.60      0.00
   -2    3    0      7.20      0.00
    2   -3    1     -8.14      0.00
    2   -3    2    -23.67      0.00
    2   -3    3     13.96      0.00
    2   -3    4      9.41      0.00
    2   -3    5      1.88      0.00
    2   -3    6      3.78      0.00
    2   -3    7     -8.43      0.00
    2   -3    8     -8.33      0.00
    2   -3    9      9.17      0.00
    2   -3   10     -2.97      0.00
    2   -3   11      7.64      0.00
    2   -3   12     -3.25      0.00
    2   -3   13     -4.02      0.00
    2   -3   14     -0.71      0.00
    2   -3   15      1.36      0.00
    2   -3   16      1.57      0.00
    2   -3   17      1.70      0.00
    2   -3   18     -0.59      0.00
    2   -3   19     -2.77      0.00
   -2    2   21      3.07      0.00
   -2    2   20     -1.15      0.00
   -2    2   19     -0.48      0.00
   -2    2   18      0.88      0.00
   -2    2   17     -4.83      0.00
   -2    2   16      1.98      0.00
   -2    2   15      1.76      0.00
   -2    2   14      5.00      0.00
   -2    2   13     -6.68      0.00
   -2    2   12      3.92      0.00
   -2    2   11     -9.42      0.00
   -2    2   10      1.21      0.00
   -2    2    9     14.88      0.00
   -2    2    8    -12.29      0.00
   -2    2    7     19.62      0.00
   -2    2    6    -36.83      0.00
   -2    2    5     18.63      0.00
   -2    2    4    -11.92      0.00
   -2    2    3     28.07      0.00
   -2    2    2     -7.75      0.00
   -2    2    1      4.97      0.00
   -2    2    0     -8.89      0.00
    2   -2    1    -38.54      0.00
    2   -2    2     51.50      0.00
    2   -2    3    -20.98      0.00
    2   -2    4     21.28      0.00
    2   -2    5     -7.24      0.00
    2   -2    6     -8.62      0.00
    2   -2    7    -10.69      0.00
    2   -2    8     14.94      0.00
    2   -2    9     -1.61      0.00
    2   -2   10      4.85      0.00
    2   -2   11     -3.22      0.00
    2   -2   12     -6.22      0.00
    2   -2   13      1.73      0.00
    2   -2   14      1.01      0.00
    2   -2   15      3.88      0.00
    2   -2   16     -1.40      0.00
    2   -2   17     -0.18      0.00
    2   -2   18     -2.71      0.00
    2   -2   19      1.20      0.00
    2   -2   20      0.39      0.00
   -2    1   21     -0.91      0.00
   -2    1   20      1.20      0.00
   -2    1   19     -1.84      0.00
   -2    1   18     -2.12      0.00
   -2    1   17      0.80      0.00
   -2    1   16      5.14      0.00
   -2    1   15     -2.02      0.00
   -2    1   14     -0.19      0.00
   -2    1   13     -1.60      0.00
   -2    1   12     -7.06      0.00
   -2    1   11      5.59      0.00
   -2    1   10     10.80      0.00
   -2    1    9     -9.04      0.00
   -2    1    8      3.55      0.00
   -2    1    7    -12.96      0.00
   -2    1    6      0.98      0.00
   -2    1    5      0.20      0.00
   -2    1    4     29.08      0.00
   -2    1    3    -15.60      0.00
   -2    1    2     -1.68      0.00
   -2    1    1     -8.40      0.00
   -2    1    0    -24.94      0.00
    2   -1    1     50.22      0.00
    2   -1    2    -27.07      0.00
    2   -1    3     29.89      0.00
    2   -1    4    -18.18      0.00
    2   -1    5    -13.15      0.00
    2   -1    6      2.35      0.00
    2   -1    7      9.66      0.00
    2   -1    8      3.17      0.00
    2   -1    9     -1.75      0.00
    2   -1   10      1.00      0.00
    2   -1   11    -10.39      0.00
    2   -1   12      4.80      0.00
    2   -1   13      2.26      0.00
    2   -1   14      1.37      0.00
    2   -1   15     -0.15      0.00
    2   -1   16     -1.00      0.00
    2   -1   17     -3.08      0.00
    2   -1   18      1.29      0.00
    2   -1   19      2.05      0.00
    2   -1   20      0.15      0.00
   -2    0   20     -2.78      0.00
   -2    0   19      1.51      0.00
   -2    0   18     -0.36      0.00
   -2    0   17      4.40      0.00
   -2    0   16     -3.26      0.00
   -2    0   15      1.06      0.00
   -2    0   14     -4.07      0.00
   -2    0   13     -2.85      0.00
   -2    0   12      8.36      0.00
   -2    0   11      0.99      0.00
   -2    0   10     -0.53      0.00
   -2    0    9     -7.05      0.00
   -2    0    8      1.98      0.00
   -2    0    7    -17.56      0.00
   -2    0    6     32.06      0.00
   -2    0    5     -0.02      0.00
   -2    0    4    -16.10      0.00
   -2    0    3      9.94      0.00
   -2    0    2    -22.76      0.00
   -2    0    1      2.04      0.00
    2    0    0     23.19      0.00
    2    0    1      6.09      0.00
    2    0    2     -7.45      0.00
    2    0    3     -3.13      0.00
    2    0    4    -16.35      0.00
    2    0    5      7.89      0.00
    2    0    6      9.12      0.00
    2    0    7      4.32      0.00
    2    0    8     -2.59      0.00
    2    0    9     -3.02      0.00
    2    0   10     -9.46      0.00
    2    0   11      6.07      0.00
    2    0   12      5.37      0.00
    2    0   13     -2.32      0.00
    2    0   14      2.45      0.00
    2    0   15     -5.98      0.00
    2    0   16     -0.12      0.00
    2    0   17      2.80      0.00
    2    0   18      1.71      0.00
    2    0   19     -1.12      0.00
    2    0   20      0.99      0.00
   -2   -1   20      0.39      0.00
   -2   -1   19     -0.09      0.00
   -2   -1   18      2.78      0.00
   -2   -1   17     -1.22      0.00
   -2   -1   16     -2.43      0.00
   -2   -1   15     -0.02      0.00
   -2   -1   14     -3.31      0.00
   -2   -1   13      8.04      0.00
   -2   -1   12     -0.81      0.00
   -2   -1   11      0.85      0.00
   -2   -1   10     -9.31      0.00
   -2   -1    9      1.60      0.00
   -2   -1    8     -6.87      0.00
   -2   -1    7     26.01      0.00
   -2   -1    6    -10.39      0.00
   -2   -1    5     -5.67      0.00
   -2   -1    4      4.09      0.00
   -2   -1    3    -28.93      0.00
   -2   -1    2     26.14      0.00
   -2   -1    1     11.68      0.00
    2    1    0      7.38      0.00
    2    1    1    -28.01      0.00
    2    1    2     18.62      0.00
    2    1    3    -27.56      0.00
    2    1    4     11.76      0.00
    2    1    5     24.10      0.00
    2    1    6    -14.18      0.00
    2    1    7      5.42      0.00
    2    1    8    -11.80      0.00
    2    1    9     -0.77      0.00
    2    1   10      2.97      0.00
    2    1   11      7.72      0.00
    2    1   12     -4.35      0.00
    2    1   13      1.84      0.00
    2    1   14     -6.10      0.00
    2    1   15      1.31      0.00
    2    1   16      2.90      0.00
    2    1   17      0.79      0.00
    2    1   18      0.47      0.00
    2    1   19     -0.42      0.00
    2    1   20     -2.44      0.00
    2    1   21      0.69      0.00
   -2   -2   20      1.64      0.00
   -2   -2   19      0.85      0.00
   -2   -2   18     -1.69      0.00
   -2   -2   17     -2.27      0.00
   -2   -2   16      1.74      0.00
   -2   -2   15     -2.43      0.00
   -2   -2   14      6.52      0.00
   -2   -2   13      0.17      0.00
   -2   -2   12     -5.80      0.00
   -2   -2   11     -0.82      0.00
   -2   -2   10     -2.92      0.00
   -2   -2    9      4.47      0.00
   -2   -2    8      7.03      0.00
   -2   -2    7      3.71      0.00
   -2   -2    6    -15.05      0.00
   -2   -2    5     -1.51      0.00
   -2   -2    4     -5.19      0.00
   -2   -2    3     11.19      0.00
   -2   -2    2     21.90      0.00
   -2   -2    1    -19.88      0.00
    2    2    0      4.63      0.00
    2    2    1    -12.82      0.00
    2    2    2     -9.99      0.00
    2    2    3     19.38      0.00
    2    2    4     21.18      0.00
    2    2    5    -25.69      0.00
    2    2    6     12.78      0.00
    2    2    7    -15.43      0.00
    2    2    8     -0.09      0.00
    2    2    9      6.78      0.00
    2    2   10      6.35      0.00
    2    2   11     -4.35      0.00
    2    2   12     -1.41      0.00
    2    2   13     -2.37      0.00
    2    2   14     -1.79      0.00
    2    2   15      6.58      0.00
    2    2   16     -0.29      0.00
    2    2   17      0.02      0.00
    2    2   18     -2.21      0.00
    2    2   19     -1.21      0.00
    2    2   20      1.17      0.00
    2    2   21      1.06      0.00
   -2   -3   19     -1.59      0.00
   -2   -3   18     -0.06      0.00
   -2   -3   17     -0.32      0.00
   -2   -3   16      0.86      0.00
   -2   -3   15      2.89      0.00
   -2   -3   14      0.93      0.00
   -2   -3   13     -7.66      0.00
   -2   -3   12      3.98      0.00
   -2   -3   11     -5.69      0.00
   -2   -3   10      6.72      0.00
   -2   -3    9      5.47      0.00
   -2   -3    8      0.57      0.00
   -2   -3    7    -17.97      0.00
   -2   -3    6      6.63      0.00
   -2   -3    5      1.11      0.00
   -2   -3    4     -5.01      0.00
   -2   -3    3     39.17      0.00
   -2   -3    2    -42.38      0.00
   -2   -3    1     22.50      0.00
    2    3    0    -37.91      0.00
    2    3    1     30.54      0.00
    2    3    2     -1.40      0.00
    2    3    3     14.48      0.00
    2    3    4    -12.13      0.00
    2    3    5     -3.55      0.00
    2    3    6     -4.05      0.00
    2    3    7     -7.18      0.00
    2    3    8     20.07      0.00
    2    3    9     -4.83      0.00
    2    3   10     -1.92      0.00
    2    3   11     -2.18      0.00
    2    3   12     -1.70      0.00
    2    3   13     -0.94      0.00
    2    3   14      7.91      0.00
    2    3   15     -2.61      0.00
    2    3   16     -0.78      0.00
    2    3   17     -0.40      0.00
    2    3   18     -2.50      0.00
    2    3   19      2.01      0.00
    2    3   20      1.08      0.00
    2    3   21      0.65      0.00
   -2   -4   19      0.35      0.00
   -2   -4   18      0.10      0.00
   -2   -4   17      1.33      0.00
   -2   -4   16      1.39      0.00
   -2   -4   15     -0.57      0.00
   -2   -4   14     -4.68      0.00
   -2   -4   13      1.24      0.00
   -2   -4   12     -0.50      0.00
   -2   -4   11      3.05      0.00
   -2   -4   10      7.66      0.00
   -2   -4    9    -10.92      0.00
   -2   -4    8     -3.45      0.00
   -2   -4    7      3.58      0.00
   -2   -4    6     -3.47      0.00
   -2   -4    5      8.82      0.00
   -2   -4    4     18.32      0.00
   -2   -4    3    -34.78      0.00
   -2   -4    2     13.93      0.00
   -2   -4    1    -15.09      0.00
    2    4    0     20.01      0.00
    2    4    1     -8.41      0.00
    2    4    2     26.09      0.00
    2    4    3    -22.45      0.00
    2    4    4     -9.46      0.00
    2    4    5     10.19      0.00
    2    4    6    -12.48      0.00
    2    4    7     25.23      0.00
    2    4    8    -11.66      0.00
    2    4    9     -0.01      0.00
    2    4   10     -2.47      0.00
    2    4   11     -3.98      0.00
    2    4   12      5.89      0.00
    2    4   13      2.50      0.00
    2    4   14     -0.75      0.00
    2    4   15     -2.44      0.00
    2    4   16      0.30      0.00
    2    4   17     -3.05      0.00
    2    4   18      4.04      0.00
    2    4   19      0.43      0.00
    2    4   20      0.40      0.00
    2    4   21     -0.80      0.00
   -2   -5   18     -0.18      0.00
   -2   -5   17      2.13      0.00
   -2   -5   16     -2.99      0.00
   -2   -5   15     -0.75      0.00
   -2   -5   14     -1.28      0.00
   -2   -5   13      3.65      0.00
   -2   -5   12     -1.24      0.00
   -2   -5   11      6.84      0.00
   -2   -5   10    -10.47      0.00
   -2   -5    9      0.63      0.00
   -2   -5    8     -0.20      0.00
   -2   -5    7      0.01      0.00
   -2   -5    6     15.40      0.00
   -2   -5    5     -9.68      0.00
   -2   -5    4     -5.07      0.00
   -2   -5    3     -7.70      0.00
   -2   -5    2      8.91      0.00
   -2   -5    1     -3.20      0.00
    2    5    0     14.94      0.00
    2    5    1     10.91      0.00
    2    5    2    -40.50      0.00
    2    5    3     23.60      0.00
    2    5    4    -10.67      0.00
    2    5    5      3.06      0.00
    2    5    6     15.07      0.00
    2    5    7     -7.65      0.00
    2    5    8     -5.72      0.00
    2    5    9      0.26      0.00
    2    5   10     -2.05      0.00
    2    5   11      6.00      0.00
    2    5   12      0.49      0.00
    2    5   13      0.96      0.00
    2    5   14     -4.93      0.00
    2    5   15      0.49      0.00
    2    5   16      0.22      0.00
    2    5   17      1.93      0.00
    2    5   18      1.81      0.00
    2    5   19     -1.65      0.00
    2    5   20      0.65      0.00
    2    5   21     -0.96      0.00
   -2   -6   18      0.52      0.00
   -2   -6   17     -2.19      0.00
   -2   -6   16     -0.08      0.00
   -2   -6   15      0.00      0.00
   -2   -6   14      2.31      0.00
   -2   -6   13     -0.20      0.00
   -2   -6   12      2.49      0.00
   -2   -6   11     -5.63      0.00
   -2   -6   10     -3.23      0.00
   -2   -6    9      6.52      0.00
   -2   -6    8     -1.85      0.00
   -2   -6    7      8.77      0.00
   -2   -6    6     -9.18      0.00
   -2   -6    5      0.94      0.00
   -2   -6    4    -14.03      0.00
   -2   -6    3     16.96      0.00
   -2   -6    2     -3.36      0.00
   -2   -6    1     13.18      0.00
    2    6    0     -5.06      0.00
    2    6    1    -26.43      0.00
    2    6    2     31.57      0.00
    2    6    3    -33.03      0.00
    2    6    4     32.84      0.00
    2    6    5     -7.78      0.00
    2    6    6      0.01      0.00
    2    6    7    -10.07      0.00
    2    6    8      2.96      0.00
    2    6    9      1.07      0.00
    2    6   10      0.22      0.00
    2    6   11      8.45      0.00
    2    6   12     -7.65      0.00
    2    6   13     -1.60      0.00
    2    6   14      0.94      0.00
    2    6   15      1.57      0.00
    2    6   16     -0.17      0.00
    2    6   17      4.33      0.00
    2    6   18     -5.05      0.00
    2    6   19      2.60      0.00
    2    6   20     -2.22      0.00
    2    6   21      1.10      0.00
   -2   -7   17     -1.94      0.00
   -2   -7   16      2.49      0.00
   -2   -7   15     -0.73      0.00
   -2   -7   14      2.13      0.00
   -2   -7   13     -1.30      0.00
   -2   -7   12     -2.47      0.00
   -2   -7   11     -2.51      0.00
   -2   -7   10      7.07      0.00
   -2   -7    9     -3.99      0.00
   -2   -7    8      5.68      0.00
   -2   -7    7     -2.36      0.00
   -2   -7    6    -10.39      0.00
   -2   -7    5      2.00      0.00
   -2   -7    4      8.80      0.00
   -2   -7    3      0.28      0.00
   -2   -7    2      2.52      0.00
   -2   -7    1     -1.02      0.00
    2    7    0    -16.69      0.00
    2    7    1     12.73      0.00
    2    7    2    -10.50      0.00
    2    7    3     24.83      0.00
    2    7    4    -15.74      0.00
    2    7    5      4.91      0.00
    2    7    6    -11.36      0.00
    2    7    7      3.74      0.00
    2    7    8      4.22      0.00
    2    7    9     -2.16      0.00
    2    7   10     10.11      0.00
    2    7   11    -14.79      0.00
    2    7   12      6.53      0.00
    2    7   13     -1.56      0.00
    2    7   14      0.43      0.00
    2    7   15      2.95      0.00
    2    7   16      0.79      0.00
    2    7   17     -4.25      0.00
    2    7   18      2.64      0.00
    2    7   19     -2.07      0.00
    2    7   20      1.76      0.00
   -2   -8   16     -1.57      0.00
   -2   -8   15      1.57      0.00
   -2   -8   14     -1.31      0.00
   -2   -8   13     -2.25      0.00
   -2   -8   12      1.01      0.00
   -2   -8   11      2.05      0.00
   -2   -8   10      0.32      0.00
   -2   -8    9      1.00      0.00
   -2   -8    8     -1.67      0.00
   -2   -8    7     -9.37      0.00
   -2   -8    6      9.94      0.00
   -2   -8    5     -0.57      0.00
   -2   -8    4      1.40      0.00
   -2   -8    3      3.74      0.00
   -2   -8    2     -6.46      0.00
   -2   -8    1     -9.88      0.00
    2    8    0      7.73      0.00
    2    8    1      7.77      0.00
    2    8    2     -4.31      0.00
    2    8    3      4.45      0.00
    2    8    4     -5.35      0.00
    2    8    5     -9.12      0.00
    2    8    6      8.85      0.00
    2    8    7      0.41      0.00
    2    8    8      0.86      0.00
    2    8    9      3.21      0.00
    2    8   10     -8.71      0.00
    2    8   11      3.75      0.00
    2    8   12     -0.63      0.00
    2    8   13      1.19      0.00
    2    8   14      3.95      0.00
    2    8   15     -4.21      0.00
    2    8   16      0.38      0.00
    2    8   17     -0.18      0.00
    2    8   18     -0.14      0.00
    2    8   19      1.71      0.00
    2    8   20     -0.56      0.00
   -2   -9   16      0.12      0.00
   -2   -9   15      0.25      0.00
   -2   -9   14     -2.39      0.00
   -2   -9   13      2.45      0.00
   -2   -9   12     -0.28      0.00
   -2   -9   11      1.66      0.00
   -2   -9   10     -1.48      0.00
   -2   -9    9     -0.92      0.00
   -2   -9    8     -3.37      0.00
   -2   -9    7      3.23      0.00
   -2   -9    6      3.34      0.00
   -2   -9    5     -1.89      0.00
   -2   -9    4      4.94      0.00
   -2   -9    3    -13.40      0.00
   -2   -9    2      2.96      0.00
   -2   -9    1      4.47      0.00
    2    9    0      3.73      0.00
    2    9    1     -4.48      0.00
    2    9    2      9.16      0.00
    2    9    3    -15.68      0.00
    2    9    4     -0.11      0.00
    2    9    5     11.14      0.00
    2    9    6     -6.81      0.00
    2    9    7      7.37      0.00
    2    9    8     -4.56      0.00
    2    9    9     -2.48      0.00
    2    9   10     -1.83      0.00
    2    9   11      6.27      0.00
    2    9   12     -1.44      0.00
    2    9   13      1.22      0.00
    2    9   14     -1.83      0.00
    2    9   15     -0.92      0.00
    2    9   16      0.25      0.00
    2    9   17      1.50      0.00
    2    9   18      1.00      0.00
    2    9   19     -1.35      0.00
    2    9   20      1.31      0.00
   -2  -10   15     -1.12      0.00
   -2  -10   14      1.47      0.00
   -2  -10   13      0.78      0.00
   -2  -10   12     -1.00      0.00
   -2  -10   11      0.63      0.00
   -2  -10   10     -2.15      0.00
   -2  -10    9     -0.44      0.00
   -2  -10    8      0.60      0.00
   -2  -10    7      5.91      0.00
   -2  -10    6     -6.57      0.00
   -2  -10    5      4.76      0.00
   -2  -10    4     -9.28      0.00
   -2  -10    3      4.24      0.00
   -2  -10    2      1.97      0.00
   -2  -10    1      1.73      0.00
    2   10    0      3.06      0.00
    2   10    1     -5.40      0.00
    2   10    2     -5.19      0.00
    2   10    3      1.30      0.00
    2   10    4      7.40      0.00
    2   10    5     -5.32      0.00
    2   10    6      6.57      0.00
    2   10    7     -6.34      0.00
    2   10    8     -2.37      0.00
    2   10    9      2.08      0.00
    2   10   10      4.33      0.00
    2   10   11     -2.50      0.00
    2   10   12      1.14      0.00
    2   10   13      0.07      0.00
    2   10   14     -4.78      0.00
    2   10   15      5.01      0.00
    2   10   16     -0.45      0.00
    2   10   17      0.36      0.00
    2   10   18     -0.31      0.00
    2   10   19      0.34      0.00
   -2  -11   14      1.19      0.00
   -2  -11   13     -2.10      0.00
   -2  -11   12      1.90      0.00
   -2  -11   11     -2.50      0.00
   -2  -11   10      0.33      0.00
   -2  -11    9      1.96      0.00
   -2  -11    8      0.54      0.00
   -2  -11    7     -2.16      0.00
   -2  -11    6      1.50      0.00
   -2  -11    5     -3.82      0.00
   -2  -11    4     -0.55      0.00
   -2  -11    3      6.25      0.00
   -2  -11    2     -0.79      0.00
   -2  -11    1      0.35      0.00
    2   11    0     -5.49      0.00
    2   11    1      1.46      0.00
    2   11    2     -3.44      0.00
    2   11    3      7.30      0.00
    2   11    4     -0.93      0.00
    2   11    5     -1.16      0.00
    2   11    6     -0.59      0.00
    2   11    7     -5.92      0.00
    2   11    8      7.55      0.00
    2   11    9     -2.33      0.00
    2   11   10      2.97      0.00
    2   11   11     -1.73      0.00
    2   11   12     -1.44      0.00
    2   11   13     -1.62      0.00
    2   11   14      4.35      0.00
    2   11   15     -0.83      0.00
    2   11   16     -0.16      0.00
    2   11   17      0.94      0.00
    2   11   18     -2.32      0.00
    2   11   19      0.53      0.00
   -2  -12   13      0.70      0.00
   -2  -12   12     -0.83      0.00
   -2  -12   11     -0.52      0.00
   -2  -12   10      2.59      0.00
   -2  -12    9     -2.36      0.00
   -2  -12    8      2.28      0.00
   -2  -12    7     -3.39      0.00
   -2  -12    6      0.78      0.00
   -2  -12    5     -1.28      0.00
   -2  -12    4      5.97      0.00
   -2  -12    3     -3.32      0.00
   -2  -12    2     -0.65      0.00
   -2  -12    1      0.67      0.00
    2   12    0     -5.36      0.00
    2   12    1      2.91      0.00
    2   12    2      5.27      0.00
    2   12    3     -2.47      0.00
    2   12    4     -2.54      0.00
    2   12    5      2.50      0.00
    2   12    6     -7.05      0.00
    2   12    7      8.18      0.00
    2   12    8     -2.67      0.00
    2   12    9      2.93      0.00
    2   12   10     -4.13      0.00
    2   12   11      0.84      0.00
    2   12   12      0.63      0.00
    2   12   13      0.12      0.00
    2   12   14      2.44      0.00
    2   12   15     -2.44      0.00
    2   12   16      1.43      0.00
    2   12   17     -2.52      0.00
    2   12   18      1.83      0.00
   -2  -13   11      1.50      0.00
   -2  -13   10     -1.24      0.00
   -2  -13    9      0.53      0.00
   -2  -13    8     -1.63      0.00
   -2  -13    7      1.19      0.00
   -2  -13    6     -0.84      0.00
   -2  -13    5      2.78      0.00
   -2  -13    4     -1.36      0.00
   -2  -13    3     -1.02      0.00
   -2  -13    2      0.25      0.00
   -2  -13    1     -4.86      0.00
    2   13    0      7.48      0.00
    2   13    1     -0.93      0.00
    2   13    2     -2.43      0.00
    2   13    3      2.06      0.00
    2   13    4     -2.94      0.00
    2   13    5     -1.54      0.00
    2   13    6      4.12      0.00
    2   13    7      0.56      0.00
    2   13    8     -2.07      0.00
    2   13    9      0.05      0.00
    2   13   10      0.79      0.00
    2   13   11     -1.83      0.00
    2   13   12      2.93      0.00
    2   13   13      1.16      0.00
    2   13   14     -3.24      0.00
    2   13   15      1.09      0.00
    2   13   16     -0.78      0.00
    2   13   17      0.65      0.00
   -2  -14   10     -1.40      0.00
   -2  -14    9      1.45      0.00
   -2  -14    8     -1.73      0.00
   -2  -14    7      1.14      0.00
   -2  -14    6      1.45      0.00
   -2  -14    5     -1.34      0.00
   -2  -14    4     -0.89      0.00
   -2  -14    3     -0.52      0.00
   -2  -14    2      0.21      0.00
   -2  -14    1      1.80      0.00
    2   14    0      0.97      0.00
    2   14    1     -2.20      0.00
    2   14    2      2.19      0.00
    2   14    3     -6.26      0.00
    2   14    4      5.08      0.00
    2   14    5     -0.64      0.00
    2   14    6      2.15      0.00
    2   14    7     -4.04      0.00
    2   14    8      2.66      0.00
    2   14    9     -1.00      0.00
    2   14   10     -0.83      0.00
    2   14   11      5.25      0.00
    2   14   12     -4.93      0.00
    2   14   13      0.99      0.00
    2   14   14     -0.13      0.00
    2   14   15      0.11      0.00
    2   14   16     -0.10      0.00
   -2  -15    8      1.77      0.00
   -2  -15    7      0.22      0.00
   -2  -15    6     -1.80      0.00
   -2  -15    5      1.07      0.00
   -2  -15    4     -1.26      0.00
   -2  -15    3      1.01      0.00
   -2  -15    2     -0.11      0.00
   -2  -15    1      3.43      0.00
    2   15    0     -4.73      0.00
    2   15    1      1.65      0.00
    2   15    2     -2.43      0.00
    2   15    3      3.33      0.00
    2   15    4     -1.30      0.00
    2   15    5      1.62      0.00
    2   15    6     -2.21      0.00
    2   15    7      1.49      0.00
    2   15    8     -0.73      0.00
    2   15    9      0.18      0.00
    2   15   10      2.95      0.00
    2   15   11     -4.29      0.00
    2   15   12      2.65      0.00
    2   15   13     -2.20      0.00
    2   15   14      0.71      0.00
    2   15   15      1.43      0.00
   -2  -16    6      0.51      0.00
   -2  -16    5     -1.03      0.00
   -2  -16    4      0.57      0.00
   -2  -16    3      1.92      0.00
   -2  -16    2     -0.68      0.00
   -2  -16    1     -1.91      0.00
    2   16    0      1.01      0.00
    2   16    1     -0.10      0.00
    2   16    2     -1.04      0.00
    2   16    3      2.80      0.00
    2   16    4     -0.58      0.00
    2   16    5     -1.29      0.00
    2   16    6      0.66      0.00
    2   16    7     -0.41      0.00
    2   16    8      1.26      0.00
    2   16    9      0.41      0.00
    2   16   10     -1.57      0.00
    2   16   11     -0.29      0.00
    2   16   12      0.32      0.00
    2   16   13      0.80      0.00
    2   16   14      0.75      0.00
   -2  -17    3     -2.22      0.00
   -2  -17    2      1.83      0.00
   -2  -17    1     -1.82      0.00
    2   17    0      0.72      0.00
    2   17    1     -0.75      0.00
    2   17    2      3.44      0.00
    2   17    3     -2.71      0.00
    2   17    4     -0.16      0.00
    2   17    5      1.77      0.00
    2   17    6     -1.59      0.00
    2   17    7      1.67      0.00
    2   17    8     -1.36      0.00
    2   17    9      0.68      0.00
    2   17   10     -0.97      0.00
    2   17   11      1.54      0.00
    2   18    1      0.95      0.00
    2   18    2     -1.30      0.00
    2   18    3      0.89      0.00
    2   18    4      0.54      0.00
    2   18    5     -1.53      0.00
    2   18    6      1.52      0.00
    2   18    7     -0.59      0.00
    2   18    8      0.30      0.00
   -3   17    7     -2.63      0.00
   -3   17    6      2.01      0.00
   -3   17    5     -2.57      0.00
   -3   17    4      2.08      0.00
   -3   17    3      0.03      0.00
   -3   17    2     -0.45      0.00
   -3   17    1      0.88      0.00
   -3   16   11      1.64      0.00
   -3   16   10      1.01      0.00
   -3   16    9      0.44      0.00
   -3   16    8     -2.42      0.00
   -3   16    7      2.11      0.00
   -3   16    6     -3.12      0.00
   -3   16    5      3.24      0.00
   -3   16    4     -0.08      0.00
   -3   16    3     -0.75      0.00
   -3   16    2      0.44      0.00
   -3   16    1     -1.83      0.00
   -3   16    0      1.58      0.00
    3  -16    1      0.37      0.00
    3  -16    2      0.50      0.00
    3  -16    3     -1.01      0.00
   -3   15   13     -0.60      0.00
   -3   15   12      1.33      0.00
   -3   15   11      1.59      0.00
   -3   15   10     -1.83      0.00
   -3   15    9      0.18      0.00
   -3   15    8     -0.97      0.00
   -3   15    7     -0.53      0.00
   -3   15    6      2.23      0.00
   -3   15    5      1.24      0.00
   -3   15    4     -2.39      0.00
   -3   15    3      0.82      0.00
   -3   15    2     -0.96      0.00
   -3   15    1      0.62      0.00
   -3   15    0      1.77      0.00
    3  -15    1     -0.20      0.00
    3  -15    2     -0.78      0.00
    3  -15    3     -0.90      0.00
    3  -15    4     -0.45      0.00
    3  -15    5     -0.08      0.00
    3  -15    6      2.15      0.00
   -3   14   15      0.65      0.00
   -3   14   14      0.10      0.00
   -3   14   13      1.08      0.00
   -3   14   12      1.57      0.00
   -3   14   11     -3.50      0.00
   -3   14   10      1.51      0.00
   -3   14    9     -2.76      0.00
   -3   14    8      2.31      0.00
   -3   14    7      1.06      0.00
   -3   14    6      1.44      0.00
   -3   14    5     -2.89      0.00
   -3   14    4      0.64      0.00
   -3   14    3     -0.14      0.00
   -3   14    2     -0.62      0.00
   -3   14    1      4.85      0.00
   -3   14    0     -3.14      0.00
    3  -14    1     -0.62      0.00
    3  -14    2     -0.80      0.00
    3  -14    3      0.61      0.00
    3  -14    4     -0.50      0.00
    3  -14    5      3.22      0.00
    3  -14    6     -3.70      0.00
    3  -14    7      1.59      0.00
    3  -14    8     -1.86      0.00
   -3   13   16      0.23      0.00
   -3   13   15      0.79      0.00
   -3   13   14      0.77      0.00
   -3   13   13      0.45      0.00
   -3   13   12     -2.96      0.00
   -3   13   11      0.09      0.00
   -3   13   10     -0.57      0.00
   -3   13    9      1.74      0.00
   -3   13    8      1.97      0.00
   -3   13    7     -0.66      0.00
   -3   13    6     -1.37      0.00
   -3   13    5     -1.01      0.00
   -3   13    4      1.42      0.00
   -3   13    3     -0.57      0.00
   -3   13    2      4.73      0.00
   -3   13    1     -3.79      0.00
   -3   13    0     -1.36      0.00
    3  -13    1      1.61      0.00
    3  -13    2     -2.50      0.00
    3  -13    3      3.77      0.00
    3  -13    4      0.67      0.00
    3  -13    5     -3.06      0.00
    3  -13    6     -0.37      0.00
    3  -13    7     -0.24      0.00
    3  -13    8     -0.28      0.00
    3  -13    9      1.96      0.00
    3  -13   10     -0.03      0.00
   -3   12   17     -0.20      0.00
   -3   12   16     -0.13      0.00
   -3   12   15      1.69      0.00
   -3   12   14     -1.30      0.00
   -3   12   13     -1.45      0.00
   -3   12   12     -1.48      0.00
   -3   12   11      2.45      0.00
   -3   12   10     -0.90      0.00
   -3   12    9      3.86      0.00
   -3   12    8     -2.16      0.00
   -3   12    7     -2.03      0.00
   -3   12    6     -0.68      0.00
   -3   12    5      2.23      0.00
   -3   12    4      0.77      0.00
   -3   12    3      2.18      0.00
   -3   12    2     -1.79      0.00
   -3   12    1     -4.66      0.00
   -3   12    0      5.42      0.00
    3  -12    1     -5.07      0.00
    3  -12    2      8.09      0.00
    3  -12    3     -4.27      0.00
    3  -12    4     -0.51      0.00
    3  -12    5     -2.22      0.00
    3  -12    6      0.48      0.00
    3  -12    7      0.43      0.00
    3  -12    8      2.15      0.00
    3  -12    9      0.89      0.00
    3  -12   10     -3.85      0.00
    3  -12   11      1.82      0.00
   -3   11   18     -0.50      0.00
   -3   11   17     -1.08      0.00
   -3   11   16      2.68      0.00
   -3   11   15     -3.46      0.00
   -3   11   14      0.59      0.00
   -3   11   13     -1.55      0.00
   -3   11   12      2.58      0.00
   -3   11   11     -0.73      0.00
   -3   11   10      3.39      0.00
   -3   11    9     -2.91      0.00
   -3   11    8     -4.69      0.00
   -3   11    7      4.88      0.00
   -3   11    6     -1.28      0.00
   -3   11    5      3.25      0.00
   -3   11    4      0.61      0.00
   -3   11    3     -2.45      0.00
   -3   11    2     -4.87      0.00
   -3   11    1      6.16      0.00
   -3   11    0     -2.99      0.00
    3  -11    1      5.93      0.00
    3  -11    2     -3.12      0.00
    3  -11    3     -2.35      0.00
    3  -11    4     -2.31      0.00
    3  -11    5      1.57      0.00
    3  -11    6      2.40      0.00
    3  -11    7      0.08      0.00
    3  -11    8      1.42      0.00
    3  -11    9     -5.37      0.00
    3  -11   10      3.34      0.00
    3  -11   11     -2.14      0.00
    3  -11   12      1.46      0.00
   -3   10   19      0.24      0.00
   -3   10   18     -0.62      0.00
   -3   10   17      0.87      0.00
   -3   10   16     -3.07      0.00
   -3   10   15      0.59      0.00
   -3   10   14      0.24      0.00
   -3   10   13      1.75      0.00
   -3   10   12      0.32      0.00
   -3   10   11      0.07      0.00
   -3   10   10     -2.11      0.00
   -3   10    9     -4.16      0.00
   -3   10    8      6.59      0.00
   -3   10    7     -4.09      0.00
   -3   10    6      6.72      0.00
   -3   10    5     -0.64      0.00
   -3   10    4     -7.10      0.00
   -3   10    3      1.06      0.00
   -3   10    2      1.57      0.00
   -3   10    1      3.47      0.00
   -3   10    0     -0.62      0.00
    3  -10    1      2.74      0.00
    3  -10    2     -9.78      0.00
    3  -10    3      2.14      0.00
    3  -10    4      2.97      0.00
    3  -10    5      0.07      0.00
    3  -10    6      2.28      0.00
    3  -10    7     -0.59      0.00
    3  -10    8     -5.03      0.00
    3  -10    9      1.62      0.00
    3  -10   10      0.71      0.00
    3  -10   11      1.05      0.00
    3  -10   12      2.11      0.00
    3  -10   13     -3.68      0.00
    3  -10   14      0.49      0.00
   -3    9   19     -0.95      0.00
   -3    9   18     -1.25      0.00
   -3    9   17     -0.08      0.00
   -3    9   16     -2.13      0.00
   -3    9   15      3.69      0.00
   -3    9   14     -0.39      0.00
   -3    9   13      0.37      0.00
   -3    9   12      0.04      0.00
   -3    9   11     -3.47      0.00
   -3    9   10     -2.28      0.00
   -3    9    9      4.28      0.00
   -3    9    8      1.39      0.00
   -3    9    7      2.23      0.00
   -3    9    6     -1.22      0.00
   -3    9    5     -8.02      0.00
   -3    9    4      4.88      0.00
   -3    9    3     -1.14      0.00
   -3    9    2      6.74      0.00
   -3    9    1     -2.70      0.00
   -3    9    0      2.27      0.00
    3   -9    1    -12.63      0.00
    3   -9    2      6.35      0.00
    3   -9    3      3.45      0.00
    3   -9    4     -2.65      0.00
    3   -9    5      7.59      0.00
    3   -9    6     -8.32      0.00
    3   -9    7     -1.74      0.00
    3   -9    8      1.79      0.00
    3   -9    9      2.77      0.00
    3   -9   10     -0.63      0.00
    3   -9   11      1.13      0.00
    3   -9   12     -2.03      0.00
    3   -9   13     -1.22      0.00
    3   -9   14      1.40      0.00
    3   -9   15     -0.54      0.00
   -3    8   20     -0.59      0.00
   -3    8   19     -0.19      0.00
   -3    8   18     -0.44      0.00
   -3    8   17     -2.88      0.00
   -3    8   16      5.01      0.00
   -3    8   15     -1.34      0.00
   -3    8   14      0.44      0.00
   -3    8   13      0.57      0.00
   -3    8   12     -7.23      0.00
   -3    8   11      2.64      0.00
   -3    8   10      3.45      0.00
   -3    8    9      2.31      0.00
   -3    8    8     -3.03      0.00
   -3    8    7      2.39      0.00
   -3    8    6     -8.21      0.00
   -3    8    5      1.47      0.00
   -3    8    4      7.88      0.00
   -3    8    3     -1.42      0.00
   -3    8    2      3.24      0.00
   -3    8    1     -7.28      0.00
   -3    8    0     -4.94      0.00
    3   -8    1      3.77      0.00
    3   -8    2      5.15      0.00
    3   -8    3     -1.02      0.00
    3   -8    4      5.43      0.00
    3   -8    5    -10.91      0.00
    3   -8    6      0.06      0.00
    3   -8    7      3.67      0.00
    3   -8    8      0.49      0.00
    3   -8    9      2.42      0.00
    3   -8   10     -1.25      0.00
    3   -8   11     -1.26      0.00
    3   -8   12     -4.56      0.00
    3   -8   13      6.17      0.00
    3   -8   14     -1.95      0.00
    3   -8   15      1.84      0.00
    3   -8   16     -1.35      0.00
   -3    7   20      0.32      0.00
   -3    7   19     -2.18      0.00
   -3    7   18      0.75      0.00
   -3    7   17      1.69      0.00
   -3    7   16      0.44      0.00
   -3    7   15     -1.49      0.00
   -3    7   14      0.57      0.00
   -3    7   13     -6.57      0.00
   -3    7   12      4.98      0.00
   -3    7   11      2.49      0.00
   -3    7   10     -1.40      0.00
   -3    7    9      2.56      0.00
   -3    7    8     -3.90      0.00
   -3    7    7     -6.20      0.00
   -3    7    6      2.88      0.00
   -3    7    5     14.41      0.00
   -3    7    4    -13.46      0.00
   -3    7    3     11.88      0.00
   -3    7    2    -15.42      0.00
   -3    7    1     -0.32      0.00
   -3    7    0      3.73      0.00
    3   -7    1      7.90      0.00
    3   -7    2      0.54      0.00
    3   -7    3     -3.70      0.00
    3   -7    4     -3.53      0.00
    3   -7    5     -6.18      0.00
    3   -7    6     10.05      0.00
    3   -7    7     -1.73      0.00
    3   -7    8      4.57      0.00
    3   -7    9     -4.77      0.00
    3   -7   10     -2.17      0.00
    3   -7   11     -1.31      0.00
    3   -7   12      6.15      0.00
    3   -7   13     -3.03      0.00
    3   -7   14      1.78      0.00
    3   -7   15     -0.72      0.00
    3   -7   16     -2.34      0.00
   -3    6   20     -1.40      0.00
   -3    6   19      1.74      0.00
   -3    6   18     -0.41      0.00
   -3    6   17      1.37      0.00
   -3    6   16     -3.08      0.00
   -3    6   15      0.99      0.00
   -3    6   14     -3.92      0.00
   -3    6   13      2.60      0.00
   -3    6   12      4.37      0.00
   -3    6   11     -2.89      0.00
   -3    6   10      4.04      0.00
   -3    6    9    -11.46      0.00
   -3    6    8      3.12      0.00
   -3    6    7      2.94      0.00
   -3    6    6      8.85      0.00
   -3    6    5     -8.52      0.00
   -3    6    4      6.35      0.00
   -3    6    3    -13.82      0.00
   -3    6    2     -3.81      0.00
   -3    6    1     16.35      0.00
   -3    6    0      0.31      0.00
    3   -6    1      0.09      0.00
    3   -6    2     -4.44      0.00
    3   -6    3     -3.15      0.00
    3   -6    4     -9.30      0.00
    3   -6    5     16.82      0.00
    3   -6    6     -2.68      0.00
    3   -6    7      1.25      0.00
    3   -6    8     -2.43      0.00
    3   -6    9     -5.74      0.00
    3   -6   10      3.46      0.00
    3   -6   11      1.82      0.00
    3   -6   12      1.72      0.00
    3   -6   13     -0.62      0.00
    3   -6   14     -1.79      0.00
    3   -6   15     -2.53      0.00
    3   -6   16      2.22      0.00
    3   -6   17      1.17      0.00
   -3    5   20      0.53      0.00
   -3    5   19      1.35      0.00
   -3    5   18     -1.40      0.00
   -3    5   17     -1.18      0.00
   -3    5   16     -0.45      0.00
   -3    5   15     -2.22      0.00
   -3    5   14      2.56      0.00
   -3    5   13      5.04      0.00
   -3    5   12     -3.65      0.00
   -3    5   11     -1.41      0.00
   -3    5   10     -3.81      0.00
   -3    5    9      0.13      0.00
   -3    5    8      4.38      0.00
   -3    5    7      6.79      0.00
   -3    5    6     -3.66      0.00
   -3    5    5     -6.99      0.00
   -3    5    4     -2.39      0.00
   -3    5    3     -6.62      0.00
   -3    5    2     23.29      0.00
   -3    5    1     -7.11      0.00
   -3    5    0      0.36      0.00
    3   -5    1     -0.58      0.00
    3   -5    2    -17.76      0.00
    3   -5    3      8.94      0.00
    3   -5    4     10.40      0.00
    3   -5    5     -0.03      0.00
    3   -5    6     -3.63      0.00
    3   -5    7      1.25      0.00
    3   -5    8    -10.26      0.00
    3   -5    9      7.10      0.00
    3   -5   10      2.75      0.00
    3   -5   11      1.35      0.00
    3   -5   12     -2.89      0.00
    3   -5   13     -1.70      0.00
    3   -5   14     -1.09      0.00
    3   -5   15      1.53      0.00
    3   -5   16      2.59      0.00
    3   -5   17     -1.57      0.00
    3   -5   18      0.81      0.00
   -3    4   20      2.20      0.00
   -3    4   19     -2.61      0.00
   -3    4   18     -0.22      0.00
   -3    4   17     -1.52      0.00
   -3    4   16     -0.47      0.00
   -3    4   15      4.15      0.00
   -3    4   14      0.59      0.00
   -3    4   13     -1.52      0.00
   -3    4   12     -4.55      0.00
   -3    4   11      4.06      0.00
   -3    4   10    -10.14      0.00
   -3    4    9     15.98      0.00
   -3    4    8      0.43      0.00
   -3    4    7    -10.15      0.00
   -3    4    6      1.78      0.00
   -3    4    5     -7.09      0.00
   -3    4    4      1.04      0.00
   -3    4    3     16.42      0.00
   -3    4    2      1.54      0.00
   -3    4    1    -12.11      0.00
   -3    4    0      2.11      0.00
    3   -4    1    -20.95      0.00
    3   -4    2     24.22      0.00
    3   -4    3     -1.68      0.00
    3   -4    4      6.72      0.00
    3   -4    5     -7.29      0.00
    3   -4    6     -2.28      0.00
    3   -4    7     -7.30      0.00
    3   -4    8      7.51      0.00
    3   -4    9      7.06      0.00
    3   -4   10     -6.10      0.00
    3   -4   11      2.17      0.00
    3   -4   12     -4.92      0.00
    3   -4   13     -0.23      0.00
    3   -4   14      2.87      0.00
    3   -4   15      2.58      0.00
    3   -4   16     -1.87      0.00
    3   -4   17      0.13      0.00
    3   -4   18     -1.73      0.00
   -3    3   20     -2.18      0.00
   -3    3   19     -1.06      0.00
   -3    3   18      0.81      0.00
   -3    3   17     -1.43      0.00
   -3    3   16      4.12      0.00
   -3    3   15     -0.91      0.00
   -3    3   14     -0.31      0.00
   -3    3   13     -5.23      0.00
   -3    3   12      3.11      0.00
   -3    3   11     -6.18      0.00
   -3    3   10     17.21      0.00
   -3    3    9     -7.98      0.00
   -3    3    8     -8.43      0.00
   -3    3    7     10.74      0.00
   -3    3    6    -23.36      0.00
   -3    3    5     24.07      0.00
   -3    3    4      1.66      0.00
   -3    3    3      6.69      0.00
   -3    3    2    -25.07      0.00
   -3    3    1      9.85      0.00
   -3    3    0    -12.79      0.00
    3   -3    1     12.28      0.00
    3   -3    2     14.62      0.00
    3   -3    3     -5.56      0.00
    3   -3    4     -6.36      0.00
    3   -3    5     -6.44      0.00
    3   -3    6      0.19      0.00
    3   -3    7      5.64      0.00
    3   -3    8      8.85      0.00
    3   -3    9     -9.53      0.00
    3   -3   10      4.52      0.00
    3   -3   11     -8.41      0.00
    3   -3   12      2.55      0.00
    3   -3   13      4.67      0.00
    3   -3   14     -0.41      0.00
    3   -3   15     -0.06      0.00
    3   -3   16     -1.95      0.00
    3   -3   17     -0.84      0.00
    3   -3   18     -0.10      0.00
    3   -3   19      2.51      0.00
   -3    2   20      0.48      0.00
   -3    2   19      0.27      0.00
   -3    2   18     -1.44      0.00
   -3    2   17      3.90      0.00
   -3    2   16     -0.17      0.00
   -3    2   15     -4.53      0.00
   -3    2   14     -0.37      0.00
   -3    2   13     -0.09      0.00
   -3    2   12      2.01      0.00
   -3    2   11      6.26      0.00
   -3    2   10     -3.88      0.00
   -3    2    9     -6.46      0.00
   -3    2    8      2.81      0.00
   -3    2    7    -11.93      0.00
   -3    2    6     25.22      0.00
   -3    2    5     -6.81      0.00
   -3    2    4      2.59      0.00
   -3    2    3    -18.11      0.00
   -3    2    2      7.02      0.00
   -3    2    1     -8.78      0.00
   -3    2    0      8.88      0.00
    3   -2    1     32.00      0.00
    3   -2    2    -35.49      0.00
    3   -2    3      9.42      0.00
    3   -2    4     -8.81      0.00
    3   -2    5     -2.14      0.00
    3   -2    6     14.05      0.00
    3   -2    7      3.02      0.00
    3   -2    8     -5.88      0.00
    3   -2    9     -3.26      0.00
    3   -2   10     -2.95      0.00
    3   -2   11      2.02      0.00
    3   -2   12      6.00      0.00
    3   -2   13     -1.61      0.00
    3   -2   14     -0.69      0.00
    3   -2   15     -2.93      0.00
    3   -2   16      0.32      0.00
    3   -2   17      0.76      0.00
    3   -2   18      2.36      0.00
    3   -2   19     -0.66      0.00
   -3    1   20     -1.88      0.00
   -3    1   19      2.37      0.00
   -3    1   18      0.79      0.00
   -3    1   17     -0.24      0.00
   -3    1   16     -5.32      0.00
   -3    1   15      3.48      0.00
   -3    1   14     -3.03      0.00
   -3    1   13      4.49      0.00
   -3    1   12      3.33      0.00
   -3    1   11     -2.38      0.00
   -3    1   10     -8.44      0.00
   -3    1    9      0.17      0.00
   -3    1    8      5.62      0.00
   -3    1    7      1.78      0.00
   -3    1    6     10.60      0.00
   -3    1    5    -11.68      0.00
   -3    1    4    -11.65      0.00
   -3    1    3      3.98      0.00
   -3    1    2     -2.60      0.00
   -3    1    1     21.93      0.00
   -3    1    0      5.88      0.00
    3   -1    1    -27.86      0.00
    3   -1    2     11.37      0.00
    3   -1    3     -9.21      0.00
    3   -1    4     -3.34      0.00
    3   -1    5     27.52      0.00
    3   -1    6    -12.12      0.00
    3   -1    7     -0.64      0.00
    3   -1    8     -8.32      0.00
    3   -1    9      3.81      0.00
    3   -1   10     -1.72      0.00
    3   -1   11      8.46      0.00
    3   -1   12     -1.92      0.00
    3   -1   13     -4.50      0.00
    3   -1   14      0.94      0.00
    3   -1   15     -1.90      0.00
    3   -1   16      2.87      0.00
    3   -1   17      1.90      0.00
    3   -1   18     -0.79      0.00
    3   -1   19     -1.45      0.00
    3   -1   20     -0.04      0.00
   -3    0   20      2.23      0.00
   -3    0   19     -1.66      0.00
   -3    0   18      0.31      0.00
   -3    0   17     -3.17      0.00
   -3    0   16      1.20      0.00
   -3    0   15      0.32      0.00
   -3    0   14      2.06      0.00
   -3    0   13      4.75      0.00
   -3    0   12     -8.37      0.00
   -3    0   11     -2.33      0.00
   -3    0   10      1.36      0.00
   -3    0    9      4.16      0.00
   -3    0    8     -0.56      0.00
   -3    0    7     16.13      0.00
   -3    0    6    -25.61      0.00
   -3    0    5     -4.35      0.00
   -3    0    4     15.04      0.00
   -3    0    3    -11.00      0.00
   -3    0    2     29.78      0.00
   -3    0    1    -18.30      0.00
    3    0    0      0.47      0.00
    3    0    1    -16.24      0.00
    3    0    2      9.21      0.00
    3    0    3      0.60      0.00
    3    0    4     21.82      0.00
    3    0    5    -13.51      0.00
    3    0    6     -4.15      0.00
    3    0    7     -3.41      0.00
    3    0    8     -0.91      0.00
    3    0    9      3.74      0.00
    3    0   10      8.20      0.00
    3    0   11     -3.77      0.00
    3    0   12     -6.45      0.00
    3    0   13      3.56      0.00
    3    0   14     -4.15      0.00
    3    0   15      6.74      0.00
    3    0   16      0.60      0.00
    3    0   17     -2.65      0.00
    3    0   18     -0.96      0.00
    3    0   19      0.18      0.00
    3    0   20     -0.37      0.00
   -3   -1   20      0.79      0.00
   -3   -1   19     -0.57      0.00
   -3   -1   18     -2.24      0.00
   -3   -1   17      0.50      0.00
   -3   -1   16      3.04      0.00
   -3   -1   15     -1.32      0.00
   -3   -1   14      4.80      0.00
   -3   -1   13     -9.13      0.00
   -3   -1   12      1.10      0.00
   -3   -1   11      0.92      0.00
   -3   -1   10      0.94      0.00
   -3   -1    9      9.26      0.00
   -3   -1    8     -3.62      0.00
   -3   -1    7    -12.16      0.00
   -3   -1    6     -4.19      0.00
   -3   -1    5     17.32      0.00
   -3   -1    4    -16.72      0.00
   -3   -1    3     34.71      0.00
   -3   -1    2    -21.79      0.00
   -3   -1    1     -9.45      0.00
    3    1    0     -8.80      0.00
    3    1    1     18.87      0.00
    3    1    2     -0.21      0.00
    3    1    3      9.88      0.00
    3    1    4     -0.34      0.00
    3    1    5    -23.04      0.00
    3    1    6     11.22      0.00
    3    1    7     -6.75      0.00
    3    1    8     11.94      0.00
    3    1    9      2.11      0.00
    3    1   10     -5.75      0.00
    3    1   11     -2.88      0.00
    3    1   12      0.90      0.00
    3    1   13     -0.74      0.00
    3    1   14      5.09      0.00
    3    1   15      0.60      0.00
    3    1   16     -3.90      0.00
    3    1   17      0.80      0.00
    3    1   18     -1.59      0.00
    3    1   19      0.86      0.00
    3    1   20      2.13      0.00
   -3   -2   20     -2.35      0.00
   -3   -2   19     -0.62      0.00
   -3   -2   18      2.39      0.00
   -3   -2   17      0.24      0.00
   -3   -2   16      0.47      0.00
   -3   -2   15      0.82      0.00
   -3   -2   14     -5.35      0.00
   -3   -2   13     -1.14      0.00
   -3   -2   12      5.23      0.00
   -3   -2   11     -0.67      0.00
   -3   -2   10      7.19      0.00
   -3   -2    9     -9.80      0.00
   -3   -2    8     -0.29      0.00
   -3   -2    7     -9.84      0.00
   -3   -2    6     18.14      0.00
   -3   -2    5     -8.26      0.00
   -3   -2    4     19.83      0.00
   -3   -2    3    -18.66      0.00
   -3   -2    2    -18.18      0.00
   -3   -2    1     21.52      0.00
    3    2    0     -8.55      0.00
    3    2    1     14.71      0.00
    3    2    2      4.84      0.00
    3    2    3     -4.60      0.00
    3    2    4    -27.07      0.00
    3    2    5     21.89      0.00
    3    2    6     -8.25      0.00
    3    2    7      9.56      0.00
    3    2    8      4.76      0.00
    3    2    9    -10.33      0.00
    3    2   10      0.30      0.00
    3    2   11     -2.85      0.00
    3    2   12      5.38      0.00
    3    2   13      0.51      0.00
    3    2   14      3.10      0.00
    3    2   15     -6.39      0.00
    3    2   16      1.52      0.00
    3    2   17     -1.50      0.00
    3    2   18      2.13      0.00
    3    2   19      1.96      0.00
    3    2   20     -0.92      0.00
   -3   -3   19      1.40      0.00
   -3   -3   18     -1.22      0.00
   -3   -3   17      2.37      0.00
   -3   -3   16     -2.78      0.00
   -3   -3   15     -1.43      0.00
   -3   -3   14     -1.83      0.00
   -3   -3   13      6.36      0.00
   -3   -3   12     -2.00      0.00
   -3   -3   11      2.89      0.00
   -3   -3   10     -2.07      0.00
   -3   -3    9     -9.66      0.00
   -3   -3    8      2.19      0.00
   -3   -3    7     12.30      0.00
   -3   -3    6     -4.79      0.00
   -3   -3    5      6.61      0.00
   -3   -3    4    -11.68      0.00
   -3   -3    3    -11.60      0.00
   -3   -3    2     15.56      0.00
   -3   -3    1     -4.99      0.00
    3    3    0     19.59      0.00
    3    3    1     -5.12      0.00
    3    3    2    -14.76      0.00
    3    3    3     -6.49      0.00
    3    3    4     11.81      0.00
    3    3    5     -2.02      0.00
    3    3    6      6.45      0.00
    3    3    7      7.02      0.00
    3    3    8    -18.21      0.00
    3    3    9      3.89      0.00
    3    3   10      0.80      0.00
    3    3   11      3.56      0.00
    3    3   12      0.67      0.00
    3    3   13      1.32      0.00
    3    3   14     -6.32      0.00
    3    3   15      2.26      0.00
    3    3   16      0.11      0.00
    3    3   17      0.82      0.00
    3    3   18      2.50      0.00
    3    3   19     -1.62      0.00
    3    3   20      0.09      0.00
   -3   -4   19      0.57      0.00
   -3   -4   18     -0.23      0.00
   -3   -4   17     -1.52      0.00
   -3   -4   16     -1.47      0.00
   -3   -4   15      0.74      0.00
   -3   -4   14      3.38      0.00
   -3   -4   13      0.01      0.00
   -3   -4   12     -0.43      0.00
   -3   -4   11     -0.10      0.00
   -3   -4   10    -12.71      0.00
   -3   -4    9     14.89      0.00
   -3   -4    8     -1.37      0.00
   -3   -4    7     -0.54      0.00
   -3   -4    6      5.02      0.00
   -3   -4    5    -15.76      0.00
   -3   -4    4      0.01      0.00
   -3   -4    3      3.04      0.00
   -3   -4    2     20.51      0.00
   -3   -4    1    -14.26      0.00
    3    4    0      9.25      0.00
    3    4    1    -18.60      0.00
    3    4    2      0.68      0.00
    3    4    3      7.16      0.00
    3    4    4      4.18      0.00
    3    4    5      5.32      0.00
    3    4    6     -3.45      0.00
    3    4    7    -11.15      0.00
    3    4    8      1.93      0.00
    3    4    9      6.02      0.00
    3    4   10     -3.30      0.00
    3    4   11      7.82      0.00
    3    4   12     -5.81      0.00
    3    4   13     -2.67      0.00
    3    4   14      1.21      0.00
    3    4   15      1.41      0.00
    3    4   16      0.93      0.00
    3    4   17      1.85      0.00
    3    4   18     -1.92      0.00
    3    4   19     -0.53      0.00
    3    4   20     -0.06      0.00
    3    4   21      0.44      0.00
   -3   -5   18      0.93      0.00
   -3   -5   17     -2.48      0.00
   -3   -5   16      2.77      0.00
   -3   -5   15      0.78      0.00
   -3   -5   14      0.52      0.00
   -3   -5   13     -1.37      0.00
   -3   -5   12     -1.50      0.00
   -3   -5   11     -4.78      0.00
   -3   -5   10      8.78      0.00
   -3   -5    9     -1.72      0.00
   -3   -5    8      1.32      0.00
   -3   -5    7      1.26      0.00
   -3   -5    6    -16.03      0.00
   -3   -5    5      8.50      0.00
   -3   -5    4      1.04      0.00
   -3   -5    3     17.73      0.00
   -3   -5    2    -22.69      0.00
   -3   -5    1     21.97      0.00
    3    5    0    -30.24      0.00
    3    5    1      5.25      0.00
    3    5    2     19.72      0.00
    3    5    3     -8.50      0.00
    3    5    4      8.76      0.00
    3    5    5    -11.77      0.00
    3    5    6     -0.97      0.00
    3    5    7     -5.03      0.00
    3    5    8     12.78      0.00
    3    5    9     -5.69      0.00
    3    5   10      7.40      0.00
    3    5   11     -8.52      0.00
    3    5   12     -0.17      0.00
    3    5   13      1.22      0.00
    3    5   14      1.63      0.00
    3    5   15      1.91      0.00
    3    5   16     -0.86      0.00
    3    5   17     -0.41      0.00
    3    5   18     -2.40      0.00
    3    5   19      2.70      0.00
    3    5   20     -1.05      0.00
   -3   -6   18     -1.14      0.00
   -3   -6   17      1.64      0.00
   -3   -6   16      0.96      0.00
   -3   -6   15     -1.15      0.00
   -3   -6   14      0.38      0.00
   -3   -6   13     -3.38      0.00
   -3   -6   12      0.82      0.00
   -3   -6   11      1.76      0.00
   -3   -6   10      4.95      0.00
   -3   -6    9     -5.18      0.00
   -3   -6    8     -0.22      0.00
   -3   -6    7     -6.70      0.00
   -3   -6    6      3.39      0.00
   -3   -6    5      7.11      0.00
   -3   -6    4      2.44      0.00
   -3   -6    3     -4.89      0.00
   -3   -6    2      1.49      0.00
   -3   -6    1    -17.76      0.00
    3    6    0     11.96      0.00
    3    6    1     14.25      0.00
    3    6    2    -14.25      0.00
    3    6    3     12.92      0.00
    3    6    4    -13.50      0.00
    3    6    5     -3.92      0.00
    3    6    6      2.82      0.00
    3    6    7      9.96      0.00
    3    6    8     -4.64      0.00
    3    6    9      1.52      0.00
    3    6   10     -2.50      0.00
    3    6   11     -4.83      0.00
    3    6   12      5.07      0.00
    3    6   13      1.33      0.00
    3    6   14      0.31      0.00
    3    6   15     -0.88      0.00
    3    6   16     -0.69      0.00
    3    6   17     -1.78      0.00
    3    6   18      3.42      0.00
    3    6   19     -1.88      0.00
    3    6   20      1.87      0.00
   -3   -7   17      1.34      0.00
   -3   -7   16     -2.02      0.00
   -3   -7   15      1.20      0.00
   -3   -7   14     -2.63      0.00
   -3   -7   13      1.33      0.00
   -3   -7   12      1.87      0.00
   -3   -7   11      2.45      0.00
   -3   -7   10     -5.53      0.00
   -3   -7    9      1.24      0.00
   -3   -7    8     -2.40      0.00
   -3   -7    7     -2.74      0.00
   -3   -7    6     14.16      0.00
   -3   -7    5     -7.79      0.00
   -3   -7    4      1.76      0.00
   -3   -7    3     -9.05      0.00
   -3   -7    2      1.01      0.00
   -3   -7    1      3.80      0.00
    3    7    0      7.60      0.00
    3    7    1     -2.45      0.00
    3    7    2     -0.89      0.00
    3    7    3     -6.70      0.00
    3    7    4     -6.98      0.00
    3    7    5     14.37      0.00
    3    7    6     -2.44      0.00
    3    7    7      1.79      0.00
    3    7    8     -3.30      0.00
    3    7    9     -0.68      0.00
    3    7   10     -5.78      0.00
    3    7   11      9.13      0.00
    3    7   12     -0.65      0.00
    3    7   13     -3.06      0.00
    3    7   14      3.48      0.00
    3    7   15     -4.89      0.00
    3    7   16      2.50      0.00
    3    7   17      0.58      0.00
    3    7   18      0.57      0.00
    3    7   19      0.50      0.00
    3    7   20     -0.78      0.00
   -3   -8   16      0.30      0.00
   -3   -8   15     -0.01      0.00
   -3   -8   14     -0.70      0.00
   -3   -8   13      3.70      0.00
   -3   -8   12     -2.40      0.00
   -3   -8   11     -0.50      0.00
   -3   -8   10     -1.05      0.00
   -3   -8    9     -1.71      0.00
   -3   -8    8      0.62      0.00
   -3   -8    7      9.60      0.00
   -3   -8    6     -8.58      0.00
   -3   -8    5     -0.38      0.00
   -3   -8    4     -1.20      0.00
   -3   -8    3     -3.07      0.00
   -3   -8    2      5.42      0.00
   -3   -8    1      7.96      0.00
    3    8    0     -4.50      0.00
    3    8    1     -8.34      0.00
    3    8    2      3.10      0.00
    3    8    3     -6.42      0.00
    3    8    4     11.84      0.00
    3    8    5     -2.16      0.00
    3    8    6      0.80      0.00
    3    8    7     -4.55      0.00
    3    8    8     -1.39      0.00
    3    8    9     -0.43      0.00
    3    8   10      5.55      0.00
    3    8   11     -0.23      0.00
    3    8   12     -3.17      0.00
    3    8   13      3.59      0.00
    3    8   14     -6.89      0.00
    3    8   15      6.02      0.00
    3    8   16     -0.90      0.00
    3    8   17      1.59      0.00
    3    8   18     -1.66      0.00
    3    8   19      0.09      0.00
    3    8   20      0.05      0.00
   -3   -9   15     -1.37      0.00
   -3   -9   14      3.21      0.00
   -3   -9   13     -2.89      0.00
   -3   -9   12      0.37      0.00
   -3   -9   11     -1.17      0.00
   -3   -9   10     -0.93      0.00
   -3   -9    9      3.36      0.00
   -3   -9    8      0.62      0.00
   -3   -9    7     -1.10      0.00
   -3   -9    6     -4.29      0.00
   -3   -9    5      3.26      0.00
   -3   -9    4     -7.31      0.00
   -3   -9    3     12.85      0.00
   -3   -9    2      0.31      0.00
   -3   -9    1     -8.84      0.00
    3    9    0      1.93      0.00
    3    9    1     -3.70      0.00
    3    9    2      0.29      0.00
    3    9    3      5.08      0.00
    3    9    4      6.39      0.00
    3    9    5    -11.54      0.00
    3    9    6      3.31      0.00
    3    9    7     -3.52      0.00
    3    9    8      1.44      0.00
    3    9    9      4.74      0.00
    3    9   10     -0.40      0.00
    3    9   11     -2.81      0.00
    3    9   12     -0.55      0.00
    3    9   13     -0.65      0.00
    3    9   14      2.39      0.00
    3    9   15      1.29      0.00
    3    9   16     -0.54      0.00
    3    9   17     -0.89      0.00
    3    9   18      0.01      0.00
    3    9   19     -0.37      0.00
    3    9   20      0.29      0.00
   -3  -10   15      1.12      0.00
   -3  -10   14     -1.08      0.00
   -3  -10   13     -1.33      0.00
   -3  -10   12      1.33      0.00
   -3  -10   11     -1.61      0.00
   -3  -10   10      2.61      0.00
   -3  -10    9     -0.55      0.00
   -3  -10    8      0.70      0.00
   -3  -10    7     -5.49      0.00
   -3  -10    6      4.03      0.00
   -3  -10    5     -2.96      0.00
   -3  -10    4      7.41      0.00
   -3  -10    3     -2.16      0.00
   -3  -10    2     -5.35      0.00
   -3  -10    1      3.79      0.00
    3   10    0     -9.47      0.00
    3   10    1      9.59      0.00
    3   10    2     -0.34      0.00
    3   10    3      5.78      0.00
    3   10    4    -14.71      0.00
    3   10    5     10.00      0.00
    3   10    6     -7.66      0.00
    3   10    7      3.00      0.00
    3   10    8      7.15      0.00
    3   10    9     -6.31      0.00
    3   10   10      0.88      0.00
    3   10   11     -2.49      0.00
    3   10   12      3.33      0.00
    3   10   13     -2.60      0.00
    3   10   14      5.30      0.00
    3   10   15     -3.04      0.00
    3   10   16     -0.63      0.00
    3   10   17      0.77      0.00
    3   10   18     -1.30      0.00
    3   10   19      1.74      0.00
   -3  -11   14     -1.05      0.00
   -3  -11   13      1.55      0.00
   -3  -11   12     -1.69      0.00
   -3  -11   11      1.21      0.00
   -3  -11   10      1.66      0.00
   -3  -11    9     -3.52      0.00
   -3  -11    8      0.11      0.00
   -3  -11    7      1.36      0.00
   -3  -11    6     -0.60      0.00
   -3  -11    5      1.88      0.00
   -3  -11    4      1.44      0.00
   -3  -11    3     -5.58      0.00
   -3  -11    2      0.25      0.00
   -3  -11    1     -0.94      0.00
    3   11    0      4.55      0.00
    3   11    1      0.53      0.00
    3   11    2     -0.06      0.00
    3   11    3     -5.87      0.00
    3   11    4      3.92      0.00
    3   11    5     -5.41      0.00
    3   11    6      5.31      0.00
    3   11    7      3.81      0.00
    3   11    8     -7.00      0.00
    3   11    9      3.13      0.00
    3   11   10     -2.93      0.00
    3   11   11      2.15      0.00
    3   11   12     -0.09      0.00
    3   11   13      3.51      0.00
    3   11   14     -3.71      0.00
    3   11   15     -0.74      0.00
    3   11   16      2.72      0.00
    3   11   17     -3.15      0.00
    3   11   18      3.68      0.00
    3   11   19     -1.23      0.00
   -3  -12   12      0.06      0.00
   -3  -12   11      1.60      0.00
   -3  -12   10     -4.11      0.00
   -3  -12    9      3.36      0.00
   -3  -12    8     -2.06      0.00
   -3  -12    7      0.93      0.00
   -3  -12    6      2.05      0.00
   -3  -12    5     -0.92      0.00
   -3  -12    4     -4.18      0.00
   -3  -12    3      0.96      0.00
   -3  -12    2      3.05      0.00
   -3  -12    1     -3.28      0.00
    3   12    0      7.24      0.00
    3   12    1     -6.58      0.00
    3   12    2     -0.24      0.00
    3   12    3     -1.68      0.00
    3   12    4      1.84      0.00
    3   12    5      2.48      0.00
    3   12    6     -0.44      0.00
    3   12    7     -1.43      0.00
    3   12    8     -1.65      0.00
    3   12    9      1.30      0.00
    3   12   10     -0.02      0.00
    3   12   11      2.49      0.00
    3   12   12     -1.23      0.00
    3   12   13     -1.31      0.00
    3   12   14     -0.19      0.00
    3   12   15      1.60      0.00
    3   12   16     -1.85      0.00
    3   12   17      3.56      0.00
    3   12   18     -2.11      0.00
   -3  -13   11     -1.50      0.00
   -3  -13   10      0.99      0.00
   -3  -13    9     -0.52      0.00
   -3  -13    8      0.74      0.00
   -3  -13    7      1.28      0.00
   -3  -13    6     -2.58      0.00
   -3  -13    5     -0.30      0.00
   -3  -13    4      0.31      0.00
   -3  -13    3      0.70      0.00
   -3  -13    2     -0.05      0.00
   -3  -13    1      4.16      0.00
    3   13    0     -6.88      0.00
    3   13    1      0.68      0.00
    3   13    2      0.73      0.00
    3   13    3      0.73      0.00
    3   13    4      0.64      0.00
    3   13    5      0.82      0.00
    3   13    6     -1.01      0.00
    3   13    7     -3.94      0.00
    3   13    8      5.29      0.00
    3   13    9     -2.61      0.00
    3   13   10      2.17      0.00
    3   13   11     -0.61      0.00
    3   13   12     -1.66      0.00
    3   13   13      0.26      0.00
    3   13   14      0.09      0.00
    3   13   15      1.70      0.00
    3   13   16      0.30      0.00
    3   13   17     -0.68      0.00
   -3  -14   10      1.31      0.00
   -3  -14    9     -1.00      0.00
   -3  -14    8      1.20      0.00
   -3  -14    7     -0.66      0.00
   -3  -14    6     -1.63      0.00
   -3  -14    5      1.14      0.00
   -3  -14    4     -0.53      0.00
   -3  -14    3      3.10      0.00
   -3  -14    2     -2.88      0.00
   -3  -14    1      0.48      0.00
    3   14    0     -3.15      0.00
    3   14    1      3.55      0.00
    3   14    2     -2.44      0.00
    3   14    3      3.93      0.00
    3   14    4     -0.47      0.00
    3   14    5     -4.27      0.00
    3   14    6      1.43      0.00
    3   14    7      1.87      0.00
    3   14    8     -1.19      0.00
    3   14    9      0.89      0.00
    3   14   10      0.82      0.00
    3   14   11     -4.35      0.00
    3   14   12      3.09      0.00
    3   14   13     -0.04      0.00
    3   14   14      1.01      0.00
    3   14   15     -0.66      0.00
    3   14   16      0.62      0.00
   -3  -15    8     -0.56      0.00
   -3  -15    7     -2.25      0.00
   -3  -15    6      3.25      0.00
   -3  -15    5     -2.33      0.00
   -3  -15    4      2.46      0.00
   -3  -15    3     -2.25      0.00
   -3  -15    2      1.62      0.00
   -3  -15    1     -4.42      0.00
    3   15    0      5.03      0.00
    3   15    1     -2.39      0.00
    3   15    2      2.74      0.00
    3   15    3     -1.96      0.00
    3   15    4     -1.91      0.00
    3   15    5      3.19      0.00
    3   15    6     -2.71      0.00
    3   15    7      2.11      0.00
    3   15    8     -0.75      0.00
    3   15    9      0.89      0.00
    3   15   10     -3.33      0.00
    3   15   11      3.66      0.00
    3   15   12     -1.35      0.00
    3   15   13      0.19      0.00
    3   15   14      1.52      0.00
    3   15   15     -1.34      0.00
   -3  -16    6     -1.65      0.00
   -3  -16    5      1.91      0.00
   -3  -16    4     -0.13      0.00
   -3  -16    3     -1.94      0.00
   -3  -16    2      0.49      0.00
   -3  -16    1      1.57      0.00
    3   16    0     -1.45      0.00
    3   16    1      1.37      0.00
    3   16    2     -0.22      0.00
    3   16    3     -1.02      0.00
    3   16    4     -0.28      0.00
    3   16    5      0.75      0.00
    3   16    6      0.58      0.00
    3   16    7     -0.16      0.00
    3   16    8     -0.76      0.00
    3   16    9     -0.45      0.00
    3   16   10      1.47      0.00
    3   16   11     -0.64      0.00
    3   16   12      0.51      0.00
    3   16   13      0.14      0.00
   -3  -17    3      2.20      0.00
   -3  -17    2     -1.99      0.00
   -3  -17    1      0.95      0.00
    3   17    0      0.98      0.00
    3   17    1     -1.01      0.00
    3   17    2     -0.50      0.00
    3   17    3      0.09      0.00
    3   17    4      2.62      0.00
    3   17    5     -3.63      0.00
    3   17    6      2.74      0.00
    3   17    7     -1.96      0.00
    3   17    8      1.61      0.00
    3   17    9     -0.87      0.00
    3   17   10      0.26      0.00
    3   17   11     -0.14      0.00
    3   18    1      0.82      0.00
    3   18    2     -0.12      0.00
    3   18    3      0.11      0.00
    3   18    4     -1.10      0.00
    3   18    5      2.42      0.00
    3   18    6     -1.98      0.00
    3   18    7      0.48      0.00
   -4   16    9     -0.35      0.00
   -4   16    8      1.51      0.00
   -4   16    7     -0.47      0.00
   -4   16    6      1.61      0.00
   -4   16    5     -0.97      0.00
   -4   16    4     -1.24      0.00
   -4   16    3      1.78      0.00
   -4   16    2     -1.39      0.00
   -4   16    1      2.42      0.00
   -4   16    0     -0.63      0.00
    4  -16    1     -1.25      0.00
    4  -16    2     -0.26      0.00
   -4   15   12     -0.34      0.00
   -4   15   11     -2.06      0.00
   -4   15   10      1.99      0.00
   -4   15    9     -0.42      0.00
   -4   15    8      0.87      0.00
   -4   15    7      1.25      0.00
   -4   15    6     -1.69      0.00
   -4   15    5     -1.05      0.00
   -4   15    4      1.76      0.00
   -4   15    3     -0.16      0.00
   -4   15    2      1.17      0.00
   -4   15    1      0.38      0.00
   -4   15    0     -3.34      0.00
    4  -15    1      2.68      0.00
    4  -15    2     -1.75      0.00
    4  -15    3      1.63      0.00
    4  -15    4      0.34      0.00
    4  -15    5     -1.65      0.00
   -4   14   14     -1.05      0.00
   -4   14   13     -0.55      0.00
   -4   14   12     -1.71      0.00
   -4   14   11      3.17      0.00
   -4   14   10     -1.50      0.00
   -4   14    9      2.03      0.00
   -4   14    8     -0.43      0.00
   -4   14    7     -2.27      0.00
   -4   14    6      0.63      0.00
   -4   14    5      0.93      0.00
   -4   14    4      1.31      0.00
   -4   14    3     -0.96      0.00
   -4   14    2      2.25      0.00
   -4   14    1     -5.01      0.00
   -4   14    0      3.90      0.00
    4  -14    1     -1.93      0.00
    4  -14    2      3.07      0.00
    4  -14    3     -2.04      0.00
    4  -14    4     -0.27      0.00
    4  -14    5     -1.49      0.00
    4  -14    6      0.34      0.00
    4  -14    7      1.08      0.00
   -4   13   15     -0.73      0.00
   -4   13   14     -0.99      0.00
   -4   13   13      0.12      0.00
   -4   13   12      1.30      0.00
   -4   13   11      0.14      0.00
   -4   13   10      0.78      0.00
   -4   13    9     -1.00      0.00
   -4   13    8     -2.62      0.00
   -4   13    7      1.70      0.00
   -4   13    6      1.04      0.00
   -4   13    5      1.63      0.00
   -4   13    4     -1.10      0.00
   -4   13    3      0.99      0.00
   -4   13    2     -4.03      0.00
   -4   13    1      2.85      0.00
   -4   13    0      2.03      0.00
    4  -13    1     -1.57      0.00
    4  -13    2      0.90      0.00
    4  -13    3     -2.02      0.00
    4  -13    4     -2.29      0.00
    4  -13    5      2.43      0.00
    4  -13    6      1.23      0.00
    4  -13    7     -0.72      0.00
    4  -13    8      0.76      0.00
    4  -13    9     -2.06      0.00
   -4   12   16      0.74      0.00
   -4   12   15     -1.93      0.00
   -4   12   14      1.41      0.00
   -4   12   13      0.18      0.00
   -4   12   12      1.48      0.00
   -4   12   11     -1.95      0.00
   -4   12   10     -0.28      0.00
   -4   12    9     -2.05      0.00
   -4   12    8      1.13      0.00
   -4   12    7      3.32      0.00
   -4   12    6     -0.64      0.00
   -4   12    5      0.73      0.00
   -4   12    4     -2.56      0.00
   -4   12    3     -0.86      0.00
   -4   12    2      1.31      0.00
   -4   12    1      5.03      0.00
   -4   12    0     -5.78      0.00
    4  -12    1      4.96      0.00
    4  -12    2     -6.75      0.00
    4  -12    3      0.54      0.00
    4  -12    4      4.05      0.00
    4  -12    5     -1.40      0.00
    4  -12    6      1.60      0.00
    4  -12    7     -1.41      0.00
    4  -12    8     -1.21      0.00
    4  -12    9     -1.93      0.00
    4  -12   10      3.84      0.00
   -4   11   17      0.65      0.00
   -4   11   16     -2.12      0.00
   -4   11   15      2.80      0.00
   -4   11   14      0.21      0.00
   -4   11   13     -0.84      0.00
   -4   11   12     -1.43      0.00
   -4   11   11     -0.14      0.00
   -4   11   10     -1.86      0.00
   -4   11    9      1.09      0.00
   -4   11    8      5.67      0.00
   -4   11    7     -4.06      0.00
   -4   11    6      2.07      0.00
   -4   11    5     -3.75      0.00
   -4   11    4     -0.32      0.00
   -4   11    3      3.00      0.00
   -4   11    2      3.17      0.00
   -4   11    1     -3.46      0.00
   -4   11    0      1.85      0.00
    4  -11    1     -6.35      0.00
    4  -11    2      2.41      0.00
    4  -11    3      3.55      0.00
    4  -11    4     -0.72      0.00
    4  -11    5      1.36      0.00
    4  -11    6     -3.58      0.00
    4  -11    7     -0.44      0.00
    4  -11    8     -1.20      0.00
    4  -11    9      4.80      0.00
    4  -11   10     -2.70      0.00
    4  -11   11      1.80      0.00
    4  -11   12     -1.77      0.00
   -4   10   18     -0.22      0.00
   -4   10   17      0.18      0.00
   -4   10   16      1.53      0.00
   -4   10   15      0.92      0.00
   -4   10   14     -2.89      0.00
   -4   10   13      0.69      0.00
   -4   10   12     -2.55      0.00
   -4   10   11     -0.60      0.00
   -4   10   10      3.70      0.00
   -4   10    9      2.63      0.00
   -4   10    8     -3.68      0.00
   -4   10    7      1.07      0.00
   -4   10    6     -2.03      0.00
   -4   10    5     -3.30      0.00
   -4   10    4      9.09      0.00
   -4   10    3     -2.41      0.00
   -4   10    2      0.59      0.00
   -4   10    1     -4.24      0.00
   -4   10    0     -0.72      0.00
    4  -10    1      0.24      0.00
    4  -10    2      4.26      0.00
    4  -10    3      1.95      0.00
    4  -10    4     -5.02      0.00
    4  -10    5      1.47      0.00
    4  -10    6     -4.33      0.00
    4  -10    7      2.87      0.00
    4  -10    8      2.82      0.00
    4  -10    9     -1.21      0.00
    4  -10   10      0.05      0.00
    4  -10   11     -1.52      0.00
    4  -10   12     -1.19      0.00
    4  -10   13      1.46      0.00
   -4    9   18      0.37      0.00
   -4    9   17     -0.63      0.00
   -4    9   16      2.77      0.00
   -4    9   15     -3.73      0.00
   -4    9   14      0.56      0.00
   -4    9   13     -2.62      0.00
   -4    9   12      0.44      0.00
   -4    9   11      4.58      0.00
   -4    9   10     -1.02      0.00
   -4    9    9      0.25      0.00
   -4    9    8     -3.80      0.00
   -4    9    7      0.86      0.00
   -4    9    6     -2.99      0.00
   -4    9    5     11.49      0.00
   -4    9    4     -6.37      0.00
   -4    9    3      0.67      0.00
   -4    9    2     -3.38      0.00
   -4    9    1     -1.18      0.00
   -4    9    0      0.93      0.00
    4   -9    1      6.31      0.00
    4   -9    2      0.97      0.00
    4   -9    3     -9.20      0.00
    4   -9    4      6.65      0.00
    4   -9    5    -10.01      0.00
    4   -9    6      9.35      0.00
    4   -9    7      0.68      0.00
    4   -9    8     -1.46      0.00
    4   -9    9     -1.07      0.00
    4   -9   10     -2.28      0.00
    4   -9   11      0.90      0.00
    4   -9   12      0.96      0.00
    4   -9   13      2.49      0.00
    4   -9   14     -2.64      0.00
   -4    8   19     -1.49      0.00
   -4    8   18      1.42      0.00
   -4    8   17      1.19      0.00
   -4    8   16     -2.91      0.00
   -4    8   15     -0.82      0.00
   -4    8   14      0.43      0.00
   -4    8   13     -1.46      0.00
   -4    8   12      5.16      0.00
   -4    8   11     -1.16      0.00
   -4    8   10     -2.03      0.00
   -4    8    9     -2.89      0.00
   -4    8    8      1.77      0.00
   -4    8    7     -0.17      0.00
   -4    8    6      6.61      0.00
   -4    8    5     -1.95      0.00
   -4    8    4     -5.37      0.00
   -4    8    3      1.35      0.00
   -4    8    2     -5.83      0.00
   -4    8    1      8.18      0.00
   -4    8    0      4.68      0.00
    4   -8    1     -4.38      0.00
    4   -8    2     -4.33      0.00
    4   -8    3      1.86      0.00
    4   -8    4     -6.20      0.00
    4   -8    5      9.55      0.00
    4   -8    6      1.38      0.00
    4   -8    7     -4.45      0.00
    4   -8    8      0.70      0.00
    4   -8    9     -3.99      0.00
    4   -8   10      2.63      0.00
    4   -8   11      0.81      0.00
    4   -8   12      3.52      0.00
    4   -8   13     -3.96      0.00
    4   -8   14      0.80      0.00
    4   -8   15     -1.60      0.00
   -4    7   19      1.71      0.00
   -4    7   18     -2.44      0.00
   -4    7   17      0.11      0.00
   -4    7   16     -1.88      0.00
   -4    7   15      2.70      0.00
   -4    7   14     -3.33      0.00
   -4    7   13      6.06      0.00
   -4    7   12     -2.16      0.00
   -4    7   11     -5.32      0.00
   -4    7   10      4.05      0.00
   -4    7    9     -4.86      0.00
   -4    7    8      6.08      0.00
   -4    7    7      2.64      0.00
   -4    7    6      0.47      0.00
   -4    7    5    -11.61      0.00
   -4    7    4      6.03      0.00
   -4    7    3     -4.67      0.00
   -4    7    2      8.05      0.00
   -4    7    1      5.53      0.00
   -4    7    0     -9.69      0.00
    4   -7    1      1.83      0.00
    4   -7    2     -7.98      0.00
    4   -7    3      5.76      0.00
    4   -7    4      3.15      0.00
    4   -7    5      5.44      0.00
    4   -7    6     -8.60      0.00
    4   -7    7      1.42      0.00
    4   -7    8     -3.69      0.00
    4   -7    9      2.70      0.00
    4   -7   10      4.06      0.00
    4   -7   11     -0.06      0.00
    4   -7   12     -3.31      0.00
    4   -7   13     -0.38      0.00
    4   -7   14      0.15      0.00
    4   -7   15     -0.01      0.00
    4   -7   16      2.31      0.00
   -4    6   20     -1.13      0.00
   -4    6   19     -0.20      0.00
   -4    6   18     -0.80      0.00
   -4    6   17     -0.94      0.00
   -4    6   16      2.02      0.00
   -4    6   15     -1.82      0.00
   -4    6   14      4.86      0.00
   -4    6   13     -4.07      0.00
   -4    6   12     -3.37      0.00
   -4    6   11      3.39      0.00
   -4    6   10     -4.97      0.00
   -4    6    9      9.47      0.00
   -4    6    8     -0.29      0.00
   -4    6    7     -3.55      0.00
   -4    6    6     -6.57      0.00
   -4    6    5      3.97      0.00
   -4    6    4     -1.02      0.00
   -4    6    3      4.23      0.00
   -4    6    2     11.13      0.00
   -4    6    1    -18.36      0.00
   -4    6    0      3.51      0.00
    4   -6    1     -5.39      0.00
    4   -6    2      7.21      0.00
    4   -6    3      2.74      0.00
    4   -6    4      4.79      0.00
    4   -6    5     -9.38      0.00
    4   -6    6     -0.78      0.00
    4   -6    7      0.31      0.00
    4   -6    8      0.58      0.00
    4   -6    9      7.02      0.00
    4   -6   10     -3.87      0.00
    4   -6   11     -1.22      0.00
    4   -6   12     -1.79      0.00
    4   -6   13      0.44      0.00
    4   -6   14      0.92      0.00
    4   -6   15      3.01      0.00
    4   -6   16     -1.41      0.00
    4   -6   17     -1.61      0.00
   -4    5   20      1.53      0.00
   -4    5   19     -4.23      0.00
   -4    5   18      2.95      0.00
   -4    5   17     -0.86      0.00
   -4    5   16      0.85      0.00
   -4    5   15      2.40      0.00
   -4    5   14     -4.73      0.00
   -4    5   13     -0.35      0.00
   -4    5   12     -1.72      0.00
   -4    5   11      4.75      0.00
   -4    5   10     -0.52      0.00
   -4    5    9      5.08      0.00
   -4    5    8     -8.65      0.00
   -4    5    7     -1.06      0.00
   -4    5    6      0.21      0.00
   -4    5    5      2.59      0.00
   -4    5    4      6.83      0.00
   -4    5    3      3.05      0.00
   -4    5    2    -16.77      0.00
   -4    5    1      1.85      0.00
   -4    5    0      3.66      0.00
    4   -5    1     -4.00      0.00
    4   -5    2     17.49      0.00
    4   -5    3     -7.67      0.00
    4   -5    4     -6.67      0.00
    4   -5    5     -2.46      0.00
    4   -5    6      3.80      0.00
    4   -5    7      0.44      0.00
    4   -5    8      6.81      0.00
    4   -5    9     -3.65      0.00
    4   -5   10     -4.89      0.00
    4   -5   11      1.34      0.00
    4   -5   12     -0.40      0.00
    4   -5   13      3.54      0.00
    4   -5   14      0.94      0.00
    4   -5   15     -1.97      0.00
    4   -5   16     -1.53      0.00
    4   -5   17      0.87      0.00
   -4    4   20     -2.48      0.00
   -4    4   19      2.83      0.00
   -4    4   18     -1.80      0.00
   -4    4   17      1.85      0.00
   -4    4   16      0.74      0.00
   -4    4   15     -4.71      0.00
   -4    4   14      1.12      0.00
   -4    4   13     -2.06      0.00
   -4    4   12      7.52      0.00
   -4    4   11     -7.42      0.00
   -4    4   10     12.73      0.00
   -4    4    9    -16.90      0.00
   -4    4    8      2.90      0.00
   -4    4    7      4.72      0.00
   -4    4    6     -1.66      0.00
   -4    4    5     11.58      0.00
   -4    4    4    -10.32      0.00
   -4    4    3     -3.31      0.00
   -4    4    2     -8.65      0.00
   -4    4    1     12.86      0.00
   -4    4    0     -5.75      0.00
    4   -4    1     21.56      0.00
    4   -4    2    -18.69      0.00
    4   -4    3     -3.23      0.00
    4   -4    4      0.80      0.00
    4   -4    5      0.43      0.00
    4   -4    6      6.11      0.00
    4   -4    7      2.96      0.00
    4   -4    8     -2.53      0.00
    4   -4    9     -9.46      0.00
    4   -4   10      7.64      0.00
    4   -4   11     -3.97      0.00
    4   -4   12      5.89      0.00
    4   -4   13     -0.15      0.00
    4   -4   14     -2.73      0.00
    4   -4   15     -0.89      0.00
    4   -4   16     -0.27      0.00
    4   -4   17      0.74      0.00
    4   -4   18      1.33      0.00
   -4    3   20      0.73      0.00
   -4    3   19      0.20      0.00
   -4    3   18     -0.11      0.00
   -4    3   17      0.33      0.00
   -4    3   16     -2.95      0.00
   -4    3   15     -0.15      0.00
   -4    3   14      1.03      0.00
   -4    3   13      2.53      0.00
   -4    3   12     -0.71      0.00
   -4    3   11      4.99      0.00
   -4    3   10    -15.79      0.00
   -4    3    9      8.00      0.00
   -4    3    8      4.03      0.00
   -4    3    7     -4.15      0.00
   -4    3    6     13.28      0.00
   -4    3    5    -13.67      0.00
   -4    3    4     -4.65      0.00
   -4    3    3     -5.36      0.00
   -4    3    2     16.66      0.00
   -4    3    1     -2.93      0.00
   -4    3    0      8.40      0.00
    4   -3    1     -8.66      0.00
    4   -3    2    -12.31      0.00
    4   -3    3      7.63      0.00
    4   -3    4     -1.22      0.00
    4   -3    5     11.17      0.00
    4   -3    6     -1.01      0.00
    4   -3    7     -5.69      0.00
    4   -3    8     -6.70      0.00
    4   -3    9      6.98      0.00
    4   -3   10     -2.72      0.00
    4   -3   11      6.52      0.00
    4   -3   12     -0.74      0.00
    4   -3   13     -5.49      0.00
    4   -3   14      1.14      0.00
    4   -3   15     -0.36      0.00
    4   -3   16      2.15      0.00
    4   -3   17      0.58      0.00
    4   -3   18     -0.14      0.00
   -4    2   20     -0.66      0.00
   -4    2   19      0.13      0.00
   -4    2   18     -0.29      0.00
   -4    2   17     -1.85      0.00
   -4    2   16     -1.90      0.00
   -4    2   15      5.45      0.00
   -4    2   14     -2.06      0.00
   -4    2   13      3.77      0.00
   -4    2   12     -5.12      0.00
   -4    2   11     -4.23      0.00
   -4    2   10      4.21      0.00
   -4    2    9      0.82      0.00
   -4    2    8      4.85      0.00
   -4    2    7      1.29      0.00
   -4    2    6     -6.63      0.00
   -4    2    5    -14.91      0.00
   -4    2    4     15.75      0.00
   -4    2    3      0.72      0.00
   -4    2    2      3.97      0.00
   -4    2    1      3.28      0.00
   -4    2    0     -7.15      0.00
    4   -2    1    -19.67      0.00
    4   -2    2     18.49      0.00
    4   -2    3      1.61      0.00
    4   -2    4      2.55      0.00
    4   -2    5      5.35      0.00
    4   -2    6    -14.94      0.00
    4   -2    7      1.44      0.00
    4   -2    8      0.89      0.00
    4   -2    9      4.61      0.00
    4   -2   10      2.37      0.00
    4   -2   11     -0.81      0.00
    4   -2   12     -6.16      0.00
    4   -2   13      1.96      0.00
    4   -2   14      0.65      0.00
    4   -2   15      1.64      0.00
    4   -2   16      1.32      0.00
    4   -2   17     -1.51      0.00
    4   -2   18     -1.48      0.00
    4   -2   19      0.12      0.00
   -4    1   20      1.73      0.00
   -4    1   19     -2.50      0.00
   -4    1   18     -0.53      0.00
   -4    1   17     -0.39      0.00
   -4    1   16      4.51      0.00
   -4    1   15     -2.81      0.00
   -4    1   14      2.39      0.00
   -4    1   13     -3.32      0.00
   -4    1   12     -3.41      0.00
   -4    1   11      1.82      0.00
   -4    1   10      4.51      0.00
   -4    1    9      5.31      0.00
   -4    1    8     -8.91      0.00
   -4    1    7      3.17      0.00
   -4    1    6    -18.72      0.00
   -4    1    5     22.49      0.00
   -4    1    4     -6.95      0.00
   -4    1    3     10.74      0.00
   -4    1    2     -1.21      0.00
   -4    1    1    -20.37      0.00
   -4    1    0      0.14      0.00
    4   -1    1     13.67      0.00
    4   -1    2      3.65      0.00
    4   -1    3     -3.64      0.00
    4   -1    4     12.38      0.00
    4   -1    5    -27.14      0.00
    4   -1    6      9.81      0.00
    4   -1    7      1.22      0.00
    4   -1    8      5.25      0.00
    4   -1    9      0.76      0.00
    4   -1   10     -1.93      0.00
    4   -1   11     -4.88      0.00
    4   -1   12      0.15      0.00
    4   -1   13      4.20      0.00
    4   -1   14     -0.55      0.00
    4   -1   15      2.67      0.00
    4   -1   16     -3.60      0.00
    4   -1   17     -1.08      0.00
    4   -1   18      0.58      0.00
    4   -1   19      1.02      0.00
   -4    0   20     -1.56      0.00
   -4    0   19      0.15      0.00
   -4    0   18      0.47      0.00
   -4    0   17      1.34      0.00
   -4    0   16      0.66      0.00
   -4    0   15     -1.69      0.00
   -4    0   14      0.11      0.00
   -4    0   13     -7.23      0.00
   -4    0   12      8.62      0.00
   -4    0   11      2.33      0.00
   -4    0   10     -2.14      0.00
   -4    0    9     -0.97      0.00
   -4    0    8     -3.26      0.00
   -4    0    7     -9.86      0.00
   -4    0    6     15.18      0.00
   -4    0    5      4.65      0.00
   -4    0    4     -4.80      0.00
   -4    0    3      1.02      0.00
   -4    0    2    -18.96      0.00
   -4    0    1      9.49      0.00
    4    0    0      5.72      0.00
    4    0    1      6.66      0.00
    4    0    2      0.88      0.00
    4    0    3     -2.49      0.00
    4    0    4    -19.64      0.00
    4    0    5     10.46      0.00
    4    0    6      6.38      0.00
    4    0    7     -1.97      0.00
    4    0    8      6.84      0.00
    4    0    9     -7.81      0.00
    4    0   10     -3.14      0.00
    4    0   11      0.50      0.00
    4    0   12      5.94      0.00
    4    0   13     -2.06      0.00
    4    0   14      2.96      0.00
    4    0   15     -4.55      0.00
    4    0   16     -1.41      0.00
    4    0   17      2.28      0.00
    4    0   18      0.49      0.00
    4    0   19      0.71      0.00
    4    0   20      0.16      0.00
   -4   -1   19      0.97      0.00
   -4   -1   18      1.26      0.00
   -4   -1   17     -0.22      0.00
   -4   -1   16     -2.48      0.00
   -4   -1   15      0.66      0.00
   -4   -1   14     -4.61      0.00
   -4   -1   13      8.53      0.00
   -4   -1   12     -1.21      0.00
   -4   -1   11     -1.96      0.00
   -4   -1   10      3.52      0.00
   -4   -1    9    -13.58      0.00
   -4   -1    8      6.35      0.00
   -4   -1    7      5.34      0.00
   -4   -1    6      9.00      0.00
   -4   -1    5    -16.61      0.00
   -4   -1    4     11.20      0.00
   -4   -1    3    -19.32      0.00
   -4   -1    2      2.36      0.00
   -4   -1    1     24.07      0.00
    4    1    0     -9.85      0.00
    4    1    1      8.34      0.00
    4    1    2    -19.87      0.00
    4    1    3      2.76      0.00
    4    1    4     -2.54      0.00
    4    1    5     15.21      0.00
    4    1    6     -4.86      0.00
    4    1    7      5.27      0.00
    4    1    8    -10.21      0.00
    4    1    9     -2.47      0.00
    4    1   10      5.30      0.00
    4    1   11      1.69      0.00
    4    1   12      0.43      0.00
    4    1   13      0.17      0.00
    4    1   14     -3.15      0.00
    4    1   15     -1.86      0.00
    4    1   16      3.93      0.00
    4    1   17     -0.98      0.00
    4    1   18      1.80      0.00
    4    1   19     -0.27      0.00
    4    1   20     -1.35      0.00
   -4   -2   19      1.01      0.00
   -4   -2   18     -2.79      0.00
   -4   -2   17      1.00      0.00
   -4   -2   16     -2.14      0.00
   -4   -2   15      0.12      0.00
   -4   -2   14      4.09      0.00
   -4   -2   13      0.84      0.00
   -4   -2   12     -2.49      0.00
   -4   -2   11     -1.01      0.00
   -4   -2   10     -6.58      0.00
   -4   -2    9      6.47      0.00
   -4   -2    8      4.22      0.00
   -4   -2    7      2.86      0.00
   -4   -2    6     -9.93      0.00
   -4   -2    5      4.57      0.00
   -4   -2    4    -16.87      0.00
   -4   -2    3     11.27      0.00
   -4   -2    2     23.86      0.00
   -4   -2    1    -25.82      0.00
    4    2    0     17.54      0.00
    4    2    1    -22.35      0.00
    4    2    2      5.81      0.00
    4    2    3     -3.31      0.00
    4    2    4     20.88      0.00
    4    2    5     -9.15      0.00
    4    2    6     -2.01      0.00
    4    2    7     -1.50      0.00
    4    2    8     -8.50      0.00
    4    2    9     11.40      0.00
    4    2   10     -2.38      0.00
    4    2   11      3.55      0.00
    4    2   12     -3.38      0.00
    4    2   13     -2.12      0.00
    4    2   14     -0.99      0.00
    4    2   15      4.17      0.00
    4    2   16     -0.78      0.00
    4    2   17      1.22      0.00
    4    2   18     -0.47      0.00
    4    2   19     -1.81      0.00
    4    2   20      0.51      0.00
   -4   -3   19     -1.62      0.00
   -4   -3   18      1.05      0.00
   -4   -3   17     -2.55      0.00
   -4   -3   16      2.15      0.00
   -4   -3   15      2.34      0.00
   -4   -3   14      0.11      0.00
   -4   -3   13     -2.78      0.00
   -4   -3   12     -1.98      0.00
   -4   -3   11      1.07      0.00
   -4   -3   10     -3.37      0.00
   -4   -3    9     13.84      0.00
   -4   -3    8     -8.42      0.00
   -4   -3    7     -1.75      0.00
   -4   -3    6     -4.03      0.00
   -4   -3    5     -5.78      0.00
   -4   -3    4     15.98      0.00
   -4   -3    3      2.00      0.00
   -4   -3    2     -4.50      0.00
   -4   -3    1     -0.94      0.00
    4    3    0    -10.46      0.00
    4    3    1     -2.50      0.00
    4    3    2     14.24      0.00
    4    3    3      8.82      0.00
    4    3    4    -13.16      0.00
    4    3    5      2.91      0.00
    4    3    6     -4.22      0.00
    4    3    7     -8.15      0.00
    4    3    8     15.78      0.00
    4    3    9     -2.77      0.00
    4    3   10     -0.96      0.00
    4    3   11     -1.47      0.00
    4    3   12     -3.45      0.00
    4    3   13      2.51      0.00
    4    3   14      2.15      0.00
    4    3   15      0.22      0.00
    4    3   16     -0.63      0.00
    4    3   17      0.15      0.00
    4    3   18     -1.96      0.00
    4    3   19      1.37      0.00
    4    3   20      0.14      0.00
   -4   -4   18      0.45      0.00
   -4   -4   17      0.21      0.00
   -4   -4   16      2.91      0.00
   -4   -4   15     -2.17      0.00
   -4   -4   14     -0.90      0.00
   -4   -4   13     -1.96      0.00
   -4   -4   12      1.03      0.00
   -4   -4   11     -1.47      0.00
   -4   -4   10     12.97      0.00
   -4   -4    9    -13.94      0.00
   -4   -4    8      2.22      0.00
   -4   -4    7     -2.58      0.00
   -4   -4    6     -3.31      0.00
   -4   -4    5     13.95      0.00
   -4   -4    4     -3.56      0.00
   -4   -4    3      6.47      0.00
   -4   -4    2    -24.10      0.00
   -4   -4    1     14.94      0.00
    4    4    0    -11.97      0.00
    4    4    1     20.87      0.00
    4    4    2     -1.30      0.00
    4    4    3    -11.92      0.00
    4    4    4      8.73      0.00
    4    4    5    -17.83      0.00
    4    4    6     11.08      0.00
    4    4    7      5.58      0.00
    4    4    8      0.11      0.00
    4    4    9     -6.02      0.00
    4    4   10      3.61      0.00
    4    4   11     -6.93      0.00
    4    4   12      4.86      0.00
    4    4   13      1.88      0.00
    4    4   14      0.03      0.00
    4    4   15     -0.98      0.00
    4    4   16     -1.11      0.00
    4    4   17     -0.46      0.00
    4    4   18      1.03      0.00
    4    4   19      1.30      0.00
    4    4   20     -0.94      0.00
   -4   -5   18     -1.30      0.00
   -4   -5   17      2.62      0.00
   -4   -5   16     -2.31      0.00
   -4   -5   15     -0.65      0.00
   -4   -5   14     -0.25      0.00
   -4   -5   13     -0.63      0.00
   -4   -5   12      3.49      0.00
   -4   -5   11      2.35      0.00
   -4   -5   10     -5.93      0.00
   -4   -5    9     -0.53      0.00
   -4   -5    8     -0.05      0.00
   -4   -5    7     -3.42      0.00
   -4   -5    6     12.90      0.00
   -4   -5    5     -1.91      0.00
   -4   -5    4     -5.93      0.00
   -4   -5    3    -10.20      0.00
   -4   -5    2     13.38      0.00
   -4   -5    1    -12.89      0.00
    4    5    0     20.49      0.00
    4    5    1     -1.34      0.00
    4    5    2    -16.19      0.00
    4    5    3      9.04      0.00
    4    5    4    -15.71      0.00
    4    5    5     19.20      0.00
    4    5    6     -5.35      0.00
    4    5    7      6.04      0.00
    4    5    8     -9.36      0.00
    4    5    9      2.39      0.00
    4    5   10     -4.36      0.00
    4    5   11      4.57      0.00
    4    5   12      4.01      0.00
    4    5   13     -4.15      0.00
    4    5   14      0.98      0.00
    4    5   15     -2.36      0.00
    4    5   16      1.59      0.00
    4    5   17     -0.09      0.00
    4    5   18      2.58      0.00
    4    5   19     -2.37      0.00
    4    5   20      1.38      0.00
   -4   -6   17     -1.04      0.00
   -4   -6   16     -1.17      0.00
   -4   -6   15      1.66      0.00
   -4   -6   14     -1.89      0.00
   -4   -6   13      4.30      0.00
   -4   -6   12     -1.44      0.00
   -4   -6   11     -1.11      0.00
   -4   -6   10     -4.38      0.00
   -4   -6    9      2.43      0.00
   -4   -6    8      0.43      0.00
   -4   -6    7      6.12      0.00
   -4   -6    6     -0.52      0.00
   -4   -6    5    -11.99      0.00
   -4   -6    4      6.50      0.00
   -4   -6    3     -4.70      0.00
   -4   -6    2      4.37      0.00
   -4   -6    1     11.61      0.00
    4    6    0     -6.51      0.00
    4    6    1    -12.78      0.00
    4    6    2      7.87      0.00
    4    6    3     -5.56      0.00
    4    6    4      7.09      0.00
    4    6    5      4.70      0.00
    4    6    6     -2.18      0.00
    4    6    7     -8.12      0.00
    4    6    8      1.96      0.00
    4    6    9      0.30      0.00
    4    6   10      1.29      0.00
    4    6   11      5.20      0.00
    4    6   12     -5.95      0.00
    4    6   13      1.31      0.00
    4    6   14     -1.25      0.00
    4    6   15      0.66      0.00
    4    6   16      1.76      0.00
    4    6   17      0.74      0.00
    4    6   18     -1.64      0.00
    4    6   19      0.79      0.00
    4    6   20     -0.78      0.00
   -4   -7   17     -0.38      0.00
   -4   -7   16      1.31      0.00
   -4   -7   15     -0.80      0.00
   -4   -7   14      1.76      0.00
   -4   -7   13     -0.14      0.00
   -4   -7   12     -3.39      0.00
   -4   -7   11     -0.36      0.00
   -4   -7   10      1.57      0.00
   -4   -7    9      1.40      0.00
   -4   -7    8      0.60      0.00
   -4   -7    7      2.54      0.00
   -4   -7    6    -11.00      0.00
   -4   -7    5      5.53      0.00
   -4   -7    4     -2.80      0.00
   -4   -7    3      8.11      0.00
   -4   -7    2      2.72      0.00
   -4   -7    1     -8.14      0.00
    4    7    0     -3.66      0.00
    4    7    1      0.54      0.00
    4    7    2      2.20      0.00
    4    7    3      1.24      0.00
    4    7    4     11.65      0.00
    4    7    5    -15.72      0.00
    4    7    6      1.48      0.00
    4    7    7      0.90      0.00
    4    7    8     -0.81      0.00
    4    7    9      3.93      0.00
    4    7   10      2.14      0.00
    4    7   11     -4.70      0.00
    4    7   12     -1.80      0.00
    4    7   13      3.59      0.00
    4    7   14     -2.50      0.00
    4    7   15      4.49      0.00
    4    7   16     -2.20      0.00
    4    7   17      0.19      0.00
    4    7   18     -0.97      0.00
    4    7   19      0.46      0.00
    4    7   20     -0.08      0.00
   -4   -8   16      0.58      0.00
   -4   -8   15     -0.64      0.00
   -4   -8   14      1.37      0.00
   -4   -8   13     -4.44      0.00
   -4   -8   12      2.67      0.00
   -4   -8   11     -0.54      0.00
   -4   -8   10      1.04      0.00
   -4   -8    9      1.69      0.00
   -4   -8    8     -0.55      0.00
   -4   -8    7     -7.23      0.00
   -4   -8    6      3.13      0.00
   -4   -8    5      4.85      0.00
   -4   -8    4     -3.06      0.00
   -4   -8    3      7.18      0.00
   -4   -8    2     -9.81      0.00
   -4   -8    1     -2.09      0.00
    4    8    0      0.62      0.00
    4    8    1      4.48      0.00
    4    8    2      3.04      0.00
    4    8    3      1.78      0.00
    4    8    4     -9.71      0.00
    4    8    5      1.16      0.00
    4    8    6      1.07      0.00
    4    8    7     -0.59      0.00
    4    8    8      6.41      0.00
    4    8    9     -3.43      0.00
    4    8   10     -2.34      0.00
    4    8   11     -1.89      0.00
    4    8   12      4.45      0.00
    4    8   13     -3.06      0.00
    4    8   14      4.79      0.00
    4    8   15     -1.77      0.00
    4    8   16     -2.06      0.00
    4    8   17      0.44      0.00
    4    8   18      0.57      0.00
    4    8   19      0.26      0.00
    4    8   20      0.64      0.00
   -4   -9   15      0.69      0.00
   -4   -9   14     -2.55      0.00
   -4   -9   13      1.45      0.00
   -4   -9   12      0.91      0.00
   -4   -9   11     -1.01      0.00
   -4   -9   10      3.19      0.00
   -4   -9    9     -4.63      0.00
   -4   -9    8     -0.72      0.00
   -4   -9    7      1.38      0.00
   -4   -9    6      3.30      0.00
   -4   -9    5     -3.97      0.00
   -4   -9    4      7.98      0.00
   -4   -9    3    -11.64      0.00
   -4   -9    2     -0.78      0.00
   -4   -9    1      6.58      0.00
    4    9    0     -2.03      0.00
    4    9    1      6.29      0.00
    4    9    2     -5.91      0.00
    4    9    3      0.85      0.00
    4    9    4     -8.82      0.00
    4    9    5      9.73      0.00
    4    9    6     -2.78      0.00
    4    9    7      3.63      0.00
    4    9    8     -1.78      0.00
    4    9    9     -4.61      0.00
    4    9   10      1.94      0.00
    4    9   11      0.38      0.00
    4    9   12      2.22      0.00
    4    9   13     -0.06      0.00
    4    9   14      0.51      0.00
    4    9   15     -4.55      0.00
    4    9   16      4.04      0.00
    4    9   17     -1.96      0.00
    4    9   18      1.20      0.00
    4    9   19      0.81      0.00
   -4  -10   14     -0.37      0.00
   -4  -10   13      2.14      0.00
   -4  -10   12     -2.68      0.00
   -4  -10   11      3.29      0.00
   -4  -10   10     -4.00      0.00
   -4  -10    9      0.64      0.00
   -4  -10    8      0.68      0.00
   -4  -10    7      1.30      0.00
   -4  -10    6      0.22      0.00
   -4  -10    5     -0.03      0.00
   -4  -10    4     -5.41      0.00
   -4  -10    3      0.47      0.00
   -4  -10    2      5.78      0.00
   -4  -10    1     -4.21      0.00
    4   10    0      6.77      0.00
    4   10    1     -6.14      0.00
    4   10    2     -0.97      0.00
    4   10    3     -6.02      0.00
    4   10    4     12.81      0.00
    4   10    5     -8.12      0.00
    4   10    6      4.91      0.00
    4   10    7     -0.51      0.00
    4   10    8     -8.37      0.00
    4   10    9      7.27      0.00
    4   10   10     -2.78      0.00
    4   10   11      4.58      0.00
    4   10   12     -3.82      0.00
    4   10   13      2.63      0.00
    4   10   14     -4.54      0.00
    4   10   15      3.60      0.00
    4   10   16     -1.54      0.00
    4   10   17      1.46      0.00
    4   10   18      0.76      0.00
    4   10   19     -1.06      0.00
   -4  -11   13     -1.80      0.00
   -4  -11   12      1.86      0.00
   -4  -11   11     -1.78      0.00
   -4  -11   10     -1.11      0.00
   -4  -11    9      2.81      0.00
   -4  -11    8     -0.38      0.00
   -4  -11    7     -0.26      0.00
   -4  -11    6     -0.98      0.00
   -4  -11    5     -1.59      0.00
   -4  -11    4     -0.42      0.00
   -4  -11    3      2.89      0.00
   -4  -11    2      1.11      0.00
   -4  -11    1     -0.59      0.00
    4   11    0     -1.91      0.00
    4   11    1     -5.06      0.00
    4   11    2      4.08      0.00
    4   11    3      3.37      0.00
    4   11    4     -5.05      0.00
    4   11    5      6.94      0.00
    4   11    6     -6.62      0.00
    4   11    7     -2.65      0.00
    4   11    8      5.65      0.00
    4   11    9     -1.68      0.00
    4   11   10      1.55      0.00
    4   11   11     -1.08      0.00
    4   11   12      0.04      0.00
    4   11   13     -2.98      0.00
    4   11   14      3.14      0.00
    4   11   15      0.24      0.00
    4   11   16     -0.09      0.00
    4   11   17      0.50      0.00
    4   11   18     -0.97      0.00
   -4  -12   12     -0.35      0.00
   -4  -12   11     -1.03      0.00
   -4  -12   10      2.80      0.00
   -4  -12    9     -1.40      0.00
   -4  -12    8     -0.67      0.00
   -4  -12    7      2.00      0.00
   -4  -12    6     -5.26      0.00
   -4  -12    5      3.40      0.00
   -4  -12    4      0.47      0.00
   -4  -12    3      2.46      0.00
   -4  -12    2     -5.37      0.00
   -4  -12    1      3.31      0.00
    4   12    0     -6.33      0.00
    4   12    1      5.71      0.00
    4   12    2     -0.51      0.00
    4   12    3      0.30      0.00
    4   12    4      2.38      0.00
    4   12    5     -8.68      0.00
    4   12    6      5.68      0.00
    4   12    7     -2.37      0.00
    4   12    8      3.87      0.00
    4   12    9     -2.86      0.00
    4   12   10      2.00      0.00
    4   12   11     -3.37      0.00
    4   12   12      0.07      0.00
    4   12   13      3.31      0.00
    4   12   14     -1.53      0.00
    4   12   15      1.50      0.00
    4   12   16     -1.08      0.00
    4   12   17      0.03      0.00
    4   12   18     -0.56      0.00
   -4  -13   11      1.10      0.00
   -4  -13   10     -0.18      0.00
   -4  -13    9     -0.68      0.00
   -4  -13    8      1.31      0.00
   -4  -13    7     -4.74      0.00
   -4  -13    6      5.33      0.00
   -4  -13    5     -2.55      0.00
   -4  -13    4      1.77      0.00
   -4  -13    3     -2.40      0.00
   -4  -13    2      1.39      0.00
   -4  -13    1     -4.29      0.00
    4   13    0      3.98      0.00
    4   13    1      2.13      0.00
    4   13    2     -2.92      0.00
    4   13    3      1.22      0.00
    4   13    4     -4.28      0.00
    4   13    5      3.62      0.00
    4   13    6     -3.39      0.00
    4   13    7      6.09      0.00
    4   13    8     -5.03      0.00
    4   13    9      2.17      0.00
    4   13   10     -2.26      0.00
    4   13   11      0.25      0.00
    4   13   12      2.68      0.00
    4   13   13     -1.95      0.00
    4   13   14      2.89      0.00
    4   13   15     -3.29      0.00
    4   13   16      1.62      0.00
    4   13   17     -1.39      0.00
   -4  -14    9      0.35      0.00
   -4  -14    8     -1.26      0.00
   -4  -14    7      0.82      0.00
   -4  -14    6     -0.04      0.00
   -4  -14    5      0.52      0.00
   -4  -14    4     -0.57      0.00
   -4  -14    3     -1.38      0.00
   -4  -14    2     -0.16      0.00
   -4  -14    1      2.06      0.00
    4   14    0      0.84      0.00
    4   14    1     -3.10      0.00
    4   14    2      2.61      0.00
    4   14    3     -3.34      0.00
    4   14    4     -0.25      0.00
    4   14    5      2.96      0.00
    4   14    6     -0.03      0.00
    4   14    7     -2.09      0.00
    4   14    8      1.05      0.00
    4   14    9     -0.58      0.00
    4   14   10     -1.20      0.00
    4   14   11      3.20      0.00
    4   14   12     -1.39      0.00
    4   14   13      0.10      0.00
    4   14   14     -0.82      0.00
    4   14   15      1.05      0.00
    4   14   16     -1.24      0.00
   -4  -15    7      2.47      0.00
   -4  -15    6     -2.56      0.00
   -4  -15    5      1.10      0.00
   -4  -15    4     -0.39      0.00
   -4  -15    3     -0.80      0.00
   -4  -15    2      1.84      0.00
   -4  -15    1     -1.25      0.00
    4   15    0      0.66      0.00
    4   15    1     -1.11      0.00
    4   15    2     -0.75      0.00
    4   15    3      0.28      0.00
    4   15    4      2.84      0.00
    4   15    5     -3.43      0.00
    4   15    6      1.79      0.00
    4   15    7     -0.52      0.00
    4   15    8     -0.80      0.00
    4   15    9      0.22      0.00
    4   15   10      1.77      0.00
    4   15   11     -1.74      0.00
    4   15   12     -0.42      0.00
    4   15   13      1.97      0.00
    4   15   14     -1.99      0.00
   -4  -16    5     -1.16      0.00
   -4  -16    4     -1.49      0.00
   -4  -16    3      2.97      0.00
   -4  -16    2     -2.66      0.00
   -4  -16    1      1.77      0.00
    4   16    0     -1.80      0.00
    4   16    1      1.34      0.00
    4   16    2     -0.76      0.00
    4   16    3      0.60      0.00
    4   16    4      0.46      0.00
    4   16    5     -1.19      0.00
    4   16    6      0.49      0.00
    4   16    7     -1.32      0.00
    4   16    8      1.93      0.00
    4   16    9     -0.87      0.00
    4   16   10     -0.35      0.00
    4   16   11      0.13      0.00
    4   16   12      0.46      0.00
    4   16   13     -1.10      0.00
   -4  -17    3     -1.87      0.00
   -4  -17    2      1.70      0.00
   -4  -17    1     -0.27      0.00
    4   17    0     -0.58      0.00
    4   17    1      0.58      0.00
    4   17    2      0.02      0.00
    4   17    3      0.75      0.00
    4   17    4     -3.08      0.00
    4   17    5      3.51      0.00
    4   17    6     -2.78      0.00
    4   17    7      1.60      0.00
    4   17    8     -0.86      0.00
    4   17    9      0.48      0.00
    4   17   10     -0.29      0.00
    4   18    3     -0.17      0.00
    4   18    4      1.11      0.00
    4   18    5     -2.46      0.00
    4   18    6      1.50      0.00
   -5   16    6     -0.01      0.00
   -5   16    5     -0.20      0.00
   -5   16    4      1.57      0.00
   -5   16    3     -1.61      0.00
   -5   16    2      2.90      0.00
   -5   15   10     -1.11      0.00
   -5   15    9      0.54      0.00
   -5   15    8     -0.67      0.00
   -5   15    7     -0.51      0.00
   -5   15    6      1.07      0.00
   -5   15    5      1.28      0.00
   -5   15    4     -0.75      0.00
   -5   15    3      0.28      0.00
   -5   15    2     -1.63      0.00
   -5   15    1      1.38      0.00
   -5   15    0      1.41      0.00
    5  -15    1     -1.53      0.00
    5  -15    2      0.32      0.00
    5  -15    3     -0.16      0.00
   -5   14   12     -0.72      0.00
   -5   14   11     -0.25      0.00
   -5   14   10     -0.93      0.00
   -5   14    9     -0.16      0.00
   -5   14    8     -0.55      0.00
   -5   14    7      3.35      0.00
   -5   14    6     -0.70      0.00
   -5   14    5     -0.39      0.00
   -5   14    4     -1.26      0.00
   -5   14    3      1.40      0.00
   -5   14    2     -0.96      0.00
   -5   14    1      2.45      0.00
   -5   14    0     -1.04      0.00
    5  -14    1     -0.28      0.00
    5  -14    2     -1.00      0.00
    5  -14    3     -1.37      0.00
    5  -14    4      3.10      0.00
    5  -14    5     -0.96      0.00
    5  -14    6      0.98      0.00
   -5   13   14      1.12      0.00
   -5   13   13     -1.27      0.00
   -5   13   12      0.21      0.00
   -5   13   11     -2.01      0.00
   -5   13   10      1.08      0.00
   -5   13    9     -0.78      0.00
   -5   13    8      4.10      0.00
   -5   13    7     -1.54      0.00
   -5   13    6     -0.76      0.00
   -5   13    5     -0.68      0.00
   -5   13    4      0.18      0.00
   -5   13    3      0.04      0.00
   -5   13    2      3.75      0.00
   -5   13    1     -1.41      0.00
   -5   13    0     -3.35      0.00
    5  -13    1      1.79      0.00
    5  -13    2     -1.56      0.00
    5  -13    3      3.01      0.00
    5  -13    4     -0.12      0.00
    5  -13    5     -0.01      0.00
    5  -13    6     -2.32      0.00
    5  -13    7      0.39      0.00
    5  -13    8     -0.61      0.00
   -5   12   15      2.44      0.00
   -5   12   14     -2.11      0.00
   -5   12   13     -0.76      0.00
   -5   12   12     -0.89      0.00
   -5   12   11      0.86      0.00
   -5   12   10      0.63      0.00
   -5   12    9      2.45      0.00
   -5   12    8     -0.76      0.00
   -5   12    7     -2.95      0.00
   -5   12    6      1.73      0.00
   -5   12    5     -2.06      0.00
   -5   12    4      3.38      0.00
   -5   12    3      2.17      0.00
   -5   12    2     -2.93      0.00
   -5   12    1     -1.98      0.00
   -5   12    0      1.98      0.00
    5  -12    1     -1.83      0.00
    5  -12    2      3.09      0.00
    5  -12    3      2.02      0.00
    5  -12    4     -4.38      0.00
    5  -12    5      0.41      0.00
    5  -12    6     -0.66      0.00
    5  -12    7      0.06      0.00
    5  -12    8      1.40      0.00
    5  -12    9      1.35      0.00
   -5   11   16      2.27      0.00
   -5   11   15     -3.40      0.00
   -5   11   14     -0.80      0.00
   -5   11   13      1.18      0.00
   -5   11   12     -0.77      0.00
   -5   11   11      2.19      0.00
   -5   11   10      0.51      0.00
   -5   11    9      0.03      0.00
   -5   11    8     -4.56      0.00
   -5   11    7      3.43      0.00
   -5   11    6     -2.27      0.00
   -5   11    5      4.12      0.00
   -5   11    4      1.66      0.00
   -5   11    3     -4.80      0.00
   -5   11    2      1.06      0.00
   -5   11    1     -1.84      0.00
   -5   11    0      2.33      0.00
    5  -11    1      1.86      0.00
    5  -11    2      2.01      0.00
    5  -11    3     -6.57      0.00
    5  -11    4      2.14      0.00
    5  -11    5     -1.22      0.00
    5  -11    6      0.72      0.00
    5  -11    7      3.59      0.00
    5  -11    8     -1.61      0.00
    5  -11    9     -2.53      0.00
    5  -11   10      0.82      0.00
    5  -11   11     -0.50      0.00
   -5   10   17     -0.29      0.00
   -5   10   16     -1.01      0.00
   -5   10   15     -1.17      0.00
   -5   10   14      0.89      0.00
   -5   10   13     -1.00      0.00
   -5   10   12      2.83      0.00
   -5   10   11      0.69      0.00
   -5   10   10     -2.81      0.00
   -5   10    9     -2.39      0.00
   -5   10    8      2.66      0.00
   -5   10    7      0.02      0.00
   -5   10    6      2.11      0.00
   -5   10    5      2.60      0.00
   -5   10    4     -7.11      0.00
   -5   10    3      2.07      0.00
   -5   10    2     -1.20      0.00
   -5   10    1      3.80      0.00
   -5   10    0      0.93      0.00
    5  -10    1      0.01      0.00
    5  -10    2     -4.71      0.00
    5  -10    3     -0.32      0.00
    5  -10    4      2.51      0.00
    5  -10    5     -1.02      0.00
    5  -10    6      5.73      0.00
    5  -10    7     -5.63      0.00
    5  -10    8     -0.09      0.00
    5  -10    9     -0.43      0.00
    5  -10   10      0.27      0.00
    5  -10   11      1.42      0.00
    5  -10   12      1.10      0.00
   -5    9   18     -0.53      0.00
   -5    9   17      0.90      0.00
   -5    9   16     -2.97      0.00
   -5    9   15      1.55      0.00
   -5    9   14      0.66      0.00
   -5    9   13      0.16      0.00
   -5    9   12      1.61      0.00
   -5    9   11     -5.00      0.00
   -5    9   10      1.57      0.00
   -5    9    9     -0.25      0.00
   -5    9    8      2.37      0.00
   -5    9    7      1.23      0.00
   -5    9    6      1.08      0.00
   -5    9    5     -6.81      0.00
   -5    9    4      0.86      0.00
   -5    9    3      4.21      0.00
   -5    9    2     -2.02      0.00
   -5    9    1      5.93      0.00
   -5    9    0     -4.68      0.00
    5   -9    1     -2.89      0.00
    5   -9    2     -1.77      0.00
    5   -9    3      5.91      0.00
    5   -9    4     -2.51      0.00
    5   -9    5      5.95      0.00
    5   -9    6     -6.28      0.00
    5   -9    7     -1.30      0.00
    5   -9    8      0.48      0.00
    5   -9    9      0.81      0.00
    5   -9   10      3.16      0.00
    5   -9   11     -0.48      0.00
    5   -9   12     -1.35      0.00
    5   -9   13     -2.30      0.00
   -5    8   18     -1.15      0.00
   -5    8   17     -1.17      0.00
   -5    8   16      2.14      0.00
   -5    8   15      0.20      0.00
   -5    8   14     -2.09      0.00
   -5    8   13      3.22      0.00
   -5    8   12     -5.45      0.00
   -5    8   11      1.30      0.00
   -5    8   10      1.48      0.00
   -5    8    9      1.52      0.00
   -5    8    8      1.63      0.00
   -5    8    7     -2.65      0.00
   -5    8    6     -2.92      0.00
   -5    8    5     -1.42      0.00
   -5    8    4      7.35      0.00
   -5    8    3     -4.75      0.00
   -5    8    2      9.31      0.00
   -5    8    1     -9.76      0.00
   -5    8    0     -2.97      0.00
    5   -8    1      3.14      0.00
    5   -8    2      2.63      0.00
    5   -8    3      0.73      0.00
    5   -8    4      2.29      0.00
    5   -8    5     -4.58      0.00
    5   -8    6     -4.57      0.00
    5   -8    7      5.26      0.00
    5   -8    8     -0.59      0.00
    5   -8    9      3.24      0.00
    5   -8   10     -1.36      0.00
    5   -8   11     -1.73      0.00
    5   -8   12     -1.46      0.00
    5   -8   13      1.86      0.00
    5   -8   14     -0.42      0.00
   -5    7   19     -1.94      0.00
   -5    7   18      1.54      0.00
   -5    7   17      0.75      0.00
   -5    7   16     -0.79      0.00
   -5    7   15     -0.53      0.00
   -5    7   14      1.44      0.00
   -5    7   13     -5.09      0.00
   -5    7   12      1.44      0.00
   -5    7   11      4.81      0.00
   -5    7   10     -3.13      0.00
   -5    7    9      3.62      0.00
   -5    7    8     -3.91      0.00
   -5    7    7     -2.84      0.00
   -5    7    6      0.10      0.00
   -5    7    5      6.76      0.00
   -5    7    4     -1.23      0.00
   -5    7    3      1.55      0.00
   -5    7    2     -5.21      0.00
   -5    7    1     -6.12      0.00
   -5    7    0      9.09      0.00
    5   -7    1     -3.01      0.00
    5   -7    2      6.36      0.00
    5   -7    3     -2.16      0.00
    5   -7    4     -5.40      0.00
    5   -7    5     -2.91      0.00
    5   -7    6      6.24      0.00
    5   -7    7     -0.40      0.00
    5   -7    8      2.00      0.00
    5   -7    9      0.11      0.00
    5   -7   10     -4.95      0.00
    5   -7   11      0.28      0.00
    5   -7   12      2.34      0.00
    5   -7   13      0.92      0.00
    5   -7   14      0.78      0.00
    5   -7   15     -1.15      0.00
   -5    6   19      0.10      0.00
   -5    6   18      0.93      0.00
   -5    6   17     -1.18      0.00
   -5    6   16      1.38      0.00
   -5    6   15     -2.41      0.00
   -5    6   14     -2.19      0.00
   -5    6   13      2.45      0.00
   -5    6   12      2.67      0.00
   -5    6   11     -2.07      0.00
   -5    6   10      2.29      0.00
   -5    6    9     -3.02      0.00
   -5    6    8     -6.05      0.00
   -5    6    7      8.06      0.00
   -5    6    6      0.78      0.00
   -5    6    5      1.06      0.00
   -5    6    4     -3.34      0.00
   -5    6    3      0.44      0.00
   -5    6    2    -11.39      0.00
   -5    6    1     13.79      0.00
   -5    6    0     -1.63      0.00
    5   -6    1      3.15      0.00
    5   -6    2     -1.91      0.00
    5   -6    3     -9.39      0.00
    5   -6    4      4.19      0.00
    5   -6    5      1.03      0.00
    5   -6    6      4.90      0.00
    5   -6    7     -1.78      0.00
    5   -6    8      0.48      0.00
    5   -6    9     -6.84      0.00
    5   -6   10      2.96      0.00
    5   -6   11      3.62      0.00
    5   -6   12     -1.59      0.00
    5   -6   13      2.40      0.00
    5   -6   14     -2.46      0.00
    5   -6   15     -1.19      0.00
    5   -6   16      0.15      0.00
   -5    5   19      2.03      0.00
   -5    5   18     -1.80      0.00
   -5    5   17      1.05      0.00
   -5    5   16     -2.63      0.00
   -5    5   15     -0.27      0.00
   -5    5   14      1.94      0.00
   -5    5   13      0.42      0.00
   -5    5   12      2.04      0.00
   -5    5   11     -3.80      0.00
   -5    5   10      1.09      0.00
   -5    5    9     -7.35      0.00
   -5    5    8     11.82      0.00
   -5    5    7     -3.50      0.00
   -5    5    6      1.48      0.00
   -5    5    5     -0.75      0.00
   -5    5    4     -7.80      0.00
   -5    5    3     -2.36      0.00
   -5    5    2     12.68      0.00
   -5    5    1      0.06      0.00
   -5    5    0     -4.13      0.00
    5   -5    1      3.59      0.00
    5   -5    2    -14.23      0.00
    5   -5    3      7.55      0.00
    5   -5    4      1.71      0.00
    5   -5    5      6.53      0.00
    5   -5    6     -5.14      0.00
    5   -5    7     -0.25      0.00
    5   -5    8     -5.34      0.00
    5   -5    9      2.70      0.00
    5   -5   10      5.57      0.00
    5   -5   11     -3.86      0.00
    5   -5   12      5.09      0.00
    5   -5   13     -6.87      0.00
    5   -5   14      0.95      0.00
    5   -5   15      0.93      0.00
    5   -5   16      1.30      0.00
    5   -5   17     -0.32      0.00
   -5    4   19     -0.82      0.00
   -5    4   18     -0.19      0.00
   -5    4   17     -0.55      0.00
   -5    4   16     -1.14      0.00
   -5    4   15      2.25      0.00
   -5    4   14      0.90      0.00
   -5    4   13      0.03      0.00
   -5    4   12     -3.78      0.00
   -5    4   11      2.08      0.00
   -5    4   10     -5.83      0.00
   -5    4    9      9.89      0.00
   -5    4    8     -0.47      0.00
   -5    4    7     -3.54      0.00
   -5    4    6      1.73      0.00
   -5    4    5    -13.06      0.00
   -5    4    4     10.60      0.00
   -5    4    3      3.12      0.00
   -5    4    2      2.65      0.00
   -5    4    1     -3.59      0.00
   -5    4    0     -1.67      0.00
    5   -4    1    -11.01      0.00
    5   -4    2      6.33      0.00
    5   -4    3     10.87      0.00
    5   -4    4     -4.71      0.00
    5   -4    5      0.59      0.00
    5   -4    6     -3.60      0.00
    5   -4    7     -4.90      0.00
    5   -4    8      4.50      0.00
    5   -4    9      5.65      0.00
    5   -4   10     -3.59      0.00
    5   -4   11      2.92      0.00
    5   -4   12     -6.79      0.00
    5   -4   13      2.58      0.00
    5   -4   14      0.62      0.00
    5   -4   15      1.30      0.00
    5   -4   16      0.21      0.00
    5   -4   17     -0.42      0.00
   -5    3   19     -1.29      0.00
   -5    3   18      0.03      0.00
   -5    3   17     -0.53      0.00
   -5    3   16      1.74      0.00
   -5    3   15      1.71      0.00
   -5    3   14     -3.78      0.00
   -5    3   13      1.57      0.00
   -5    3   12     -3.64      0.00
   -5    3   11      0.36      0.00
   -5    3   10      6.86      0.00
   -5    3    9      0.44      0.00
   -5    3    8     -6.94      0.00
   -5    3    7      2.84      0.00
   -5    3    6     -9.14      0.00
   -5    3    5      6.96      0.00
   -5    3    4      7.52      0.00
   -5    3    3     -0.69      0.00
   -5    3    2     -3.50      0.00
   -5    3    1     -9.11      0.00
   -5    3    0      0.73      0.00
    5   -3    1      1.21      0.00
    5   -3    2     16.04      0.00
    5   -3    3    -12.27      0.00
    5   -3    4      6.52      0.00
    5   -3    5     -9.91      0.00
    5   -3    6     -3.80      0.00
    5   -3    7     11.18      0.00
    5   -3    8     -0.64      0.00
    5   -3    9      0.92      0.00
    5   -3   10     -2.84      0.00
    5   -3   11     -2.12      0.00
    5   -3   12     -0.43      0.00
    5   -3   13      3.40      0.00
    5   -3   14      1.35      0.00
    5   -3   15     -1.34      0.00
    5   -3   16     -0.57      0.00
    5   -3   17     -1.57      0.00
    5   -3   18      0.83      0.00
   -5    2   19     -0.35      0.00
   -5    2   18      0.79      0.00
   -5    2   17      0.46      0.00
   -5    2   16      2.37      0.00
   -5    2   15     -5.24      0.00
   -5    2   14      2.65      0.00
   -5    2   13     -4.73      0.00
   -5    2   12      4.36      0.00
   -5    2   11      3.99      0.00
   -5    2   10     -2.39      0.00
   -5    2    9     -2.53      0.00
   -5    2    8     -1.79      0.00
   -5    2    7     -3.23      0.00
   -5    2    6      2.63      0.00
   -5    2    5     16.24      0.00
   -5    2    4    -14.37      0.00
   -5    2    3      0.50      0.00
   -5    2    2     -5.11      0.00
   -5    2    1     -2.70      0.00
   -5    2    0      7.48      0.00
    5   -2    1     11.37      0.00
    5   -2    2     -9.15      0.00
    5   -2    3     -1.92      0.00
    5   -2    4     -5.23      0.00
    5   -2    5     -2.71      0.00
    5   -2    6     13.57      0.00
    5   -2    7     -4.68      0.00
    5   -2    8      3.94      0.00
    5   -2    9     -6.74      0.00
    5   -2   10      0.43      0.00
    5   -2   11     -1.42      0.00
    5   -2   12      5.88      0.00
    5   -2   13     -0.45      0.00
    5   -2   14     -2.27      0.00
    5   -2   15      0.75      0.00
    5   -2   16     -2.87      0.00
    5   -2   17      1.96      0.00
    5   -2   18      0.63      0.00
   -5    1   19      0.26      0.00
   -5    1   18      1.07      0.00
   -5    1   17      0.22      0.00
   -5    1   16     -3.16      0.00
   -5    1   15      0.92      0.00
   -5    1   14     -1.02      0.00
   -5    1   13      0.62      0.00
   -5    1   12      6.17      0.00
   -5    1   11     -5.04      0.00
   -5    1   10     -0.13      0.00
   -5    1    9     -5.21      0.00
   -5    1    8      2.15      0.00
   -5    1    7      4.41      0.00
   -5    1    6      8.23      0.00
   -5    1    5    -11.65      0.00
   -5    1    4     -0.74      0.00
   -5    1    3     -0.50      0.00
   -5    1    2    -10.92      0.00
   -5    1    1     25.91      0.00
   -5    1    0     -6.64      0.00
    5   -1    1     -3.19      0.00
    5   -1    2     -8.02      0.00
    5   -1    3      2.19      0.00
    5   -1    4     -4.69      0.00
    5   -1    5     13.65      0.00
    5   -1    6     -0.13      0.00
    5   -1    7     -4.99      0.00
    5   -1    8     -1.19      0.00
    5   -1    9     -3.45      0.00
    5   -1   10      3.23      0.00
    5   -1   11      3.66      0.00
    5   -1   12     -0.03      0.00
    5   -1   13     -2.85      0.00
    5   -1   14      0.35      0.00
    5   -1   15     -2.77      0.00
    5   -1   16      2.97      0.00
    5   -1   17      1.28      0.00
    5   -1   18     -0.51      0.00
    5   -1   19     -0.68      0.00
   -5    0   19      2.16      0.00
   -5    0   18     -2.23      0.00
   -5    0   17     -0.32      0.00
   -5    0   16     -0.99      0.00
   -5    0   15      0.81      0.00
   -5    0   14     -0.10      0.00
   -5    0   13      6.85      0.00
   -5    0   12     -7.94      0.00
   -5    0   11     -0.20      0.00
   -5    0   10     -0.66      0.00
   -5    0    9      0.32      0.00
   -5    0    8      6.62      0.00
   -5    0    7     -0.02      0.00
   -5    0    6     -1.64      0.00
   -5    0    5    -13.28      0.00
   -5    0    4     10.21      0.00
   -5    0    3     -9.89      0.00
   -5    0    2     26.01      0.00
   -5    0    1    -15.08      0.00
    5    0    0     -0.73      0.00
    5    0    1     -5.01      0.00
    5    0    2     -3.30      0.00
    5    0    3      4.42      0.00
    5    0    4     11.02      0.00
    5    0    5     -0.15      0.00
    5    0    6    -13.00      0.00
    5    0    7      8.15      0.00
    5    0    8    -10.45      0.00
    5    0    9      9.59      0.00
    5    0   10      0.73      0.00
    5    0   11      0.07      0.00
    5    0   12     -3.31      0.00
    5    0   13     -0.03      0.00
    5    0   14     -0.88      0.00
    5    0   15      1.82      0.00
    5    0   16      2.66      0.00
    5    0   17     -2.34      0.00
    5    0   18      0.49      0.00
    5    0   19     -0.72      0.00
   -5   -1   19     -2.11      0.00
   -5   -1   18     -0.50      0.00
   -5   -1   17      0.47      0.00
   -5   -1   16      0.06      0.00
   -5   -1   15      2.13      0.00
   -5   -1   14      1.18      0.00
   -5   -1   13     -4.52      0.00
   -5   -1   12     -0.48      0.00
   -5   -1   11      1.40      0.00
   -5   -1   10     -2.15      0.00
   -5   -1    9      8.39      0.00
   -5   -1    8     -0.68      0.00
   -5   -1    7     -7.18      0.00
   -5   -1    6     -7.90      0.00
   -5   -1    5     13.06      0.00
   -5   -1    4     -9.29      0.00
   -5   -1    3     18.25      0.00
   -5   -1    2     -7.25      0.00
   -5   -1    1    -10.78      0.00
    5    1    0      1.18      0.00
    5    1    1     -4.45      0.00
    5    1    2     12.83      0.00
    5    1    3      3.87      0.00
    5    1    4     -3.87      0.00
    5    1    5     -7.62      0.00
    5    1    6      2.61      0.00
    5    1    7     -5.75      0.00
    5    1    8      9.62      0.00
    5    1    9      1.28      0.00
    5    1   10     -3.31      0.00
    5    1   11     -1.55      0.00
    5    1   12     -0.48      0.00
    5    1   13      0.00      0.00
    5    1   14      2.10      0.00
    5    1   15      2.33      0.00
    5    1   16     -3.57      0.00
    5    1   17      1.65      0.00
    5    1   18     -1.39      0.00
    5    1   19     -0.48      0.00
   -5   -2   19     -1.35      0.00
   -5   -2   18      2.06      0.00
   -5   -2   17     -1.57      0.00
   -5   -2   16      3.34      0.00
   -5   -2   15     -1.61      0.00
   -5   -2   14     -1.58      0.00
   -5   -2   13     -2.35      0.00
   -5   -2   12      2.10      0.00
   -5   -2   11      1.23      0.00
   -5   -2   10      3.55      0.00
   -5   -2    9      1.04      0.00
   -5   -2    8    -14.18      0.00
   -5   -2    7      8.95      0.00
   -5   -2    6     -2.78      0.00
   -5   -2    5      1.88      0.00
   -5   -2    4     13.38      0.00
   -5   -2    3    -11.06      0.00
   -5   -2    2    -11.10      0.00
   -5   -2    1      5.01      0.00
    5    2    0      2.83      0.00
    5    2    1      2.43      0.00
    5    2    2     10.56      0.00
    5    2    3    -11.91      0.00
    5    2    4     -2.07      0.00
    5    2    5     -4.85      0.00
    5    2    6      7.79      0.00
    5    2    7     -0.13      0.00
    5    2    8      5.98      0.00
    5    2    9     -7.34      0.00
    5    2   10     -0.43      0.00
    5    2   11      0.29      0.00
    5    2   12     -0.86      0.00
    5    2   13      5.41      0.00
    5    2   14     -2.21      0.00
    5    2   15     -1.13      0.00
    5    2   16      0.05      0.00
    5    2   17     -0.37      0.00
    5    2   18     -0.15      0.00
    5    2   19      1.78      0.00
   -5   -3   18     -0.61      0.00
   -5   -3   17      1.88      0.00
   -5   -3   16     -0.88      0.00
   -5   -3   15     -3.05      0.00
   -5   -3   14      0.39      0.00
   -5   -3   13      1.75      0.00
   -5   -3   12      1.57      0.00
   -5   -3   11     -0.02      0.00
   -5   -3   10      2.61      0.00
   -5   -3    9    -13.43      0.00
   -5   -3    8     11.58      0.00
   -5   -3    7     -8.06      0.00
   -5   -3    6     11.64      0.00
   -5   -3    5      2.05      0.00
   -5   -3    4    -13.54      0.00
   -5   -3    3      1.49      0.00
   -5   -3    2     -3.67      0.00
   -5   -3    1     11.56      0.00
    5    3    0     -6.77      0.00
    5    3    1     19.57      0.00
    5    3    2    -25.51      0.00
    5    3    3      3.84      0.00
    5    3    4      0.84      0.00
    5    3    5      4.60      0.00
    5    3    6     -0.22      0.00
    5    3    7      7.01      0.00
    5    3    8    -10.89      0.00
    5    3    9     -0.53      0.00
    5    3   10      3.66      0.00
    5    3   11     -2.34      0.00
    5    3   12      7.40      0.00
    5    3   13     -6.27      0.00
    5    3   14      2.12      0.00
    5    3   15     -2.79      0.00
    5    3   16      2.12      0.00
    5    3   17     -0.33      0.00
    5    3   18      1.58      0.00
    5    3   19     -0.98      0.00
    5    3   20     -0.34      0.00
   -5   -4   18     -0.37      0.00
   -5   -4   17      0.51      0.00
   -5   -4   16     -3.11      0.00
   -5   -4   15      2.39      0.00
   -5   -4   14     -0.18      0.00
   -5   -4   13      1.16      0.00
   -5   -4   12      1.83      0.00
   -5   -4   11     -2.35      0.00
   -5   -4   10     -6.80      0.00
   -5   -4    9      6.12      0.00
   -5   -4    8      0.62      0.00
   -5   -4    7      3.17      0.00
   -5   -4    6     -0.02      0.00
   -5   -4    5     -7.84      0.00
   -5   -4    4     -0.46      0.00
   -5   -4    3     -1.95      0.00
   -5   -4    2     13.35      0.00
   -5   -4    1     -6.66      0.00
    5    4    0     10.51      0.00
    5    4    1    -21.78      0.00
    5    4    2      6.38      0.00
    5    4    3      5.31      0.00
    5    4    4     -4.83      0.00
    5    4    5     12.34      0.00
    5    4    6     -5.53      0.00
    5    4    7     -8.38      0.00
    5    4    8      2.20      0.00
    5    4    9      3.22      0.00
    5    4   10     -1.47      0.00
    5    4   11      4.94      0.00
    5    4   12     -3.51      0.00
    5    4   13     -0.92      0.00
    5    4   14     -1.35      0.00
    5    4   15      2.33      0.00
    5    4   16      0.19      0.00
    5    4   17      1.20      0.00
    5    4   18     -0.69      0.00
    5    4   19     -1.70      0.00
    5    4   20      1.48      0.00
   -5   -5   17     -1.42      0.00
   -5   -5   16      1.15      0.00
   -5   -5   15      0.92      0.00
   -5   -5   14     -0.44      0.00
   -5   -5   13      2.03      0.00
   -5   -5   12     -5.08      0.00
   -5   -5   11      0.17      0.00
   -5   -5   10      1.23      0.00
   -5   -5    9      4.08      0.00
   -5   -5    8     -3.25      0.00
   -5   -5    7      4.82      0.00
   -5   -5    6     -8.87      0.00
   -5   -5    5     -4.39      0.00
   -5   -5    4     11.75      0.00
   -5   -5    3     -0.72      0.00
   -5   -5    2      1.18      0.00
   -5   -5    1     -1.35      0.00
    5    5    0     -8.90      0.00
    5    5    1     -0.74      0.00
    5    5    2      9.72      0.00
    5    5    3     -3.40      0.00
    5    5    4     10.04      0.00
    5    5    5    -11.90      0.00
    5    5    6     -2.27      0.00
    5    5    7      2.74      0.00
    5    5    8     -0.16      0.00
    5    5    9      3.96      0.00
    5    5   10     -0.47      0.00
    5    5   11      0.33      0.00
    5    5   12     -7.07      0.00
    5    5   13      5.62      0.00
    5    5   14     -0.70      0.00
    5    5   15      0.80      0.00
    5    5   16      0.89      0.00
    5    5   17     -1.40      0.00
    5    5   18     -0.91      0.00
    5    5   19      1.37      0.00
    5    5   20     -1.39      0.00
   -5   -6   17      0.41      0.00
   -5   -6   16      1.49      0.00
   -5   -6   15     -2.10      0.00
   -5   -6   14      1.82      0.00
   -5   -6   13     -3.28      0.00
   -5   -6   12     -0.28      0.00
   -5   -6   11      2.37      0.00
   -5   -6   10      1.63      0.00
   -5   -6    9     -0.50      0.00
   -5   -6    8      0.32      0.00
   -5   -6    7     -7.05      0.00
   -5   -6    6      0.12      0.00
   -5   -6    5     11.33      0.00
   -5   -6    4     -7.58      0.00
   -5   -6    3      6.48      0.00
   -5   -6    2     -5.87      0.00
   -5   -6    1     -7.07      0.00
    5    6    0      2.24      0.00
    5    6    1     10.31      0.00
    5    6    2     -2.85      0.00
    5    6    3      0.49      0.00
    5    6    4     -2.76      0.00
    5    6    5     -6.64      0.00
    5    6    6      4.42      0.00
    5    6    7      1.83      0.00
    5    6    8      3.15      0.00
    5    6    9     -3.00      0.00
    5    6   10      0.02      0.00
    5    6   11     -5.37      0.00
    5    6   12      6.80      0.00
    5    6   13     -2.46      0.00
    5    6   14      1.23      0.00
    5    6   15      1.60      0.00
    5    6   16     -3.59      0.00
    5    6   17      1.20      0.00
    5    6   18     -0.28      0.00
    5    6   19      0.56      0.00
   -5   -7   16     -0.93      0.00
   -5   -7   15      0.41      0.00
   -5   -7   14     -1.43      0.00
   -5   -7   13     -1.30      0.00
   -5   -7   12      5.29      0.00
   -5   -7   11     -2.99      0.00
   -5   -7   10      2.08      0.00
   -5   -7    9     -3.41      0.00
   -5   -7    8     -0.89      0.00
   -5   -7    7     -0.10      0.00
   -5   -7    6      4.65      0.00
   -5   -7    5     -0.08      0.00
   -5   -7    4     -1.64      0.00
   -5   -7    3     -0.71      0.00
   -5   -7    2    -10.67      0.00
   -5   -7    1     12.57      0.00
    5    7    0      0.12      0.00
    5    7    1      0.05      0.00
    5    7    2     -0.72      0.00
    5    7    3     -2.17      0.00
    5    7    4     -8.55      0.00
    5    7    5      9.06      0.00
    5    7    6      3.08      0.00
    5    7    7     -4.60      0.00
    5    7    8      3.13      0.00
    5    7    9     -5.46      0.00
    5    7   10      0.64      0.00
    5    7   11      1.94      0.00
    5    7   12      2.05      0.00
    5    7   13     -0.96      0.00
    5    7   14      0.51      0.00
    5    7   15     -3.29      0.00
    5    7   16      1.65      0.00
    5    7   17      0.23      0.00
    5    7   18      0.78      0.00
    5    7   19     -0.36      0.00
   -5   -8   15      0.00      0.00
   -5   -8   14     -0.89      0.00
   -5   -8   13      3.68      0.00
   -5   -8   12     -2.77      0.00
   -5   -8   11      1.44      0.00
   -5   -8   10     -1.92      0.00
   -5   -8    9     -1.18      0.00
   -5   -8    8      0.12      0.00
   -5   -8    7      4.53      0.00
   -5   -8    6      0.28      0.00
   -5   -8    5     -7.19      0.00
   -5   -8    4      5.71      0.00
   -5   -8    3    -11.04      0.00
   -5   -8    2     14.16      0.00
   -5   -8    1     -5.13      0.00
    5    8    0      3.47      0.00
    5    8    1     -2.70      0.00
    5    8    2     -6.06      0.00
    5    8    3      0.95      0.00
    5    8    4      4.84      0.00
    5    8    5      2.93      0.00
    5    8    6     -7.10      0.00
    5    8    7      6.92      0.00
    5    8    8    -10.35      0.00
    5    8    9      5.16      0.00
    5    8   10      1.03      0.00
    5    8   11      2.55      0.00
    5    8   12     -2.89      0.00
    5    8   13      0.00      0.00
    5    8   14     -0.41      0.00
    5    8   15     -1.87      0.00
    5    8   16      3.79      0.00
    5    8   17     -1.75      0.00
    5    8   18      1.61      0.00
    5    8   19     -0.65      0.00
   -5   -9   15     -0.12      0.00
   -5   -9   14      1.19      0.00
   -5   -9   13     -0.44      0.00
   -5   -9   12     -1.41      0.00
   -5   -9   11      1.22      0.00
   -5   -9   10     -2.99      0.00
   -5   -9    9      2.75      0.00
   -5   -9    8      2.99      0.00
   -5   -9    7     -4.57      0.00
   -5   -9    6      0.03      0.00
   -5   -9    5      0.77      0.00
   -5   -9    4     -4.91      0.00
   -5   -9    3      8.02      0.00
   -5   -9    2     -0.64      0.00
   -5   -9    1     -1.31      0.00
    5    9    0     -3.18      0.00
    5    9    1     -2.11      0.00
    5    9    2      2.37      0.00
    5    9    3      1.41      0.00
    5    9    4      3.66      0.00
    5    9    5     -5.83      0.00
    5    9    6      2.75      0.00
    5    9    7     -6.51      0.00
    5    9    8      4.30      0.00
    5    9    9      3.11      0.00
    5    9   10     -1.80      0.00
    5    9   11      0.13      0.00
    5    9   12     -1.88      0.00
    5    9   13      0.28      0.00
    5    9   14     -1.96      0.00
    5    9   15      5.64      0.00
    5    9   16     -4.04      0.00
    5    9   17      2.71      0.00
    5    9   18     -1.74      0.00
    5    9   19      0.35      0.00
   -5  -10   14      0.34      0.00
   -5  -10   13     -1.70      0.00
   -5  -10   12      2.09      0.00
   -5  -10   11     -2.73      0.00
   -5  -10   10      2.73      0.00
   -5  -10    9      1.39      0.00
   -5  -10    8     -4.75      0.00
   -5  -10    7      4.04      0.00
   -5  -10    6     -5.93      0.00
   -5  -10    5      3.79      0.00
   -5  -10    4      1.19      0.00
   -5  -10    3      2.35      0.00
   -5  -10    2     -5.83      0.00
   -5  -10    1      0.43      0.00
    5   10    0      0.54      0.00
    5   10    1     -3.25      0.00
    5   10    2      8.59      0.00
    5   10    3     -3.16      0.00
    5   10    4     -2.73      0.00
    5   10    5     -0.74      0.00
    5   10    6     -0.81      0.00
    5   10    7      0.71      0.00
    5   10    8      4.55      0.00
    5   10    9     -3.20      0.00
    5   10   10      0.24      0.00
    5   10   11     -2.04      0.00
    5   10   12      0.23      0.00
    5   10   13      1.07      0.00
    5   10   14      1.89      0.00
    5   10   15     -1.85      0.00
    5   10   16      1.32      0.00
    5   10   17     -1.42      0.00
    5   10   18      0.29      0.00
   -5  -11   13      1.00      0.00
   -5  -11   12     -0.92      0.00
   -5  -11   11      1.15      0.00
   -5  -11   10      1.00      0.00
   -5  -11    9     -3.15      0.00
   -5  -11    8      1.82      0.00
   -5  -11    7     -3.18      0.00
   -5  -11    6      3.34      0.00
   -5  -11    5     -0.57      0.00
   -5  -11    4      1.70      0.00
   -5  -11    3     -4.08      0.00
   -5  -11    2      0.45      0.00
   -5  -11    1     -0.06      0.00
    5   11    0     -1.76      0.00
    5   11    1     10.06      0.00
    5   11    2    -10.12      0.00
    5   11    3      2.80      0.00
    5   11    4     -2.10      0.00
    5   11    5     -0.74      0.00
    5   11    6      1.87      0.00
    5   11    7      2.69      0.00
    5   11    8     -1.85      0.00
    5   11    9     -2.96      0.00
    5   11   10      2.41      0.00
    5   11   11     -2.37      0.00
    5   11   12      2.69      0.00
    5   11   13      0.34      0.00
    5   11   14     -0.09      0.00
    5   11   15     -1.10      0.00
    5   11   16     -0.89      0.00
    5   11   17      1.05      0.00
    5   11   18     -0.56      0.00
   -5  -12   11      0.58      0.00
   -5  -12   10     -1.59      0.00
   -5  -12    9     -0.28      0.00
   -5  -12    8      0.92      0.00
   -5  -12    7     -1.86      0.00
   -5  -12    6      3.32      0.00
   -5  -12    5     -1.52      0.00
   -5  -12    4     -1.80      0.00
   -5  -12    3      0.11      0.00
   -5  -12    2      0.11      0.00
   -5  -12    1      1.36      0.00
    5   12    0      2.00      0.00
    5   12    1     -4.11      0.00
    5   12    2      1.08      0.00
    5   12    3     -1.78      0.00
    5   12    4     -1.44      0.00
    5   12    5      5.04      0.00
    5   12    6     -1.64      0.00
    5   12    7     -0.11      0.00
    5   12    8     -3.13      0.00
    5   12    9      3.56      0.00
    5   12   10     -3.81      0.00
    5   12   11      3.60      0.00
    5   12   12      0.90      0.00
    5   12   13     -2.91      0.00
    5   12   14      0.74      0.00
    5   12   15     -0.98      0.00
    5   12   16      1.22      0.00
    5   12   17     -1.21      0.00
   -5  -13   10     -0.62      0.00
   -5  -13    9      1.22      0.00
   -5  -13    8     -2.55      0.00
   -5  -13    7      4.02      0.00
   -5  -13    6     -3.10      0.00
   -5  -13    5     -0.10      0.00
   -5  -13    4      1.07      0.00
   -5  -13    3     -1.63      0.00
   -5  -13    2      2.38      0.00
   -5  -13    1     -1.35      0.00
    5   13    0      1.41      0.00
    5   13    1     -5.33      0.00
    5   13    2      3.48      0.00
    5   13    3     -1.75      0.00
    5   13    4      3.46      0.00
    5   13    5     -2.08      0.00
    5   13    6     -0.01      0.00
    5   13    7     -1.18      0.00
    5   13    8      0.65      0.00
    5   13    9     -0.39      0.00
    5   13   10      1.22      0.00
    5   13   11      0.73      0.00
    5   13   12     -3.62      0.00
    5   13   13      3.10      0.00
    5   13   14     -2.13      0.00
    5   13   15      0.76      0.00
    5   13   16      0.13      0.00
   -5  -14    9     -0.90      0.00
   -5  -14    8      1.29      0.00
   -5  -14    7     -0.81      0.00
   -5  -14    6     -0.54      0.00
   -5  -14    5      0.94      0.00
   -5  -14    4     -1.62      0.00
   -5  -14    3      1.92      0.00
   -5  -14    2     -0.69      0.00
   -5  -14    1     -1.17      0.00
    5   14    0     -1.81      0.00
    5   14    1      3.63      0.00
    5   14    2     -2.68      0.00
    5   14    3      1.66      0.00
    5   14    4      0.71      0.00
    5   14    5     -2.76      0.00
    5   14    6      0.80      0.00
    5   14    7     -0.22      0.00
    5   14    8      0.92      0.00
    5   14    9     -0.95      0.00
    5   14   10      1.22      0.00
    5   14   11     -2.48      0.00
    5   14   12      1.81      0.00
    5   14   13     -0.92      0.00
    5   14   14      0.47      0.00
    5   14   15      0.80      0.00
   -5  -15    7     -1.37      0.00
   -5  -15    6      1.35      0.00
   -5  -15    5     -0.96      0.00
   -5  -15    4     -0.32      0.00
   -5  -15    3      1.24      0.00
   -5  -15    2     -2.78      0.00
   -5  -15    1      2.86      0.00
    5   15    0     -2.10      0.00
    5   15    1      0.98      0.00
    5   15    2      0.55      0.00
    5   15    3      0.05      0.00
    5   15    4     -2.89      0.00
    5   15    5      1.59      0.00
    5   15    6      0.53      0.00
    5   15    7     -1.32      0.00
    5   15    8      1.54      0.00
    5   15    9     -0.81      0.00
    5   15   10     -1.28      0.00
    5   15   11      1.17      0.00
    5   15   12      0.23      0.00
    5   15   13     -0.31      0.00
    5   15   14      0.35      0.00
   -5  -16    5      0.16      0.00
   -5  -16    4      1.46      0.00
   -5  -16    3     -2.38      0.00
   -5  -16    2      2.30      0.00
   -5  -16    1     -1.78      0.00
    5   16    0      1.48      0.00
    5   16    1     -0.98      0.00
    5   16    2     -0.39      0.00
    5   16    3     -0.09      0.00
    5   16    4     -0.42      0.00
    5   16    5      1.31      0.00
    5   16    6     -2.23      0.00
    5   16    7      3.24      0.00
    5   16    8     -2.85      0.00
    5   16    9      0.78      0.00
    5   16   10      0.24      0.00
    5   16   11     -0.55      0.00
    5   16   12      0.45      0.00
   -5  -17    1     -1.27      0.00
    5   17    0      1.13      0.00
    5   17    1     -0.93      0.00
    5   17    2      0.41      0.00
    5   17    3     -0.69      0.00
    5   17    4      1.23      0.00
    5   17    5     -1.68      0.00
    5   17    6      2.00      0.00
    5   17    7     -1.49      0.00
    5   17    8      0.55      0.00
    5   17    9     -0.56      0.00
   -6   15    7      0.47      0.00
   -6   15    6     -0.83      0.00
   -6   15    5     -0.92      0.00
   -6   15    4      0.46      0.00
   -6   15    3      1.12      0.00
   -6   15    2      0.58      0.00
   -6   15    1     -0.58      0.00
   -6   15    0     -1.21      0.00
   -6   14   11     -0.68      0.00
   -6   14   10      1.29      0.00
   -6   14    9      0.41      0.00
   -6   14    8      1.30      0.00
   -6   14    7     -3.54      0.00
   -6   14    6      0.75      0.00
   -6   14    5      0.81      0.00
   -6   14    4      1.13      0.00
   -6   14    3     -0.25      0.00
   -6   14    2      0.56      0.00
   -6   14    1     -1.60      0.00
   -6   14    0     -0.35      0.00
    6  -14    1      1.53      0.00
    6  -14    2     -0.39      0.00
    6  -14    3      2.62      0.00
    6  -14    4     -3.51      0.00
   -6   13   13      1.31      0.00
   -6   13   12     -0.79      0.00
   -6   13   11      1.96      0.00
   -6   13   10     -0.57      0.00
   -6   13    9      1.02      0.00
   -6   13    8     -3.89      0.00
   -6   13    7      2.17      0.00
   -6   13    6      0.07      0.00
   -6   13    5      0.47      0.00
   -6   13    4      1.87      0.00
   -6   13    3     -0.70      0.00
   -6   13    2     -2.96      0.00
   -6   13    1      0.86      0.00
   -6   13    0      2.91      0.00
    6  -13    1     -1.23      0.00
    6  -13    2      1.82      0.00
    6  -13    3     -3.41      0.00
    6  -13    4      0.78      0.00
    6  -13    5     -0.77      0.00
    6  -13    6      1.48      0.00
   -6   12   14      0.90      0.00
   -6   12   13      0.71      0.00
   -6   12   12      0.23      0.00
   -6   12   11      0.68      0.00
   -6   12   10     -1.39      0.00
   -6   12    9     -1.81      0.00
   -6   12    8      1.06      0.00
   -6   12    7      1.46      0.00
   -6   12    6      0.23      0.00
   -6   12    5      1.73      0.00
   -6   12    4     -2.55      0.00
   -6   12    3     -2.39      0.00
   -6   12    2      4.15      0.00
   -6   12    1     -0.61      0.00
   -6   12    0      0.76      0.00
    6  -12    1      0.08      0.00
    6  -12    2     -1.52      0.00
    6  -12    3     -2.24      0.00
    6  -12    4      2.65      0.00
    6  -12    5      0.71      0.00
    6  -12    6     -0.14      0.00
    6  -12    7      0.27      0.00
    6  -12    8     -1.85      0.00
   -6   11   15      0.24      0.00
   -6   11   14      1.59      0.00
   -6   11   13     -1.49      0.00
   -6   11   12      1.86      0.00
   -6   11   11     -3.17      0.00
   -6   11   10      0.19      0.00
   -6   11    9     -0.09      0.00
   -6   11    8      3.06      0.00
   -6   11    7     -0.66      0.00
   -6   11    6      0.30      0.00
   -6   11    5     -1.46      0.00
   -6   11    4     -3.06      0.00
   -6   11    3      6.10      0.00
   -6   11    2     -3.15      0.00
   -6   11    1      4.22      0.00
   -6   11    0     -3.32      0.00
    6  -11    1     -1.01      0.00
    6  -11    2     -2.26      0.00
    6  -11    3      5.28      0.00
    6  -11    4     -0.80      0.00
    6  -11    5     -0.50      0.00
    6  -11    6      0.89      0.00
    6  -11    7     -4.77      0.00
    6  -11    8      2.25      0.00
    6  -11    9      1.44      0.00
    6  -11   10      0.04      0.00
   -6   10   16     -1.63      0.00
   -6   10   15      2.40      0.00
   -6   10   14     -1.69      0.00
   -6   10   13      1.14      0.00
   -6   10   12     -2.13      0.00
   -6   10   11     -1.16      0.00
   -6   10   10      1.97      0.00
   -6   10    9      2.22      0.00
   -6   10    8     -1.01      0.00
   -6   10    7     -0.67      0.00
   -6   10    6     -1.03      0.00
   -6   10    5     -2.80      0.00
   -6   10    4      6.61      0.00
   -6   10    3     -1.74      0.00
   -6   10    2      1.31      0.00
   -6   10    1     -2.36      0.00
   -6   10    0     -2.47      0.00
    6  -10    1      1.40      0.00
    6  -10    2      3.13      0.00
    6  -10    3      0.06      0.00
    6  -10    4     -1.31      0.00
    6  -10    5      0.41      0.00
    6  -10    6     -5.32      0.00
    6  -10    7      4.50      0.00
    6  -10    8      0.39      0.00
    6  -10    9      0.41      0.00
    6  -10   10      0.65      0.00
    6  -10   11     -1.60      0.00
   -6    9   17     -0.51      0.00
   -6    9   16      2.43      0.00
   -6    9   15     -2.50      0.00
   -6    9   14     -0.14      0.00
   -6    9   13      0.13      0.00
   -6    9   12     -2.50      0.00
   -6    9   11      4.63      0.00
   -6    9   10     -0.76      0.00
   -6    9    9     -1.03      0.00
   -6    9    8      0.22      0.00
   -6    9    7     -2.61      0.00
   -6    9    6      0.34      0.00
   -6    9    5      4.17      0.00
   -6    9    4      1.19      0.00
   -6    9    3     -4.15      0.00
   -6    9    2      2.68      0.00
   -6    9    1     -6.56      0.00
   -6    9    0      5.21      0.00
    6   -9    1      1.71      0.00
    6   -9    2      0.56      0.00
    6   -9    3     -2.01      0.00
    6   -9    4     -1.69      0.00
    6   -9    5     -2.10      0.00
    6   -9    6      2.76      0.00
    6   -9    7      2.97      0.00
    6   -9    8     -1.39      0.00
    6   -9    9      0.43      0.00
    6   -9   10     -2.80      0.00
    6   -9   11     -0.07      0.00
    6   -9   12      1.93      0.00
   -6    8   17     -0.24      0.00
   -6    8   16     -1.94      0.00
   -6    8   15      0.60      0.00
   -6    8   14     -0.17      0.00
   -6    8   13     -1.77      0.00
   -6    8   12      4.20      0.00
   -6    8   11     -0.80      0.00
   -6    8   10     -2.26      0.00
   -6    8    9      1.29      0.00
   -6    8    8     -4.25      0.00
   -6    8    7      3.92      0.00
   -6    8    6      2.11      0.00
   -6    8    5      1.22      0.00
   -6    8    4     -5.17      0.00
   -6    8    3      2.73      0.00
   -6    8    2     -6.16      0.00
   -6    8    1      5.96      0.00
   -6    8    0      3.99      0.00
    6   -8    1     -3.87      0.00
    6   -8    2     -0.19      0.00
    6   -8    3     -3.68      0.00
    6   -8    4      0.93      0.00
    6   -8    5      1.59      0.00
    6   -8    6      5.28      0.00
    6   -8    7     -4.92      0.00
    6   -8    8      0.82      0.00
    6   -8    9     -2.02      0.00
    6   -8   10     -0.41      0.00
    6   -8   11      3.55      0.00
    6   -8   12     -0.44      0.00
    6   -8   13     -0.11      0.00
   -6    7   18     -0.88      0.00
   -6    7   17     -1.01      0.00
   -6    7   16      0.98      0.00
   -6    7   15     -2.46      0.00
   -6    7   14      1.75      0.00
   -6    7   13      1.88      0.00
   -6    7   12      0.09      0.00
   -6    7   11     -4.11      0.00
   -6    7   10      1.89      0.00
   -6    7    9     -2.60      0.00
   -6    7    8      2.80      0.00
   -6    7    7      4.08      0.00
   -6    7    6     -3.01      0.00
   -6    7    5     -1.64      0.00
   -6    7    4     -2.37      0.00
   -6    7    3      0.86      0.00
   -6    7    2      2.21      0.00
   -6    7    1      6.74      0.00
   -6    7    0     -8.27      0.00
    6   -7    1      1.82      0.00
    6   -7    2     -3.84      0.00
    6   -7    3     -0.32      0.00
    6   -7    4      6.29      0.00
    6   -7    5      1.21      0.00
    6   -7    6     -3.83      0.00
    6   -7    7     -0.55      0.00
    6   -7    8     -1.02      0.00
    6   -7    9     -1.04      0.00
    6   -7   10      6.25      0.00
    6   -7   11     -2.12      0.00
    6   -7   12     -0.05      0.00
    6   -7   13     -1.28      0.00
    6   -7   14     -1.24      0.00
   -6    6   18     -0.93      0.00
   -6    6   17      1.03      0.00
   -6    6   16     -2.48      0.00
   -6    6   15      3.34      0.00
   -6    6   14     -0.57      0.00
   -6    6   13      0.12      0.00
   -6    6   12     -3.01      0.00
   -6    6   11      0.66      0.00
   -6    6   10      0.09      0.00
   -6    6    9     -0.49      0.00
   -6    6    8      8.59      0.00
   -6    6    7     -9.44      0.00
   -6    6    6      1.86      0.00
   -6    6    5     -3.29      0.00
   -6    6    4      3.15      0.00
   -6    6    3      1.18      0.00
   -6    6    2      6.53      0.00
   -6    6    1     -8.27      0.00
   -6    6    0     -1.53      0.00
    6   -6    1     -0.22      0.00
    6   -6    2     -2.40      0.00
    6   -6    3     12.16      0.00
    6   -6    4     -6.17      0.00
    6   -6    5      0.46      0.00
    6   -6    6     -3.94      0.00
    6   -6    7      0.11      0.00
    6   -6    8      1.27      0.00
    6   -6    9      5.43      0.00
    6   -6   10     -2.34      0.00
    6   -6   11     -1.84      0.00
    6   -6   12      0.06      0.00
    6   -6   13     -1.46      0.00
    6   -6   14      2.22      0.00
    6   -6   15      0.42      0.00
   -6    5   18     -0.69      0.00
   -6    5   17      0.26      0.00
   -6    5   16      0.78      0.00
   -6    5   15      0.31      0.00
   -6    5   14     -0.76      0.00
   -6    5   13     -1.99      0.00
   -6    5   12     -0.07      0.00
   -6    5   11      1.18      0.00
   -6    5   10      0.00      0.00
   -6    5    9      6.96      0.00
   -6    5    8    -10.63      0.00
   -6    5    7      2.98      0.00
   -6    5    6     -0.90      0.00
   -6    5    5     -1.39      0.00
   -6    5    4      8.94      0.00
   -6    5    3     -0.46      0.00
   -6    5    2     -7.44      0.00
   -6    5    1     -3.07      0.00
   -6    5    0      3.40      0.00
    6   -5    1     -2.05      0.00
    6   -5    2     10.82      0.00
    6   -5    3     -5.44      0.00
    6   -5    4     -1.95      0.00
    6   -5    5     -3.37      0.00
    6   -5    6      0.41      0.00
    6   -5    7      4.28      0.00
    6   -5    8      1.82      0.00
    6   -5    9     -0.10      0.00
    6   -5   10     -4.37      0.00
    6   -5   11      1.92      0.00
    6   -5   12     -2.65      0.00
    6   -5   13      3.82      0.00
    6   -5   14      0.58      0.00
    6   -5   15     -0.72      0.00
    6   -5   16     -1.05      0.00
   -6    4   19     -1.71      0.00
   -6    4   18      2.66      0.00
   -6    4   17     -2.03      0.00
   -6    4   16      2.45      0.00
   -6    4   15     -2.79      0.00
   -6    4   14     -1.74      0.00
   -6    4   13      2.34      0.00
   -6    4   12     -1.12      0.00
   -6    4   11      3.39      0.00
   -6    4   10      0.24      0.00
   -6    4    9     -4.74      0.00
   -6    4    8     -0.82      0.00
   -6    4    7      1.89      0.00
   -6    4    6     -1.18      0.00
   -6    4    5     10.50      0.00
   -6    4    4     -6.44      0.00
   -6    4    3     -6.28      0.00
   -6    4    2      1.57      0.00
   -6    4    1     -2.10      0.00
   -6    4    0      4.95      0.00
    6   -4    1      5.27      0.00
    6   -4    2     -0.62      0.00
    6   -4    3    -11.50      0.00
    6   -4    4      4.72      0.00
    6   -4    5     -1.79      0.00
    6   -4    6      4.81      0.00
    6   -4    7      2.66      0.00
    6   -4    8     -1.87      0.00
    6   -4    9     -4.55      0.00
    6   -4   10      1.63      0.00
    6   -4   11     -0.53      0.00
    6   -4   12      3.51      0.00
    6   -4   13      0.28      0.00
    6   -4   14     -1.79      0.00
    6   -4   15     -0.77      0.00
    6   -4   16      0.37      0.00
   -6    3   19      1.22      0.00
   -6    3   18     -0.92      0.00
   -6    3   17      1.51      0.00
   -6    3   16     -2.87      0.00
   -6    3   15     -0.98      0.00
   -6    3   14      2.99      0.00
   -6    3   13     -2.81      0.00
   -6    3   12      5.42      0.00
   -6    3   11     -2.92      0.00
   -6    3   10     -2.38      0.00
   -6    3    9     -2.64      0.00
   -6    3    8      4.49      0.00
   -6    3    7      0.99      0.00
   -6    3    6      3.10      0.00
   -6    3    5     -0.54      0.00
   -6    3    4    -11.52      0.00
   -6    3    3      6.50      0.00
   -6    3    2     -5.64      0.00
   -6    3    1     12.56      0.00
   -6    3    0     -1.40      0.00
    6   -3    1     -2.09      0.00
    6   -3    2    -10.99      0.00
    6   -3    3      7.57      0.00
    6   -3    4     -2.87      0.00
    6   -3    5      4.84      0.00
    6   -3    6      6.41      0.00
    6   -3    7    -10.13      0.00
    6   -3    8      1.05      0.00
    6   -3    9     -0.74      0.00
    6   -3   10      2.49      0.00
    6   -3   11      1.30      0.00
    6   -3   12      1.31      0.00
    6   -3   13     -2.96      0.00
    6   -3   14     -1.03      0.00
    6   -3   15      1.59      0.00
    6   -3   16     -1.10      0.00
    6   -3   17      2.60      0.00
   -6    2   19      0.84      0.00
   -6    2   18     -0.85      0.00
   -6    2   17     -1.08      0.00
   -6    2   16     -0.82      0.00
   -6    2   15      1.44      0.00
   -6    2   14      0.13      0.00
   -6    2   13      2.00      0.00
   -6    2   12     -0.90      0.00
   -6    2   11     -5.90      0.00
   -6    2   10      3.29      0.00
   -6    2    9      1.59      0.00
   -6    2    8      1.70      0.00
   -6    2    7      1.33      0.00
   -6    2    6      0.52      0.00
   -6    2    5    -15.29      0.00
   -6    2    4     11.70      0.00
   -6    2    3     -2.31      0.00
   -6    2    2      6.26      0.00
   -6    2    1      1.09      0.00
   -6    2    0     -7.89      0.00
    6   -2    1     -3.53      0.00
    6   -2    2      1.04      0.00
    6   -2    3      4.64      0.00
    6   -2    4      2.65      0.00
    6   -2    5      4.63      0.00
    6   -2    6    -12.81      0.00
    6   -2    7      4.93      0.00
    6   -2    8     -2.35      0.00
    6   -2    9      3.15      0.00
    6   -2   10      2.38      0.00
    6   -2   11     -0.23      0.00
    6   -2   12     -3.36      0.00
    6   -2   13     -0.79      0.00
    6   -2   14      2.65      0.00
    6   -2   15     -1.73      0.00
    6   -2   16      3.88      0.00
    6   -2   17     -2.48      0.00
   -6    1   19     -0.24      0.00
   -6    1   18     -1.11      0.00
   -6    1   17     -0.01      0.00
   -6    1   16      0.72      0.00
   -6    1   15      1.40      0.00
   -6    1   14     -1.69      0.00
   -6    1   13      2.54      0.00
   -6    1   12     -8.20      0.00
   -6    1   11      7.32      0.00
   -6    1   10     -2.56      0.00
   -6    1    9      3.79      0.00
   -6    1    8      2.35      0.00
   -6    1    7     -7.71      0.00
   -6    1    6     -4.62      0.00
   -6    1    5      7.08      0.00
   -6    1    4      2.06      0.00
   -6    1    3     -0.91      0.00
   -6    1    2      8.20      0.00
   -6    1    1    -17.27      0.00
   -6    1    0      1.03      0.00
    6   -1    1      4.13      0.00
    6   -1    2      5.40      0.00
    6   -1    3      0.88      0.00
    6   -1    4      0.31      0.00
    6   -1    5     -7.91      0.00
    6   -1    6     -0.59      0.00
    6   -1    7      3.61      0.00
    6   -1    8      0.60      0.00
    6   -1    9      4.69      0.00
    6   -1   10     -4.07      0.00
    6   -1   11     -1.76      0.00
    6   -1   12     -0.29      0.00
    6   -1   13      2.22      0.00
    6   -1   14     -0.46      0.00
    6   -1   15      2.97      0.00
    6   -1   16     -2.69      0.00
    6   -1   17     -0.53      0.00
    6   -1   18      0.07      0.00
   -6    0   19     -2.13      0.00
   -6    0   18      1.39      0.00
   -6    0   17      0.92      0.00
   -6    0   16     -0.51      0.00
   -6    0   15      0.30      0.00
   -6    0   14     -0.35      0.00
   -6    0   13     -5.19      0.00
   -6    0   12      6.07      0.00
   -6    0   11     -0.80      0.00
   -6    0   10      2.09      0.00
   -6    0    9      0.55      0.00
   -6    0    8     -8.24      0.00
   -6    0    7      2.29      0.00
   -6    0    6      0.51      0.00
   -6    0    5      7.17      0.00
   -6    0    4     -2.74      0.00
   -6    0    3      3.57      0.00
   -6    0    2    -16.18      0.00
   -6    0    1      3.54      0.00
    6    0    0     10.68      0.00
    6    0    1     -5.58      0.00
    6    0    2      9.60      0.00
    6    0    3     -7.23      0.00
    6    0    4     -5.95      0.00
    6    0    5     -1.59      0.00
    6    0    6      9.26      0.00
    6    0    7     -3.19      0.00
    6    0    8      5.12      0.00
    6    0    9     -4.73      0.00
    6    0   10     -2.55      0.00
    6    0   11      1.97      0.00
    6    0   12      0.71      0.00
    6    0   13      1.55      0.00
    6    0   14      0.24      0.00
    6    0   15     -1.04      0.00
    6    0   16     -1.67      0.00
    6    0   17      1.09      0.00
    6    0   18     -0.33      0.00
   -6   -1   18      1.15      0.00
   -6   -1   17     -2.14      0.00
   -6   -1   16      2.70      0.00
   -6   -1   15     -4.78      0.00
   -6   -1   14      1.34      0.00
   -6   -1   13      1.73      0.00
   -6   -1   12      1.46      0.00
   -6   -1   11     -0.75      0.00
   -6   -1   10      0.31      0.00
   -6   -1    9     -3.76      0.00
   -6   -1    8     -3.42      0.00
   -6   -1    7      8.65      0.00
   -6   -1    6      0.64      0.00
   -6   -1    5     -0.75      0.00
   -6   -1    4     -2.34      0.00
   -6   -1    3     -7.66      0.00
   -6   -1    2      0.88      0.00
   -6   -1    1     11.16      0.00
    6    1    0     -5.35      0.00
    6    1    1      9.86      0.00
    6    1    2    -12.76      0.00
    6    1    3     -4.77      0.00
    6    1    4      5.88      0.00
    6    1    5      3.05      0.00
    6    1    6      0.97      0.00
    6    1    7      1.28      0.00
    6    1    8     -3.47      0.00
    6    1    9     -4.86      0.00
    6    1   10      5.71      0.00
    6    1   11     -0.72      0.00
    6    1   12      2.05      0.00
    6    1   13     -0.61      0.00
    6    1   14     -1.62      0.00
    6    1   15     -1.36      0.00
    6    1   16      2.31      0.00
    6    1   17     -0.50      0.00
    6    1   18     -0.06      0.00
   -6   -2   18     -1.59      0.00
   -6   -2   17      1.86      0.00
   -6   -2   16     -4.08      0.00
   -6   -2   15      2.28      0.00
   -6   -2   14      0.28      0.00
   -6   -2   13      2.37      0.00
   -6   -2   12     -1.26      0.00
   -6   -2   11     -1.07      0.00
   -6   -2   10     -2.18      0.00
   -6   -2    9     -4.15      0.00
   -6   -2    8     15.29      0.00
   -6   -2    7    -11.38      0.00
   -6   -2    6      7.00      0.00
   -6   -2    5     -6.31      0.00
   -6   -2    4     -5.83      0.00
   -6   -2    3      4.53      0.00
   -6   -2    2      7.69      0.00
   -6   -2    1      0.04      0.00
    6    2    0     -4.31      0.00
    6    2    1     -1.45      0.00
    6    2    2     -8.78      0.00
    6    2    3     10.98      0.00
    6    2    4     -1.42      0.00
    6    2    5      5.22      0.00
    6    2    6     -4.66      0.00
    6    2    7     -2.01      0.00
    6    2    8     -3.77      0.00
    6    2    9      5.91      0.00
    6    2   10      0.55      0.00
    6    2   11     -0.17      0.00
    6    2   12      1.11      0.00
    6    2   13     -4.95      0.00
    6    2   14      2.20      0.00
    6    2   15      0.94      0.00
    6    2   16      0.26      0.00
    6    2   17      0.10      0.00
    6    2   18      0.62      0.00
    6    2   19     -2.56      0.00
   -6   -3   18      0.09      0.00
   -6   -3   17     -0.82      0.00
   -6   -3   16     -0.12      0.00
   -6   -3   15      2.52      0.00
   -6   -3   14     -0.39      0.00
   -6   -3   13     -1.02      0.00
   -6   -3   12     -0.57      0.00
   -6   -3   11     -2.28      0.00
   -6   -3   10      0.45      0.00
   -6   -3    9      8.11      0.00
   -6   -3    8     -7.85      0.00
   -6   -3    7      6.27      0.00
   -6   -3    6     -8.12      0.00
   -6   -3    5     -3.55      0.00
   -6   -3    4      9.82      0.00
   -6   -3    3      0.96      0.00
   -6   -3    2      0.73      0.00
   -6   -3    1     -7.57      0.00
    6    3    0      4.85      0.00
    6    3    1    -13.89      0.00
    6    3    2     16.33      0.00
    6    3    3      0.02      0.00
    6    3    4     -2.50      0.00
    6    3    5     -0.78      0.00
    6    3    6     -4.69      0.00
    6    3    7     -0.52      0.00
    6    3    8      4.82      0.00
    6    3    9      2.69      0.00
    6    3   10     -3.21      0.00
    6    3   11      1.86      0.00
    6    3   12     -5.81      0.00
    6    3   13      3.99      0.00
    6    3   14     -0.03      0.00
    6    3   15      1.24      0.00
    6    3   16     -0.02      0.00
    6    3   17     -1.04      0.00
    6    3   18     -1.22      0.00
    6    3   19      1.19      0.00
   -6   -4   17     -0.67      0.00
   -6   -4   16      2.38      0.00
   -6   -4   15     -1.97      0.00
   -6   -4   14      0.03      0.00
   -6   -4   13      0.15      0.00
   -6   -4   12     -3.62      0.00
   -6   -4   11      4.31      0.00
   -6   -4   10      1.56      0.00
   -6   -4    9      0.03      0.00
   -6   -4    8     -3.64      0.00
   -6   -4    7     -1.25      0.00
   -6   -4    6     -1.92      0.00
   -6   -4    5      6.95      0.00
   -6   -4    4      2.07      0.00
   -6   -4    3     -4.10      0.00
   -6   -4    2     -1.19      0.00
   -6   -4    1     -4.33      0.00
    6    4    0     -1.98      0.00
    6    4    1     12.79      0.00
    6    4    2     -1.20      0.00
    6    4    3     -7.08      0.00
    6    4    4      5.42      0.00
    6    4    5    -10.56      0.00
    6    4    6      4.34      0.00
    6    4    7      6.01      0.00
    6    4    8     -1.10      0.00
    6    4    9     -1.77      0.00
    6    4   10     -0.28      0.00
    6    4   11     -2.32      0.00
    6    4   12      0.70      0.00
    6    4   13      3.28      0.00
    6    4   14     -0.78      0.00
    6    4   15      0.38      0.00
    6    4   16     -1.53      0.00
    6    4   17     -0.31      0.00
    6    4   18     -0.28      0.00
    6    4   19      1.28      0.00
   -6   -5   17      0.86      0.00
   -6   -5   16     -0.99      0.00
   -6   -5   15     -0.89      0.00
   -6   -5   14      0.55      0.00
   -6   -5   13     -2.06      0.00
   -6   -5   12      4.21      0.00
   -6   -5   11      0.10      0.00
   -6   -5   10     -1.04      0.00
   -6   -5    9     -3.33      0.00
   -6   -5    8      2.28      0.00
   -6   -5    7     -3.60      0.00
   -6   -5    6      5.18      0.00
   -6   -5    5      5.48      0.00
   -6   -5    4    -11.02      0.00
   -6   -5    3      4.98      0.00
   -6   -5    2     -8.99      0.00
   -6   -5    1      8.12      0.00
    6    5    0      2.83      0.00
    6    5    1      1.70      0.00
    6    5    2     -6.01      0.00
    6    5    3      0.76      0.00
    6    5    4     -6.39      0.00
    6    5    5      5.48      0.00
    6    5    6      6.28      0.00
    6    5    7     -6.22      0.00
    6    5    8      3.02      0.00
    6    5    9     -4.46      0.00
    6    5   10      0.67      0.00
    6    5   11     -0.34      0.00
    6    5   12      6.05      0.00
    6    5   13     -4.29      0.00
    6    5   14      0.54      0.00
    6    5   15     -0.31      0.00
    6    5   16     -1.39      0.00
    6    5   17      1.58      0.00
    6    5   18      0.46      0.00
    6    5   19     -0.90      0.00
   -6   -6   16     -0.65      0.00
   -6   -6   15      0.85      0.00
   -6   -6   14     -0.72      0.00
   -6   -6   13      1.77      0.00
   -6   -6   12      1.82      0.00
   -6   -6   11     -4.48      0.00
   -6   -6   10      2.05      0.00
   -6   -6    9     -2.74      0.00
   -6   -6    8      0.62      0.00
   -6   -6    7      4.72      0.00
   -6   -6    6      1.17      0.00
   -6   -6    5     -8.93      0.00
   -6   -6    4      4.82      0.00
   -6   -6    3     -4.63      0.00
   -6   -6    2      3.71      0.00
   -6   -6    1      5.55      0.00
    6    6    0     -1.38      0.00
    6    6    1     -6.16      0.00
    6    6    2     -0.40      0.00
    6    6    3      0.46      0.00
    6    6    4      0.99      0.00
    6    6    5      6.38      0.00
    6    6    6     -5.91      0.00
    6    6    7      1.16      0.00
    6    6    8     -3.75      0.00
    6    6    9      1.29      0.00
    6    6   10      3.19      0.00
    6    6   11      1.05      0.00
    6    6   12     -2.59      0.00
    6    6   13     -0.38      0.00
    6    6   14      0.99      0.00
    6    6   15     -3.13      0.00
    6    6   16      4.39      0.00
    6    6   17     -1.77      0.00
    6    6   18      0.70      0.00
    6    6   19     -0.10      0.00
   -6   -7   16     -0.62      0.00
   -6   -7   15      0.43      0.00
   -6   -7   14      0.74      0.00
   -6   -7   13      1.54      0.00
   -6   -7   12     -4.98      0.00
   -6   -7   11      3.50      0.00
   -6   -7   10     -3.33      0.00
   -6   -7    9      3.23      0.00
   -6   -7    8      1.36      0.00
   -6   -7    7     -1.53      0.00
   -6   -7    6     -2.16      0.00
   -6   -7    5     -1.08      0.00
   -6   -7    4      2.14      0.00
   -6   -7    3     -2.35      0.00
   -6   -7    2     11.04      0.00
   -6   -7    1    -10.50      0.00
    6    7    0     -0.29      0.00
    6    7    1      1.25      0.00
    6    7    2     -2.58      0.00
    6    7    3      4.38      0.00
    6    7    4      3.32      0.00
    6    7    5     -4.10      0.00
    6    7    6     -4.72      0.00
    6    7    7      4.15      0.00
    6    7    8     -2.57      0.00
    6    7    9      5.73      0.00
    6    7   10     -2.73      0.00
    6    7   11      1.05      0.00
    6    7   12     -3.73      0.00
    6    7   13      1.20      0.00
    6    7   14     -0.75      0.00
    6    7   15      3.79      0.00
    6    7   16     -1.94      0.00
    6    7   17      0.45      0.00
    6    7   18     -0.87      0.00
    6    7   19     -0.14      0.00
   -6   -8   15     -0.48      0.00
   -6   -8   14      0.49      0.00
   -6   -8   13     -2.24      0.00
   -6   -8   12      1.60      0.00
   -6   -8   11     -0.61      0.00
   -6   -8   10      0.39      0.00
   -6   -8    9      2.25      0.00
   -6   -8    8     -1.74      0.00
   -6   -8    7     -2.31      0.00
   -6   -8    6     -1.16      0.00
   -6   -8    5      4.43      0.00
   -6   -8    4     -2.85      0.00
   -6   -8    3      7.44      0.00
   -6   -8    2    -10.14      0.00
   -6   -8    1      2.70      0.00
    6    8    0     -0.34      0.00
    6    8    1     -2.19      0.00
    6    8    2      8.81      0.00
    6    8    3     -4.59      0.00
    6    8    4     -1.16      0.00
    6    8    5     -5.08      0.00
    6    8    6      7.32      0.00
    6    8    7     -6.09      0.00
    6    8    8      7.27      0.00
    6    8    9     -1.75      0.00
    6    8   10     -2.65      0.00
    6    8   11     -1.91      0.00
    6    8   12      1.72      0.00
    6    8   13      1.29      0.00
    6    8   14     -0.30      0.00
    6    8   15      1.10      0.00
    6    8   16     -1.06      0.00
    6    8   17     -0.59      0.00
    6    8   18     -0.15      0.00
   -6   -9   14     -0.83      0.00
   -6   -9   13      0.49      0.00
   -6   -9   12      1.00      0.00
   -6   -9   11     -1.17      0.00
   -6   -9   10      2.58      0.00
   -6   -9    9     -2.64      0.00
   -6   -9    8     -2.76      0.00
   -6   -9    7      3.72      0.00
   -6   -9    6     -1.12      0.00
   -6   -9    5      0.91      0.00
   -6   -9    4      1.88      0.00
   -6   -9    3     -4.17      0.00
   -6   -9    2     -1.13      0.00
   -6   -9    1      1.34      0.00
    6    9    0      1.57      0.00
    6    9    1      2.71      0.00
    6    9    2     -2.97      0.00
    6    9    3     -1.43      0.00
    6    9    4     -2.30      0.00
    6    9    5      3.05      0.00
    6    9    6     -1.85      0.00
    6    9    7      5.31      0.00
    6    9    8     -1.93      0.00
    6    9    9     -5.33      0.00
    6    9   10      3.17      0.00
    6    9   11     -0.51      0.00
    6    9   12      0.64      0.00
    6    9   13      0.92      0.00
    6    9   14      1.03      0.00
    6    9   15     -2.88      0.00
    6    9   16     -0.34      0.00
    6    9   17      1.53      0.00
    6    9   18     -1.05      0.00
   -6  -10   13      0.21      0.00
   -6  -10   12     -0.39      0.00
   -6  -10   11      0.67      0.00
   -6  -10   10     -1.13      0.00
   -6  -10    9     -2.46      0.00
   -6  -10    8      4.35      0.00
   -6  -10    7     -4.03      0.00
   -6  -10    6      4.33      0.00
   -6  -10    5     -1.23      0.00
   -6  -10    4     -2.71      0.00
   -6  -10    3     -1.02      0.00
   -6  -10    2      2.74      0.00
   -6  -10    1      1.62      0.00
    6   10    0     -2.65      0.00
    6   10    1      4.22      0.00
    6   10    2     -8.50      0.00
    6   10    3      3.20      0.00
    6   10    4      0.09      0.00
    6   10    5      2.21      0.00
    6   10    6      0.57      0.00
    6   10    7     -1.78      0.00
    6   10    8     -2.44      0.00
    6   10    9      1.63      0.00
    6   10   10      0.41      0.00
    6   10   11     -0.55      0.00
    6   10   12      3.30      0.00
    6   10   13     -3.65      0.00
    6   10   14     -0.29      0.00
    6   10   15      0.19      0.00
    6   10   16      1.13      0.00
    6   10   17     -1.52      0.00
   -6  -11   12     -0.69      0.00
   -6  -11   11      0.38      0.00
   -6  -11   10     -2.08      0.00
   -6  -11    9      2.95      0.00
   -6  -11    8     -2.25      0.00
   -6  -11    7      2.33      0.00
   -6  -11    6     -0.86      0.00
   -6  -11    5     -2.63      0.00
   -6  -11    4      1.71      0.00
   -6  -11    3      0.18      0.00
   -6  -11    2      1.09      0.00
   -6  -11    1     -1.69      0.00
    6   11    0      3.19      0.00
    6   11    1     -9.49      0.00
    6   11    2      7.23      0.00
    6   11    3     -1.28      0.00
    6   11    4      0.39      0.00
    6   11    5      1.28      0.00
    6   11    6     -2.19      0.00
    6   11    7     -0.54      0.00
    6   11    8     -1.12      0.00
    6   11    9      3.85      0.00
    6   11   10     -3.41      0.00
    6   11   11      3.70      0.00
    6   11   12     -4.16      0.00
    6   11   13      1.15      0.00
    6   11   14     -0.45      0.00
    6   11   15      0.15      0.00
    6   11   16      1.19      0.00
    6   11   17      0.52      0.00
   -6  -12   11     -1.20      0.00
   -6  -12   10      1.31      0.00
   -6  -12    9     -0.39      0.00
   -6  -12    8     -0.26      0.00
   -6  -12    7      0.96      0.00
   -6  -12    6     -2.27      0.00
   -6  -12    5      1.12      0.00
   -6  -12    4      0.43      0.00
   -6  -12    3     -0.34      0.00
   -6  -12    2      0.41      0.00
   -6  -12    1     -1.64      0.00
    6   12    0     -2.26      0.00
    6   12    1      3.41      0.00
    6   12    2     -0.43      0.00
    6   12    3     -0.93      0.00
    6   12    4      3.42      0.00
    6   12    5     -5.01      0.00
    6   12    6      0.71      0.00
    6   12    7      0.49      0.00
    6   12    8      2.03      0.00
    6   12    9     -2.96      0.00
    6   12   10      2.52      0.00
    6   12   11     -2.35      0.00
    6   12   12     -0.79      0.00
    6   12   13      1.94      0.00
    6   12   14     -0.46      0.00
    6   12   15      0.85      0.00
    6   12   16     -0.90      0.00
   -6  -13    9     -0.77      0.00
   -6  -13    8      1.55      0.00
   -6  -13    7     -1.72      0.00
   -6  -13    6     -0.20      0.00
   -6  -13    5      2.27      0.00
   -6  -13    4     -3.21      0.00
   -6  -13    3      2.56      0.00
   -6  -13    2     -2.99      0.00
   -6  -13    1      0.95      0.00
    6   13    0     -0.01      0.00
    6   13    1      1.58      0.00
    6   13    2     -0.88      0.00
    6   13    3      0.53      0.00
    6   13    4     -3.27      0.00
    6   13    5      1.30      0.00
    6   13    6      1.49      0.00
    6   13    7     -1.28      0.00
    6   13    8      0.46      0.00
    6   13    9     -0.37      0.00
    6   13   10     -0.70      0.00
    6   13   11     -0.84      0.00
    6   13   12      2.91      0.00
    6   13   13     -1.96      0.00
    6   13   14      0.15      0.00
    6   13   15      1.00      0.00
   -6  -14    8     -1.24      0.00
   -6  -14    7      0.17      0.00
   -6  -14    6      1.40      0.00
   -6  -14    5     -3.12      0.00
   -6  -14    4      2.88      0.00
   -6  -14    3     -2.14      0.00
   -6  -14    2     -0.18      0.00
   -6  -14    1      2.02      0.00
    6   14    0     -1.05      0.00
    6   14    1      0.15      0.00
    6   14    2     -1.63      0.00
    6   14    3      1.05      0.00
    6   14    4     -1.73      0.00
    6   14    5      2.05      0.00
    6   14    6     -0.61      0.00
    6   14    7      0.12      0.00
    6   14    8     -0.47      0.00
    6   14    9     -0.82      0.00
    6   14   10      0.22      0.00
    6   14   11      1.07      0.00
    6   14   12     -0.84      0.00
    6   14   13      0.25      0.00
    6   14   14      0.34      0.00
   -6  -15    6     -0.68      0.00
   -6  -15    5      1.09      0.00
   -6  -15    4     -0.71      0.00
   -6  -15    3     -0.61      0.00
   -6  -15    2      2.18      0.00
   -6  -15    1     -3.06      0.00
    6   15    0      1.80      0.00
    6   15    1     -1.40      0.00
    6   15    2      0.60      0.00
    6   15    3     -1.81      0.00
    6   15    4      2.87      0.00
    6   15    5     -0.58      0.00
    6   15    6     -1.76      0.00
    6   15    7      2.16      0.00
    6   15    8     -2.88      0.00
    6   15    9      1.39      0.00
    6   15   10     -0.13      0.00
    6   15   11      0.08      0.00
    6   15   12     -0.15      0.00
    6   15   13     -0.31      0.00
   -6  -16    3      0.26      0.00
   -6  -16    2     -0.86      0.00
   -6  -16    1     -0.03      0.00
    6   16    0      0.22      0.00
    6   16    1     -0.95      0.00
    6   16    2      1.32      0.00
    6   16    3      0.09      0.00
    6   16    4     -0.97      0.00
    6   16    5     -0.16      0.00
    6   16    6      1.63      0.00
    6   16    7     -2.77      0.00
    6   16    8      0.99      0.00
    6   16    9     -0.01      0.00
    6   16   10     -0.49      0.00
    6   16   11      0.84      0.00
    6   17    1      1.78      0.00
    6   17    2     -1.46      0.00
    6   17    3      0.33      0.00
    6   17    4      0.41      0.00
    6   17    5     -0.73      0.00
    6   17    6     -0.05      0.00
    6   17    7     -0.74      0.00
   -7   14    7      2.46      0.00
   -7   14    6     -0.10      0.00
   -7   14    5     -0.58      0.00
   -7   14    4      0.94      0.00
   -7   14    3     -2.15      0.00
   -7   14    2      0.99      0.00
   -7   14    1      1.33      0.00
   -7   14    0      0.10      0.00
   -7   13   10     -0.22      0.00
   -7   13    9      0.04      0.00
   -7   13    8      2.20      0.00
   -7   13    7     -0.86      0.00
   -7   13    6      0.00      0.00
   -7   13    5      0.56      0.00
   -7   13    4     -3.08      0.00
   -7   13    3      3.13      0.00
   -7   13    2      0.59      0.00
   -7   13    1     -0.46      0.00
   -7   13    0     -0.55      0.00
    7  -13    1     -0.51      0.00
    7  -13    2     -0.83      0.00
    7  -13    3      2.18      0.00
    7  -13    4     -0.12      0.00
   -7   12   12     -0.23      0.00
   -7   12   11     -0.91      0.00
   -7   12   10      0.87      0.00
   -7   12    9      1.65      0.00
   -7   12    8     -0.33      0.00
   -7   12    7     -0.91      0.00
   -7   12    6     -0.60      0.00
   -7   12    5     -0.99      0.00
   -7   12    4      2.83      0.00
   -7   12    3      1.08      0.00
   -7   12    2     -2.29      0.00
   -7   12    1      1.11      0.00
   -7   12    0     -2.34      0.00
    7  -12    1      1.69      0.00
    7  -12    2      0.51      0.00
    7  -12    3      1.39      0.00
    7  -12    4     -1.18      0.00
    7  -12    5     -1.59      0.00
    7  -12    6      0.56      0.00
   -7   11   14     -1.79      0.00
   -7   11   13      0.95      0.00
   -7   11   12     -1.59      0.00
   -7   11   11      1.56      0.00
   -7   11   10      1.74      0.00
   -7   11    9     -1.69      0.00
   -7   11    8     -0.60      0.00
   -7   11    7     -0.91      0.00
   -7   11    6      0.97      0.00
   -7   11    5      0.63      0.00
   -7   11    4      3.14      0.00
   -7   11    3     -4.08      0.00
   -7   11    2      1.75      0.00
   -7   11    1     -2.78      0.00
   -7   11    0      2.33      0.00
    7  -11    1      1.06      0.00
    7  -11    2      1.42      0.00
    7  -11    3     -3.06      0.00
    7  -11    4     -1.01      0.00
    7  -11    5      1.53      0.00
    7  -11    6     -2.00      0.00
    7  -11    7      4.91      0.00
    7  -11    8     -2.43      0.00
   -7   10   15     -2.09      0.00
   -7   10   14      1.16      0.00
   -7   10   13     -0.85      0.00
   -7   10   12      0.95      0.00
   -7   10   11      2.12      0.00
   -7   10   10     -3.47      0.00
   -7   10    9      0.71      0.00
   -7   10    8     -1.26      0.00
   -7   10    7      1.52      0.00
   -7   10    6      1.02      0.00
   -7   10    5      2.47      0.00
   -7   10    4     -4.51      0.00
   -7   10    3      0.50      0.00
   -7   10    2      0.33      0.00
   -7   10    1      0.18      0.00
   -7   10    0      3.70      0.00
    7  -10    1     -2.06      0.00
    7  -10    2     -2.23      0.00
    7  -10    3      0.17      0.00
    7  -10    4      0.36      0.00
    7  -10    5     -0.12      0.00
    7  -10    6      4.22      0.00
    7  -10    7     -3.20      0.00
    7  -10    8     -0.08      0.00
    7  -10    9     -0.35      0.00
    7  -10   10     -0.79      0.00
   -7    9   16     -0.91      0.00
   -7    9   15      0.78      0.00
   -7    9   14      0.16      0.00
   -7    9   13      0.27      0.00
   -7    9   12      1.57      0.00
   -7    9   11     -3.84      0.00
   -7    9   10      0.35      0.00
   -7    9    9      0.97      0.00
   -7    9    8     -0.17      0.00
   -7    9    7      2.98      0.00
   -7    9    6     -0.94      0.00
   -7    9    5     -2.55      0.00
   -7    9    4     -0.78      0.00
   -7    9    3      2.67      0.00
   -7    9    2     -1.31      0.00
   -7    9    1      4.83      0.00
   -7    9    0     -3.40      0.00
    7   -9    1     -2.66      0.00
    7   -9    2      1.17      0.00
    7   -9    3     -0.83      0.00
    7   -9    4      3.78      0.00
    7   -9    5      0.40      0.00
    7   -9    6     -1.61      0.00
    7   -9    7     -2.55      0.00
    7   -9    8      1.50      0.00
    7   -9    9     -0.43      0.00
    7   -9   10      2.48      0.00
    7   -9   11     -0.25      0.00
   -7    8   16      0.15      0.00
   -7    8   15     -0.01      0.00
   -7    8   14      0.65      0.00
   -7    8   13      0.14      0.00
   -7    8   12     -2.54      0.00
   -7    8   11     -1.06      0.00
   -7    8   10      3.44      0.00
   -7    8    9     -2.46      0.00
   -7    8    8      5.27      0.00
   -7    8    7     -3.55      0.00
   -7    8    6     -2.48      0.00
   -7    8    5      0.47      0.00
   -7    8    4      2.01      0.00
   -7    8    3      1.35      0.00
   -7    8    2      1.47      0.00
   -7    8    1     -1.48      0.00
   -7    8    0     -6.43      0.00
    7   -8    1      5.28      0.00
    7   -8    2     -1.69      0.00
    7   -8    3      4.45      0.00
    7   -8    4     -0.91      0.00
    7   -8    5     -1.99      0.00
    7   -8    6     -2.63      0.00
    7   -8    7      2.24      0.00
    7   -8    8      0.37      0.00
    7   -8    9      1.67      0.00
    7   -8   10      0.88      0.00
    7   -8   11     -2.54      0.00
    7   -8   12     -0.29      0.00
   -7    7   17      1.25      0.00
   -7    7   16     -1.14      0.00
   -7    7   15      1.73      0.00
   -7    7   14     -1.50      0.00
   -7    7   13     -1.77      0.00
   -7    7   12     -0.53      0.00
   -7    7   11      3.14      0.00
   -7    7   10     -1.49      0.00
   -7    7    9      3.44      0.00
   -7    7    8     -3.15      0.00
   -7    7    7     -3.68      0.00
   -7    7    6      3.61      0.00
   -7    7    5     -0.13      0.00
   -7    7    4      3.56      0.00
   -7    7    3     -1.44      0.00
   -7    7    2     -0.59      0.00
   -7    7    1     -7.61      0.00
   -7    7    0      7.70      0.00
    7   -7    1     -2.26      0.00
    7   -7    2      3.40      0.00
    7   -7    3      1.71      0.00
    7   -7    4     -6.92      0.00
    7   -7    5      1.22      0.00
    7   -7    6     -0.06      0.00
    7   -7    7      3.46      0.00
    7   -7    8     -0.06      0.00
    7   -7    9      1.54      0.00
    7   -7   10     -4.98      0.00
    7   -7   11      1.55      0.00
    7   -7   12      0.61      0.00
    7   -7   13      0.02      0.00
   -7    6   17     -1.94      0.00
   -7    6   16      1.85      0.00
   -7    6   15     -2.16      0.00
   -7    6   14     -1.29      0.00
   -7    6   13      1.43      0.00
   -7    6   12      0.53      0.00
   -7    6   11      0.77      0.00
   -7    6   10     -0.15      0.00
   -7    6    9     -0.40      0.00
   -7    6    8     -5.02      0.00
   -7    6    7      4.88      0.00
   -7    6    6      0.87      0.00
   -7    6    5      0.78      0.00
   -7    6    4      1.21      0.00
   -7    6    3     -5.49      0.00
   -7    6    2     -2.57      0.00
   -7    6    1      5.03      0.00
   -7    6    0      0.54      0.00
    7   -6    1      2.15      0.00
    7   -6    2      0.73      0.00
    7   -6    3     -8.75      0.00
    7   -6    4      4.04      0.00
    7   -6    5     -0.26      0.00
    7   -6    6      3.88      0.00
    7   -6    7     -0.84      0.00
    7   -6    8      0.72      0.00
    7   -6    9     -4.61      0.00
    7   -6   10      1.88      0.00
    7   -6   11      0.73      0.00
    7   -6   12      0.43      0.00
    7   -6   13      2.01      0.00
    7   -6   14     -1.83      0.00
   -7    5   17     -0.04      0.00
   -7    5   16     -1.28      0.00
   -7    5   15     -0.93      0.00
   -7    5   14      1.47      0.00
   -7    5   13      0.33      0.00
   -7    5   12      0.39      0.00
   -7    5   11     -0.42      0.00
   -7    5   10     -1.30      0.00
   -7    5    9     -3.13      0.00
   -7    5    8      4.68      0.00
   -7    5    7      2.47      0.00
   -7    5    6     -3.80      0.00
   -7    5    5      5.63      0.00
   -7    5    4    -11.46      0.00
   -7    5    3      3.75      0.00
   -7    5    2      2.55      0.00
   -7    5    1      2.50      0.00
   -7    5    0      0.83      0.00
    7   -5    1     -3.19      0.00
    7   -5    2     -3.40      0.00
    7   -5    3     -0.73      0.00
    7   -5    4      5.59      0.00
    7   -5    5     -0.50      0.00
    7   -5    6      2.07      0.00
    7   -5    7     -2.61      0.00
    7   -5    8     -3.39      0.00
    7   -5    9      2.16      0.00
    7   -5   10      1.69      0.00
    7   -5   11      0.58      0.00
    7   -5   12      0.54      0.00
    7   -5   13     -1.34      0.00
    7   -5   14     -0.81      0.00
    7   -5   15      0.61      0.00
   -7    4   18     -2.01      0.00
   -7    4   17      0.21      0.00
   -7    4   16     -0.78      0.00
   -7    4   15      0.35      0.00
   -7    4   14      2.59      0.00
   -7    4   13     -3.08      0.00
   -7    4   12      2.12      0.00
   -7    4   11     -4.25      0.00
   -7    4   10      1.04      0.00
   -7    4    9      3.21      0.00
   -7    4    8      1.73      0.00
   -7    4    7     -3.02      0.00
   -7    4    6      2.90      0.00
   -7    4    5     -9.85      0.00
   -7    4    4      4.77      0.00
   -7    4    3      4.79      0.00
   -7    4    2     -1.27      0.00
   -7    4    1      2.13      0.00
   -7    4    0     -5.35      0.00
    7   -4    1     -1.40      0.00
    7   -4    2     -3.10      0.00
    7   -4    3     11.89      0.00
    7   -4    4     -5.86      0.00
    7   -4    5      3.80      0.00
    7   -4    6     -4.68      0.00
    7   -4    7     -2.84      0.00
    7   -4    8      4.24      0.00
    7   -4    9      0.50      0.00
    7   -4   10      1.63      0.00
    7   -4   11     -1.31      0.00
    7   -4   12     -0.21      0.00
    7   -4   13     -2.47      0.00
    7   -4   14      2.65      0.00
    7   -4   15      0.33      0.00
   -7    3   18      0.03      0.00
   -7    3   17     -0.46      0.00
   -7    3   16     -0.03      0.00
   -7    3   15      2.49      0.00
   -7    3   14     -4.00      0.00
   -7    3   13      3.41      0.00
   -7    3   12     -4.69      0.00
   -7    3   11      1.18      0.00
   -7    3   10      4.51      0.00
   -7    3    9     -1.13      0.00
   -7    3    8      0.32      0.00
   -7    3    7     -3.57      0.00
   -7    3    6     -1.96      0.00
   -7    3    5      0.28      0.00
   -7    3    4      8.69      0.00
   -7    3    3     -4.94      0.00
   -7    3    2      2.70      0.00
   -7    3    1     -5.72      0.00
   -7    3    0     -4.57      0.00
    7   -3    1      6.17      0.00
    7   -3    2      5.51      0.00
    7   -3    3     -4.07      0.00
    7   -3    4      1.62      0.00
    7   -3    5     -3.59      0.00
    7   -3    6     -4.49      0.00
    7   -3    7      7.48      0.00
    7   -3    8     -0.63      0.00
    7   -3    9      1.63      0.00
    7   -3   10     -2.07      0.00
    7   -3   11     -0.74      0.00
    7   -3   12     -1.83      0.00
    7   -3   13      3.96      0.00
    7   -3   14     -0.47      0.00
    7   -3   15     -0.42      0.00
    7   -3   16      1.02      0.00
   -7    2   18      0.11      0.00
   -7    2   17      0.61      0.00
   -7    2   16      0.45      0.00
   -7    2   15     -1.40      0.00
   -7    2   14      0.44      0.00
   -7    2   13     -2.02      0.00
   -7    2   12     -0.22      0.00
   -7    2   11      7.01      0.00
   -7    2   10     -5.65      0.00
   -7    2    9      2.81      0.00
   -7    2    8     -4.77      0.00
   -7    2    7      0.19      0.00
   -7    2    6     -0.17      0.00
   -7    2    5      9.25      0.00
   -7    2    4     -5.45      0.00
   -7    2    3     -1.50      0.00
   -7    2    2     -1.82      0.00
   -7    2    1     -6.28      0.00
   -7    2    0     13.05      0.00
    7   -2    1     -3.78      0.00
    7   -2    2      3.16      0.00
    7   -2    3     -4.52      0.00
    7   -2    4     -2.71      0.00
    7   -2    5     -2.55      0.00
    7   -2    6      8.46      0.00
    7   -2    7     -0.93      0.00
    7   -2    8     -0.80      0.00
    7   -2    9      0.47      0.00
    7   -2   10     -3.82      0.00
    7   -2   11      1.45      0.00
    7   -2   12      2.44      0.00
    7   -2   13      0.18      0.00
    7   -2   14     -0.21      0.00
    7   -2   15      0.28      0.00
    7   -2   16     -3.08      0.00
    7   -2   17      1.61      0.00
   -7    1   18      1.21      0.00
   -7    1   17     -1.05      0.00
   -7    1   16     -0.41      0.00
   -7    1   15     -0.76      0.00
   -7    1   14      0.36      0.00
   -7    1   13     -0.49      0.00
   -7    1   12      4.62      0.00
   -7    1   11     -4.92      0.00
   -7    1   10      2.85      0.00
   -7    1    9     -3.18      0.00
   -7    1    8     -2.67      0.00
   -7    1    7      5.75      0.00
   -7    1    6      3.57      0.00
   -7    1    5     -4.44      0.00
   -7    1    4     -2.60      0.00
   -7    1    3      0.26      0.00
   -7    1    2     -5.66      0.00
   -7    1    1     11.83      0.00
   -7    1    0     -0.37      0.00
    7   -1    1     -2.06      0.00
    7   -1    2     -4.42      0.00
    7   -1    3     -2.67      0.00
    7   -1    4      1.84      0.00
    7   -1    5      5.37      0.00
    7   -1    6      0.64      0.00
    7   -1    7     -2.51      0.00
    7   -1    8      0.55      0.00
    7   -1    9     -4.94      0.00
    7   -1   10      4.19      0.00
    7   -1   11      1.60      0.00
    7   -1   12      0.12      0.00
    7   -1   13     -0.65      0.00
    7   -1   14     -0.80      0.00
    7   -1   15     -1.41      0.00
    7   -1   16      1.59      0.00
    7   -1   17      0.13      0.00
   -7    0   18     -0.81      0.00
   -7    0   17     -1.21      0.00
   -7    0   16      1.13      0.00
   -7    0   15     -2.01      0.00
   -7    0   14      2.33      0.00
   -7    0   13      1.21      0.00
   -7    0   12     -1.24      0.00
   -7    0   11     -1.75      0.00
   -7    0   10     -0.31      0.00
   -7    0    9     -1.60      0.00
   -7    0    8      6.63      0.00
   -7    0    7     -0.47      0.00
   -7    0    6     -4.16      0.00
   -7    0    5      0.61      0.00
   -7    0    4     -4.27      0.00
   -7    0    3      1.53      0.00
   -7    0    2      7.22      0.00
   -7    0    1      2.95      0.00
    7    0    0    -11.97      0.00
    7    0    1      5.85      0.00
    7    0    2     -7.52      0.00
    7    0    3      4.27      0.00
    7    0    4      6.07      0.00
    7    0    5     -1.05      0.00
    7    0    6     -2.48      0.00
    7    0    7     -2.57      0.00
    7    0    8      0.07      0.00
    7    0    9      1.44      0.00
    7    0   10      4.09      0.00
    7    0   11     -2.57      0.00
    7    0   12      0.30      0.00
    7    0   13     -1.44      0.00
    7    0   14     -0.40      0.00
    7    0   15      1.34      0.00
    7    0   16      0.63      0.00
    7    0   17     -0.15      0.00
   -7   -1   17      1.83      0.00
   -7   -1   16     -3.20      0.00
   -7   -1   15      4.69      0.00
   -7   -1   14     -1.84      0.00
   -7   -1   13     -0.32      0.00
   -7   -1   12     -2.37      0.00
   -7   -1   11      1.89      0.00
   -7   -1   10     -1.03      0.00
   -7   -1    9      2.78      0.00
   -7   -1    8      2.77      0.00
   -7   -1    7     -7.38      0.00
   -7   -1    6      3.54      0.00
   -7   -1    5     -6.33      0.00
   -7   -1    4      7.22      0.00
   -7   -1    3      2.07      0.00
   -7   -1    2      1.03      0.00
   -7   -1    1     -9.01      0.00
    7    1    0      5.22      0.00
    7    1    1     -8.16      0.00
    7    1    2      7.01      0.00
    7    1    3      7.54      0.00
    7    1    4     -7.65      0.00
    7    1    5      0.83      0.00
    7    1    6     -4.35      0.00
    7    1    7      3.23      0.00
    7    1    8     -1.00      0.00
    7    1    9      7.19      0.00
    7    1   10     -5.77      0.00
    7    1   11      0.85      0.00
    7    1   12     -1.41      0.00
    7    1   13     -0.61      0.00
    7    1   14      3.50      0.00
    7    1   15     -0.39      0.00
    7    1   16     -0.44      0.00
    7    1   17     -1.08      0.00
    7    1   18      0.32      0.00
   -7   -2   17     -0.96      0.00
   -7   -2   16      2.26      0.00
   -7   -2   15     -1.19      0.00
   -7   -2   14     -0.69      0.00
   -7   -2   13     -0.65      0.00
   -7   -2   12      0.03      0.00
   -7   -2   11     -0.10      0.00
   -7   -2   10      3.48      0.00
   -7   -2    9      1.73      0.00
   -7   -2    8     -9.00      0.00
   -7   -2    7      4.77      0.00
   -7   -2    6     -2.68      0.00
   -7   -2    5      3.63      0.00
   -7   -2    4      4.28      0.00
   -7   -2    3     -4.21      0.00
   -7   -2    2     -3.44      0.00
   -7   -2    1     -1.95      0.00
    7    2    0      2.69      0.00
    7    2    1      2.70      0.00
    7    2    2      5.25      0.00
    7    2    3     -8.11      0.00
    7    2    4      0.89      0.00
    7    2    5     -2.11      0.00
    7    2    6      0.70      0.00
    7    2    7      3.64      0.00
    7    2    8      3.05      0.00
    7    2    9     -4.91      0.00
    7    2   10     -0.15      0.00
    7    2   11     -0.13      0.00
    7    2   12     -1.06      0.00
    7    2   13      4.94      0.00
    7    2   14     -1.89      0.00
    7    2   15      0.03      0.00
    7    2   16     -1.16      0.00
    7    2   17     -0.08      0.00
    7    2   18     -0.61      0.00
   -7   -3   17     -0.59      0.00
   -7   -3   16      0.61      0.00
   -7   -3   15     -2.07      0.00
   -7   -3   14      0.72      0.00
   -7   -3   13      0.09      0.00
   -7   -3   12      0.35      0.00
   -7   -3   11      3.30      0.00
   -7   -3   10     -2.98      0.00
   -7   -3    9     -2.50      0.00
   -7   -3    8      1.59      0.00
   -7   -3    7      0.38      0.00
   -7   -3    6     -0.81      0.00
   -7   -3    5      8.97      0.00
   -7   -3    4    -10.51      0.00
   -7   -3    3      0.19      0.00
   -7   -3    2     -1.06      0.00
   -7   -3    1      4.55      0.00
    7    3    0     -0.80      0.00
    7    3    1      5.86      0.00
    7    3    2     -6.75      0.00
    7    3    3     -4.47      0.00
    7    3    4      4.89      0.00
    7    3    5     -3.61      0.00
    7    3    6      9.05      0.00
    7    3    7     -3.79      0.00
    7    3    8     -1.35      0.00
    7    3    9     -2.24      0.00
    7    3   10      1.14      0.00
    7    3   11      0.30      0.00
    7    3   12      3.29      0.00
    7    3   13     -0.75      0.00
    7    3   14     -1.78      0.00
    7    3   15      0.32      0.00
    7    3   16     -1.24      0.00
    7    3   17      0.97      0.00
    7    3   18      0.97      0.00
   -7   -4   16     -1.59      0.00
   -7   -4   15      1.07      0.00
   -7   -4   14      0.65      0.00
   -7   -4   13     -0.74      0.00
   -7   -4   12      2.97      0.00
   -7   -4   11     -3.20      0.00
   -7   -4   10     -0.40      0.00
   -7   -4    9     -1.07      0.00
   -7   -4    8      2.39      0.00
   -7   -4    7      0.29      0.00
   -7   -4    6      5.22      0.00
   -7   -4    5     -9.58      0.00
   -7   -4    4      1.17      0.00
   -7   -4    3      1.63      0.00
   -7   -4    2     -0.17      0.00
   -7   -4    1      4.66      0.00
    7    4    0      1.61      0.00
    7    4    1     -8.93      0.00
    7    4    2     -1.23      0.00
    7    4    3      6.58      0.00
    7    4    4     -4.76      0.00
    7    4    5      8.45      0.00
    7    4    6     -4.54      0.00
    7    4    7     -2.53      0.00
    7    4    8     -0.33      0.00
    7    4    9      1.30      0.00
    7    4   10      1.42      0.00
    7    4   11      0.74      0.00
    7    4   12      0.87      0.00
    7    4   13     -4.00      0.00
    7    4   14      2.64      0.00
    7    4   15     -2.24      0.00
    7    4   16      2.10      0.00
    7    4   17     -0.01      0.00
    7    4   18     -0.22      0.00
   -7   -5   16      0.10      0.00
   -7   -5   15      1.11      0.00
   -7   -5   14     -0.86      0.00
   -7   -5   13      2.01      0.00
   -7   -5   12     -2.72      0.00
   -7   -5   11     -1.98      0.00
   -7   -5   10      3.53      0.00
   -7   -5    9     -0.98      0.00
   -7   -5    8      2.25      0.00
   -7   -5    7     -0.84      0.00
   -7   -5    6     -2.02      0.00
   -7   -5    5     -2.55      0.00
   -7   -5    4      3.60      0.00
   -7   -5    3     -0.38      0.00
   -7   -5    2      3.84      0.00
   -7   -5    1     -0.90      0.00
    7    5    0     -8.26      0.00
    7    5    1      5.25      0.00
    7    5    2     -1.72      0.00
    7    5    3      2.40      0.00
    7    5    4      2.70      0.00
    7    5    5     -1.53      0.00
    7    5    6     -6.57      0.00
    7    5    7      4.74      0.00
    7    5    8     -0.77      0.00
    7    5    9      1.90      0.00
    7    5   10      1.53      0.00
    7    5   11     -2.17      0.00
    7    5   12     -2.44      0.00
    7    5   13      1.71      0.00
    7    5   14      0.19      0.00
    7    5   15      1.34      0.00
    7    5   16     -0.19      0.00
    7    5   17     -1.09      0.00
    7    5   18      0.02      0.00
   -7   -6   15     -0.92      0.00
   -7   -6   14      1.16      0.00
   -7   -6   13     -2.05      0.00
   -7   -6   12     -1.01      0.00
   -7   -6   11      4.25      0.00
   -7   -6   10     -4.00      0.00
   -7   -6    9      4.83      0.00
   -7   -6    8     -2.92      0.00
   -7   -6    7     -0.31      0.00
   -7   -6    6     -4.14      0.00
   -7   -6    5      6.49      0.00
   -7   -6    4     -0.80      0.00
   -7   -6    3     -0.90      0.00
   -7   -6    2      3.19      0.00
   -7   -6    1    -10.50      0.00
    7    6    0      8.59      0.00
    7    6    1     -4.79      0.00
    7    6    2      7.52      0.00
    7    6    3     -4.25      0.00
    7    6    4      0.60      0.00
    7    6    5     -6.02      0.00
    7    6    6      5.57      0.00
    7    6    7     -0.46      0.00
    7    6    8      1.36      0.00
    7    6    9      1.70      0.00
    7    6   10     -6.00      0.00
    7    6   11      2.30      0.00
    7    6   12     -1.13      0.00
    7    6   13      3.47      0.00
    7    6   14     -1.50      0.00
    7    6   15      1.07      0.00
    7    6   16     -1.29      0.00
    7    6   17     -0.67      0.00
    7    6   18      0.10      0.00
   -7   -7   15      0.71      0.00
   -7   -7   14     -1.53      0.00
   -7   -7   13      0.71      0.00
   -7   -7   12      1.37      0.00
   -7   -7   11     -0.85      0.00
   -7   -7   10      1.58      0.00
   -7   -7    9     -1.75      0.00
   -7   -7    8     -1.79      0.00
   -7   -7    7     -0.03      0.00
   -7   -7    6      4.79      0.00
   -7   -7    5     -3.25      0.00
   -7   -7    4      1.12      0.00
   -7   -7    3      1.42      0.00
   -7   -7    2     -8.97      0.00
   -7   -7    1      9.17      0.00
    7    7    0     -3.02      0.00
    7    7    1      3.32      0.00
    7    7    2     -2.80      0.00
    7    7    3     -0.35      0.00
    7    7    4     -3.62      0.00
    7    7    5      3.14      0.00
    7    7    6      3.04      0.00
    7    7    7     -1.98      0.00
    7    7    8      1.52      0.00
    7    7    9     -4.43      0.00
    7    7   10      1.31      0.00
    7    7   11     -0.34      0.00
    7    7   12      3.26      0.00
    7    7   13     -1.05      0.00
    7    7   14      0.64      0.00
    7    7   15     -1.91      0.00
    7    7   16     -1.32      0.00
    7    7   17      1.88      0.00
    7    7   18     -0.35      0.00
   -7   -8   14      1.14      0.00
   -7   -8   13     -0.24      0.00
   -7   -8   12      0.93      0.00
   -7   -8   11     -2.13      0.00
   -7   -8   10      2.04      0.00
   -7   -8    9     -3.69      0.00
   -7   -8    8      2.10      0.00
   -7   -8    7      2.29      0.00
   -7   -8    6     -2.73      0.00
   -7   -8    5      3.67      0.00
   -7   -8    4     -5.16      0.00
   -7   -8    3     -0.15      0.00
   -7   -8    2      2.92      0.00
   -7   -8    1      1.35      0.00
    7    8    0     -1.44      0.00
    7    8    1      0.89      0.00
    7    8    2     -4.05      0.00
    7    8    3     -0.90      0.00
    7    8    4      4.23      0.00
    7    8    5      1.54      0.00
    7    8    6     -3.10      0.00
    7    8    7      2.08      0.00
    7    8    8     -2.87      0.00
    7    8    9     -2.24      0.00
    7    8   10      5.56      0.00
    7    8   11     -1.49      0.00
    7    8   12      0.77      0.00
    7    8   13     -1.58      0.00
    7    8   14     -0.57      0.00
    7    8   15     -0.22      0.00
    7    8   16      1.00      0.00
    7    8   17     -0.41      0.00
   -7   -9   13      0.10      0.00
   -7   -9   12     -1.52      0.00
   -7   -9   11      1.84      0.00
   -7   -9   10     -3.15      0.00
   -7   -9    9      2.46      0.00
   -7   -9    8      1.81      0.00
   -7   -9    7     -3.06      0.00
   -7   -9    6      2.94      0.00
   -7   -9    5     -4.59      0.00
   -7   -9    4      2.97      0.00
   -7   -9    3     -1.73      0.00
   -7   -9    2      4.75      0.00
   -7   -9    1     -4.29      0.00
    7    9    0      1.21      0.00
    7    9    1     -3.01      0.00
    7    9    2     -0.28      0.00
    7    9    3      5.36      0.00
    7    9    4     -3.13      0.00
    7    9    5      1.68      0.00
    7    9    6     -0.94      0.00
    7    9    7     -2.59      0.00
    7    9    8     -0.39      0.00
    7    9    9      5.87      0.00
    7    9   10     -4.58      0.00
    7    9   11      1.86      0.00
    7    9   12     -0.97      0.00
    7    9   13     -1.21      0.00
    7    9   14      0.50      0.00
    7    9   15      0.28      0.00
    7    9   16      1.72      0.00
    7    9   17     -1.45      0.00
   -7  -10   12      0.07      0.00
   -7  -10   11     -0.53      0.00
   -7  -10   10      0.64      0.00
   -7  -10    9      1.71      0.00
   -7  -10    8     -2.93      0.00
   -7  -10    7      2.40      0.00
   -7  -10    6     -1.78      0.00
   -7  -10    5     -1.12      0.00
   -7  -10    4      2.48      0.00
   -7  -10    3      0.92      0.00
   -7  -10    2     -3.06      0.00
   -7  -10    1      0.50      0.00
    7   10    0     -0.74      0.00
    7   10    1     -1.52      0.00
    7   10    2      5.78      0.00
    7   10    3     -3.62      0.00
    7   10    4      2.25      0.00
    7   10    5     -3.56      0.00
    7   10    6     -0.27      0.00
    7   10    7      2.09      0.00
    7   10    8      0.59      0.00
    7   10    9     -1.06      0.00
    7   10   10     -0.40      0.00
    7   10   11      0.56      0.00
    7   10   12     -2.68      0.00
    7   10   13      2.65      0.00
    7   10   14      0.39      0.00
    7   10   15      0.06      0.00
    7   10   16     -1.43      0.00
    7   10   17      0.93      0.00
   -7  -11   11     -0.42      0.00
   -7  -11   10      1.32      0.00
   -7  -11    9     -2.09      0.00
   -7  -11    8      1.74      0.00
   -7  -11    7     -0.97      0.00
   -7  -11    6     -1.87      0.00
   -7  -11    5      4.66      0.00
   -7  -11    4     -3.84      0.00
   -7  -11    3      0.56      0.00
   -7  -11    2     -0.27      0.00
   -7  -11    1     -0.78      0.00
    7   11    0      0.15      0.00
    7   11    1      3.71      0.00
    7   11    2     -2.30      0.00
    7   11    3     -1.47      0.00
    7   11    4      0.65      0.00
    7   11    5     -1.30      0.00
    7   11    6      1.80      0.00
    7   11    7     -0.67      0.00
    7   11    8      1.23      0.00
    7   11    9     -2.77      0.00
    7   11   10      1.64      0.00
    7   11   11     -1.62      0.00
    7   11   12      1.92      0.00
    7   11   13      0.44      0.00
    7   11   14     -1.57      0.00
    7   11   15      1.17      0.00
    7   11   16     -1.22      0.00
   -7  -12   10     -0.59      0.00
   -7  -12    9      0.70      0.00
   -7  -12    8     -0.76      0.00
   -7  -12    7     -0.29      0.00
   -7  -12    6      1.39      0.00
   -7  -12    5     -1.59      0.00
   -7  -12    4     -0.06      0.00
   -7  -12    3      0.57      0.00
   -7  -12    2     -1.86      0.00
   -7  -12    1      2.47      0.00
    7   12    0      0.41      0.00
    7   12    1     -1.15      0.00
    7   12    2     -2.01      0.00
    7   12    3      2.54      0.00
    7   12    4     -3.75      0.00
    7   12    5      3.31      0.00
    7   12    6      0.65      0.00
    7   12    7     -1.82      0.00
    7   12    8     -0.79      0.00
    7   12    9      0.68      0.00
    7   12   10      0.11      0.00
    7   12   11     -0.15      0.00
    7   12   12      1.80      0.00
    7   12   13     -2.68      0.00
    7   12   14      1.16      0.00
    7   12   15     -1.15      0.00
   -7  -13    8     -0.24      0.00
   -7  -13    7     -0.43      0.00
   -7  -13    6      1.15      0.00
   -7  -13    5     -2.49      0.00
   -7  -13    4      2.63      0.00
   -7  -13    3     -2.51      0.00
   -7  -13    2      2.38      0.00
   -7  -13    1     -0.56      0.00
    7   13    0     -1.54      0.00
    7   13    1      0.37      0.00
    7   13    2     -0.64      0.00
    7   13    3     -0.24      0.00
    7   13    4      2.13      0.00
    7   13    5      0.04      0.00
    7   13    6     -2.76      0.00
    7   13    7      1.53      0.00
    7   13    8     -0.61      0.00
    7   13    9     -0.20      0.00
    7   13   10      0.20      0.00
    7   13   11      1.40      0.00
    7   13   12     -2.45      0.00
    7   13   13      1.09      0.00
    7   13   14     -0.02      0.00
   -7  -14    7      0.33      0.00
   -7  -14    6     -1.55      0.00
   -7  -14    5      2.18      0.00
   -7  -14    4     -1.86      0.00
   -7  -14    3      0.77      0.00
   -7  -14    2      0.27      0.00
   -7  -14    1     -2.21      0.00
    7   14    0      1.81      0.00
    7   14    1     -1.99      0.00
    7   14    2      2.68      0.00
    7   14    3     -1.66      0.00
    7   14    4      1.30      0.00
    7   14    5     -1.27      0.00
    7   14    6     -0.42      0.00
    7   14    7      0.69      0.00
    7   14    8     -2.45      0.00
    7   14    9      3.16      0.00
    7   14   10     -1.04      0.00
    7   14   11     -0.47      0.00
    7   14   12      0.45      0.00
    7   14   13     -0.53      0.00
   -7  -15    4     -0.29      0.00
   -7  -15    3      0.63      0.00
   -7  -15    2     -1.93      0.00
   -7  -15    1      1.31      0.00
    7   15    0      0.04      0.00
    7   15    1      0.19      0.00
    7   15    2     -0.61      0.00
    7   15    3      1.30      0.00
    7   15    4     -1.90      0.00
    7   15    5     -0.61      0.00
    7   15    6      2.24      0.00
    7   15    7     -3.94      0.00
    7   15    8      4.32      0.00
    7   15    9     -2.65      0.00
    7   15   10      1.38      0.00
    7   15   11      0.06      0.00
   -7  -16    1      0.64      0.00
    7   16    0     -1.71      0.00
    7   16    1      2.20      0.00
    7   16    2     -1.82      0.00
    7   16    3     -0.85      0.00
    7   16    4      1.51      0.00
    7   16    5     -0.50      0.00
    7   16    6     -1.76      0.00
    7   16    7      2.56      0.00
    7   16    8     -1.33      0.00
    7   16    9      0.85      0.00
   -8   13    7     -0.78      0.00
   -8   13    6      0.82      0.00
   -8   13    5     -0.33      0.00
   -8   13    4      2.95      0.00
   -8   13    3     -3.73      0.00
   -8   13    2      1.12      0.00
   -8   13    1      0.34      0.00
   -8   13    0     -0.47      0.00
   -8   12   10     -1.98      0.00
   -8   12    9      0.16      0.00
   -8   12    8     -1.18      0.00
   -8   12    7      1.62      0.00
   -8   12    6      0.38      0.00
   -8   12    5      0.88      0.00
   -8   12    4     -1.93      0.00
   -8   12    3      0.24      0.00
   -8   12    2     -0.13      0.00
   -8   12    1      0.22      0.00
   -8   12    0      2.25      0.00
    8  -12    1     -1.45      0.00
    8  -12    2     -0.89      0.00
    8  -12    3     -0.54      0.00
    8  -12    4      1.06      0.00
   -8   11   12      0.44      0.00
   -8   11   11     -1.20      0.00
   -8   11   10     -1.51      0.00
   -8   11    9      1.24      0.00
   -8   11    8      0.60      0.00
   -8   11    7      0.70      0.00
   -8   11    6     -0.18      0.00
   -8   11    5     -0.43      0.00
   -8   11    4     -2.17      0.00
   -8   11    3      1.91      0.00
   -8   11    2      1.19      0.00
   -8   11    1     -0.33      0.00
   -8   11    0      0.05      0.00
    8  -11    1     -1.65      0.00
    8  -11    2      0.06      0.00
    8  -11    3      0.80      0.00
    8  -11    4      0.97      0.00
    8  -11    5      0.17      0.00
    8  -11    6      0.02      0.00
   -8   10   13     -0.67      0.00
   -8   10   12     -0.42      0.00
   -8   10   11     -2.21      0.00
   -8   10   10      3.04      0.00
   -8   10    9     -0.58      0.00
   -8   10    8      1.01      0.00
   -8   10    7     -0.31      0.00
   -8   10    6     -2.03      0.00
   -8   10    5     -0.77      0.00
   -8   10    4      3.02      0.00
   -8   10    3      0.62      0.00
   -8   10    2     -1.79      0.00
   -8   10    1      2.36      0.00
   -8   10    0     -4.80      0.00
    8  -10    1      2.08      0.00
    8  -10    2      1.58      0.00
    8  -10    3      0.21      0.00
    8  -10    4      0.21      0.00
    8  -10    5     -1.23      0.00
    8  -10    6     -1.13      0.00
    8  -10    7      0.75      0.00
    8  -10    8      1.07      0.00
   -8    9   14     -0.10      0.00
   -8    9   13     -1.02      0.00
   -8    9   12     -1.16      0.00
   -8    9   11      2.42      0.00
   -8    9   10      0.71      0.00
   -8    9    9     -1.10      0.00
   -8    9    8      0.66      0.00
   -8    9    7     -3.60      0.00
   -8    9    6      1.79      0.00
   -8    9    5      2.12      0.00
   -8    9    4      0.20      0.00
   -8    9    3     -0.45      0.00
   -8    9    2      0.01      0.00
   -8    9    1     -4.13      0.00
   -8    9    0      2.64      0.00
    8   -9    1      2.70      0.00
    8   -9    2     -1.53      0.00
    8   -9    3      1.61      0.00
    8   -9    4     -3.11      0.00
    8   -9    5     -0.21      0.00
    8   -9    6      0.51      0.00
    8   -9    7      2.82      0.00
    8   -9    8     -1.22      0.00
    8   -9    9      0.69      0.00
   -8    8   15      0.49      0.00
   -8    8   14     -2.19      0.00
   -8    8   13      1.03      0.00
   -8    8   12      0.89      0.00
   -8    8   11      1.50      0.00
   -8    8   10     -2.70      0.00
   -8    8    9      1.72      0.00
   -8    8    8     -4.16      0.00
   -8    8    7      2.12      0.00
   -8    8    6      3.37      0.00
   -8    8    5     -1.27      0.00
   -8    8    4      0.78      0.00
   -8    8    3     -3.56      0.00
   -8    8    2     -0.27      0.00
   -8    8    1      0.82      0.00
   -8    8    0      4.66      0.00
    8   -8    1     -3.08      0.00
    8   -8    2      1.33      0.00
    8   -8    3     -2.77      0.00
    8   -8    4     -1.02      0.00
    8   -8    5      2.90      0.00
    8   -8    6      1.23      0.00
    8   -8    7     -0.75      0.00
    8   -8    8      0.16      0.00
    8   -8    9     -1.39      0.00
    8   -8   10     -1.02      0.00
    8   -8   11      2.26      0.00
   -8    7   15     -1.69      0.00
   -8    7   14      1.41      0.00
   -8    7   13      0.77      0.00
   -8    7   12      0.10      0.00
   -8    7   11     -1.70      0.00
   -8    7   10      0.16      0.00
   -8    7    9     -1.87      0.00
   -8    7    8      1.50      0.00
   -8    7    7      4.21      0.00
   -8    7    6     -3.48      0.00
   -8    7    5      1.00      0.00
   -8    7    4     -2.85      0.00
   -8    7    3     -0.28      0.00
   -8    7    2      1.87      0.00
   -8    7    1      3.72      0.00
   -8    7    0     -2.84      0.00
    8   -7    1     -0.06      0.00
    8   -7    2     -1.11      0.00
    8   -7    3     -3.17      0.00
    8   -7    4      6.64      0.00
    8   -7    5     -1.73      0.00
    8   -7    6      0.98      0.00
    8   -7    7     -1.87      0.00
    8   -7    8     -0.86      0.00
    8   -7    9     -0.53      0.00
    8   -7   10      3.36      0.00
    8   -7   11     -1.04      0.00
    8   -7   12      0.64      0.00
   -8    6   16     -0.46      0.00
   -8    6   15      0.04      0.00
   -8    6   14      2.31      0.00
   -8    6   13     -2.55      0.00
   -8    6   12     -0.05      0.00
   -8    6   11     -0.78      0.00
   -8    6   10      0.04      0.00
   -8    6    9      1.07      0.00
   -8    6    8      3.15      0.00
   -8    6    7     -2.83      0.00
   -8    6    6     -1.43      0.00
   -8    6    5      0.52      0.00
   -8    6    4     -3.40      0.00
   -8    6    3      6.92      0.00
   -8    6    2     -0.41      0.00
   -8    6    1     -1.59      0.00
   -8    6    0     -1.77      0.00
    8   -6    1     -1.07      0.00
    8   -6    2     -0.69      0.00
    8   -6    3      6.42      0.00
    8   -6    4     -2.27      0.00
    8   -6    5     -0.65      0.00
    8   -6    6     -1.18      0.00
    8   -6    7     -0.77      0.00
    8   -6    8      0.68      0.00
    8   -6    9      2.51      0.00
    8   -6   10     -0.53      0.00
    8   -6   11      0.15      0.00
    8   -6   12     -0.41      0.00
    8   -6   13     -1.05      0.00
   -8    5   16     -0.72      0.00
   -8    5   15      2.10      0.00
   -8    5   14     -3.15      0.00
   -8    5   13      0.58      0.00
   -8    5   12     -0.06      0.00
   -8    5   11     -1.18      0.00
   -8    5   10      3.55      0.00
   -8    5    9      0.46      0.00
   -8    5    8     -2.19      0.00
   -8    5    7     -3.21      0.00
   -8    5    6      3.25      0.00
   -8    5    5     -4.02      0.00
   -8    5    4      8.33      0.00
   -8    5    3     -2.30      0.00
   -8    5    2     -2.89      0.00
   -8    5    1     -0.36      0.00
   -8    5    0     -2.34      0.00
    8   -5    1      3.50      0.00
    8   -5    2      1.95      0.00
    8   -5    3      1.42      0.00
    8   -5    4     -4.76      0.00
    8   -5    5      1.25      0.00
    8   -5    6     -2.51      0.00
    8   -5    7      2.39      0.00
    8   -5    8      3.39      0.00
    8   -5    9     -1.52      0.00
    8   -5   10     -0.98      0.00
    8   -5   11     -0.45      0.00
    8   -5   12     -0.04      0.00
    8   -5   13      0.95      0.00
    8   -5   14      0.98      0.00
   -8    4   17     -0.83      0.00
   -8    4   16      0.57      0.00
   -8    4   15     -0.94      0.00
   -8    4   14     -0.90      0.00
   -8    4   13      0.91      0.00
   -8    4   12     -1.53      0.00
   -8    4   11      4.50      0.00
   -8    4   10     -1.49      0.00
   -8    4    9     -2.61      0.00
   -8    4    8     -0.86      0.00
   -8    4    7      0.84      0.00
   -8    4    6     -0.51      0.00
   -8    4    5      5.45      0.00
   -8    4    4     -0.40      0.00
   -8    4    3     -7.01      0.00
   -8    4    2      3.38      0.00
   -8    4    1     -3.60      0.00
   -8    4    0      4.83      0.00
    8   -4    1      2.08      0.00
    8   -4    2      0.51      0.00
    8   -4    3     -6.81      0.00
    8   -4    4      2.26      0.00
    8   -4    5     -1.43      0.00
    8   -4    6      2.76      0.00
    8   -4    7      4.12      0.00
    8   -4    8     -4.60      0.00
    8   -4    9      0.93      0.00
    8   -4   10     -1.17      0.00
    8   -4   11      0.44      0.00
    8   -4   12      0.93      0.00
    8   -4   13      2.04      0.00
    8   -4   14     -1.79      0.00
   -8    3   17     -0.11      0.00
   -8    3   16     -0.28      0.00
   -8    3   15     -1.29      0.00
   -8    3   14      1.60      0.00
   -8    3   13     -0.88      0.00
   -8    3   12      1.62      0.00
   -8    3   11      0.70      0.00
   -8    3   10     -4.76      0.00
   -8    3    9      2.71      0.00
   -8    3    8     -2.75      0.00
   -8    3    7      3.76      0.00
   -8    3    6      1.99      0.00
   -8    3    5     -0.48      0.00
   -8    3    4     -6.82      0.00
   -8    3    3      4.02      0.00
   -8    3    2     -2.33      0.00
   -8    3    1      3.37      0.00
   -8    3    0      5.46      0.00
    8   -3    1     -6.96      0.00
    8   -3    2     -1.81      0.00
    8   -3    3      0.62      0.00
    8   -3    4      0.37      0.00
    8   -3    5      2.12      0.00
    8   -3    6      4.26      0.00
    8   -3    7     -5.43      0.00
    8   -3    8      0.85      0.00
    8   -3    9     -1.32      0.00
    8   -3   10      0.68      0.00
    8   -3   11      2.73      0.00
    8   -3   12      0.74      0.00
    8   -3   13     -2.45      0.00
    8   -3   14      0.33      0.00
    8   -3   15     -0.53      0.00
   -8    2   17     -1.40      0.00
   -8    2   16      0.22      0.00
   -8    2   15      0.42      0.00
   -8    2   14     -0.13      0.00
   -8    2   13      0.61      0.00
   -8    2   12      1.19      0.00
   -8    2   11     -5.86      0.00
   -8    2   10      4.83      0.00
   -8    2    9     -2.97      0.00
   -8    2    8      3.31      0.00
   -8    2    7      1.71      0.00
   -8    2    6     -2.89      0.00
   -8    2    5     -2.76      0.00
   -8    2    4      0.34      0.00
   -8    2    3      2.40      0.00
   -8    2    2      0.92      0.00
   -8    2    1      5.38      0.00
   -8    2    0     -9.92      0.00
    8   -2    1      1.45      0.00
    8   -2    2     -0.44      0.00
    8   -2    3      0.77      0.00
    8   -2    4      4.97      0.00
    8   -2    5      0.17      0.00
    8   -2    6     -4.46      0.00
    8   -2    7     -0.90      0.00
    8   -2    8      1.97      0.00
    8   -2    9     -0.80      0.00
    8   -2   10      4.09      0.00
    8   -2   11     -1.55      0.00
    8   -2   12     -1.28      0.00
    8   -2   13      0.23      0.00
    8   -2   14     -1.01      0.00
    8   -2   15      0.79      0.00
   -8    1   17      1.31      0.00
   -8    1   16     -0.01      0.00
   -8    1   15     -0.31      0.00
   -8    1   14      1.04      0.00
   -8    1   13     -1.75      0.00
   -8    1   12     -1.39      0.00
   -8    1   11      2.29      0.00
   -8    1   10     -0.91      0.00
   -8    1    9      0.92      0.00
   -8    1    8      3.08      0.00
   -8    1    7     -5.16      0.00
   -8    1    6     -0.83      0.00
   -8    1    5      1.12      0.00
   -8    1    4      2.86      0.00
   -8    1    3     -0.16      0.00
   -8    1    2      2.87      0.00
   -8    1    1     -6.51      0.00
   -8    1    0     -2.33      0.00
    8   -1    1      4.17      0.00
    8   -1    2     -1.23      0.00
    8   -1    3      7.21      0.00
    8   -1    4     -4.85      0.00
    8   -1    5     -1.77      0.00
    8   -1    6     -1.46      0.00
    8   -1    7      2.30      0.00
    8   -1    8      0.07      0.00
    8   -1    9      3.80      0.00
    8   -1   10     -1.88      0.00
    8   -1   11     -2.50      0.00
    8   -1   12      0.91      0.00
    8   -1   13     -0.59      0.00
    8   -1   14      2.28      0.00
    8   -1   15      0.05      0.00
    8   -1   16     -0.68      0.00
   -8    0   17     -0.04      0.00
   -8    0   16     -1.05      0.00
   -8    0   15      2.45      0.00
   -8    0   14     -3.27      0.00
   -8    0   13      1.05      0.00
   -8    0   12     -1.32      0.00
   -8    0   11      2.78      0.00
   -8    0   10     -0.32      0.00
   -8    0    9      1.39      0.00
   -8    0    8     -4.32      0.00
   -8    0    7     -1.33      0.00
   -8    0    6      5.62      0.00
   -8    0    5     -3.15      0.00
   -8    0    4      4.60      0.00
   -8    0    3     -1.65      0.00
   -8    0    2     -4.76      0.00
   -8    0    1     -2.70      0.00
    8    0    0      7.85      0.00
    8    0    1     -3.63      0.00
    8    0    2      5.69      0.00
    8    0    3     -3.75      0.00
    8    0    4     -3.50      0.00
    8    0    5      0.51      0.00
    8    0    6      1.13      0.00
    8    0    7      3.83      0.00
    8    0    8     -0.78      0.00
    8    0    9     -0.02      0.00
    8    0   10     -4.52      0.00
    8    0   11      3.20      0.00
    8    0   12     -0.75      0.00
    8    0   13      2.15      0.00
    8    0   14      0.12      0.00
    8    0   15     -0.80      0.00
    8    0   16     -0.77      0.00
   -8   -1   16      1.19      0.00
   -8   -1   15     -2.77      0.00
   -8   -1   14      0.95      0.00
   -8   -1   13      0.32      0.00
   -8   -1   12      1.73      0.00
   -8   -1   11     -1.37      0.00
   -8   -1   10      0.78      0.00
   -8   -1    9     -1.88      0.00
   -8   -1    8     -2.31      0.00
   -8   -1    7      6.43      0.00
   -8   -1    6     -4.88      0.00
   -8   -1    5      7.26      0.00
   -8   -1    4     -6.22      0.00
   -8   -1    3     -3.04      0.00
   -8   -1    2      1.77      0.00
   -8   -1    1      3.41      0.00
    8    1    0     -0.88      0.00
    8    1    1      2.27      0.00
    8    1    2     -1.20      0.00
    8    1    3     -7.78      0.00
    8    1    4      5.99      0.00
    8    1    5      0.08      0.00
    8    1    6      2.83      0.00
    8    1    7     -1.64      0.00
    8    1    8      0.61      0.00
    8    1    9     -5.26      0.00
    8    1   10      3.85      0.00
    8    1   11      0.06      0.00
    8    1   12      1.56      0.00
    8    1   13      1.34      0.00
    8    1   14     -3.17      0.00
    8    1   15     -0.09      0.00
    8    1   16      0.26      0.00
    8    1   17      0.88      0.00
   -8   -2   16     -0.22      0.00
   -8   -2   15     -0.18      0.00
   -8   -2   14      1.11      0.00
   -8   -2   13     -0.72      0.00
   -8   -2   12      0.70      0.00
   -8   -2   11      0.96      0.00
   -8   -2   10     -3.81      0.00
   -8   -2    9      0.13      0.00
   -8   -2    8      4.23      0.00
   -8   -2    7     -1.00      0.00
   -8   -2    6      1.67      0.00
   -8   -2    5     -3.51      0.00
   -8   -2    4     -2.91      0.00
   -8   -2    3      3.04      0.00
   -8   -2    2      1.60      0.00
   -8   -2    1      1.86      0.00
    8    2    0     -1.18      0.00
    8    2    1     -2.32      0.00
    8    2    2     -5.08      0.00
    8    2    3      7.20      0.00
    8    2    4     -0.35      0.00
    8    2    5     -0.28      0.00
    8    2    6      2.37      0.00
    8    2    7     -4.87      0.00
    8    2    8     -1.19      0.00
    8    2    9      3.38      0.00
    8    2   10      0.68      0.00
    8    2   11      0.64      0.00
    8    2   12      0.91      0.00
    8    2   13     -3.50      0.00
    8    2   14      1.18      0.00
    8    2   15      0.21      0.00
    8    2   16     -0.09      0.00
    8    2   17      0.89      0.00
   -8   -3   16     -0.57      0.00
   -8   -3   15      1.42      0.00
   -8   -3   14     -0.29      0.00
   -8   -3   13     -0.24      0.00
   -8   -3   12     -0.01      0.00
   -8   -3   11     -3.23      0.00
   -8   -3   10      3.80      0.00
   -8   -3    9      0.18      0.00
   -8   -3    8      0.53      0.00
   -8   -3    7     -1.40      0.00
   -8   -3    6      1.29      0.00
   -8   -3    5     -5.65      0.00
   -8   -3    4      3.81      0.00
   -8   -3    3      3.80      0.00
   -8   -3    2     -2.93      0.00
   -8   -3    1      2.08      0.00
    8    3    0     -5.29      0.00
    8    3    1      0.19      0.00
    8    3    2      2.19      0.00
    8    3    3      3.21      0.00
    8    3    4     -2.31      0.00
    8    3    5      2.51      0.00
    8    3    6     -7.42      0.00
    8    3    7      3.36      0.00
    8    3    8      1.90      0.00
    8    3    9      0.38      0.00
    8    3   10      1.21      0.00
    8    3   11     -1.68      0.00
    8    3   12     -1.14      0.00
    8    3   13      0.18      0.00
    8    3   14      1.39      0.00
    8    3   15     -0.36      0.00
    8    3   16      1.14      0.00
    8    3   17     -1.36      0.00
   -8   -4   15     -0.26      0.00
   -8   -4   14     -1.13      0.00
   -8   -4   13      1.15      0.00
   -8   -4   12     -2.04      0.00
   -8   -4   11      1.92      0.00
   -8   -4   10      0.82      0.00
   -8   -4    9     -0.29      0.00
   -8   -4    8      0.75      0.00
   -8   -4    7     -1.99      0.00
   -8   -4    6     -3.16      0.00
   -8   -4    5      4.67      0.00
   -8   -4    4      2.53      0.00
   -8   -4    3     -5.16      0.00
   -8   -4    2      5.76      0.00
   -8   -4    1     -8.69      0.00
    8    4    0      3.06      0.00
    8    4    1      1.79      0.00
    8    4    2      3.63      0.00
    8    4    3     -4.37      0.00
    8    4    4      0.88      0.00
    8    4    5     -3.16      0.00
    8    4    6      1.11      0.00
    8    4    7      3.99      0.00
    8    4    8     -1.23      0.00
    8    4    9      0.78      0.00
    8    4   10     -2.92      0.00
    8    4   11      0.65      0.00
    8    4   12     -0.02      0.00
    8    4   13      2.25      0.00
    8    4   14     -0.32      0.00
    8    4   15     -0.39      0.00
    8    4   16     -0.84      0.00
    8    4   17     -0.15      0.00
   -8   -5   15     -0.40      0.00
   -8   -5   14      0.70      0.00
   -8   -5   13     -1.74      0.00
   -8   -5   12      1.79      0.00
   -8   -5   11      2.63      0.00
   -8   -5   10     -4.06      0.00
   -8   -5    9      2.91      0.00
   -8   -5    8     -4.31      0.00
   -8   -5    7      2.58      0.00
   -8   -5    6      0.88      0.00
   -8   -5    5      0.95      0.00
   -8   -5    4     -1.87      0.00
   -8   -5    3      1.51      0.00
   -8   -5    2     -4.41      0.00
   -8   -5    1      1.98      0.00
    8    5    0      3.95      0.00
    8    5    1     -2.24      0.00
    8    5    2     -0.73      0.00
    8    5    3      0.18      0.00
    8    5    4     -2.03      0.00
    8    5    5     -0.69      0.00
    8    5    6      7.05      0.00
    8    5    7     -4.33      0.00
    8    5    8      0.71      0.00
    8    5    9     -1.54      0.00
    8    5   10     -1.29      0.00
    8    5   11      2.67      0.00
    8    5   12      1.05      0.00
    8    5   13      1.05      0.00
    8    5   14     -2.95      0.00
    8    5   15      0.60      0.00
    8    5   16     -1.04      0.00
    8    5   17      1.26      0.00
   -8   -6   14     -0.37      0.00
   -8   -6   13      1.58      0.00
   -8   -6   12      0.11      0.00
   -8   -6   11     -2.67      0.00
   -8   -6   10      3.05      0.00
   -8   -6    9     -3.25      0.00
   -8   -6    8      1.39      0.00
   -8   -6    7      0.73      0.00
   -8   -6    6      2.15      0.00
   -8   -6    5     -2.34      0.00
   -8   -6    4     -1.67      0.00
   -8   -6    3      1.68      0.00
   -8   -6    2     -2.38      0.00
   -8   -6    1      6.58      0.00
    8    6    0     -5.13      0.00
    8    6    1      1.88      0.00
    8    6    2     -2.57      0.00
    8    6    3     -1.61      0.00
    8    6    4      3.85      0.00
    8    6    5      2.73      0.00
    8    6    6     -3.94      0.00
    8    6    7      0.28      0.00
    8    6    8     -0.70      0.00
    8    6    9     -1.71      0.00
    8    6   10      4.70      0.00
    8    6   11     -0.62      0.00
    8    6   12      0.54      0.00
    8    6   13     -3.14      0.00
    8    6   14      1.77      0.00
    8    6   15     -1.58      0.00
    8    6   16      1.15      0.00
    8    6   17      0.70      0.00
   -8   -7   14      0.37      0.00
   -8   -7   13     -0.57      0.00
   -8   -7   12     -0.15      0.00
   -8   -7   11     -0.39      0.00
   -8   -7   10      0.09      0.00
   -8   -7    9     -0.82      0.00
   -8   -7    8      3.95      0.00
   -8   -7    7     -1.26      0.00
   -8   -7    6     -3.39      0.00
   -8   -7    5      2.72      0.00
   -8   -7    4     -1.36      0.00
   -8   -7    3     -0.64      0.00
   -8   -7    2      5.53      0.00
   -8   -7    1     -4.80      0.00
    8    7    0     -0.24      0.00
    8    7    1     -0.61      0.00
    8    7    2     -0.32      0.00
    8    7    3      4.06      0.00
    8    7    4     -1.73      0.00
    8    7    5      0.29      0.00
    8    7    6     -2.07      0.00
    8    7    7      0.24      0.00
    8    7    8     -0.12      0.00
    8    7    9      2.12      0.00
    8    7   10      1.05      0.00
    8    7   11     -2.18      0.00
    8    7   12      0.12      0.00
    8    7   13     -0.46      0.00
    8    7   14     -0.64      0.00
    8    7   15      1.85      0.00
    8    7   16      0.47      0.00
    8    7   17     -1.09      0.00
   -8   -8   13     -0.45      0.00
   -8   -8   12     -0.19      0.00
   -8   -8   11      1.68      0.00
   -8   -8   10     -2.18      0.00
   -8   -8    9      3.87      0.00
   -8   -8    8     -2.76      0.00
   -8   -8    7     -0.80      0.00
   -8   -8    6      3.23      0.00
   -8   -8    5     -5.87      0.00
   -8   -8    4      5.92      0.00
   -8   -8    3     -0.71      0.00
   -8   -8    2     -1.57      0.00
   -8   -8    1     -1.77      0.00
    8    8    0      1.66      0.00
    8    8    1     -1.34      0.00
    8    8    2      2.60      0.00
    8    8    3      1.16      0.00
    8    8    4     -2.40      0.00
    8    8    5     -1.74      0.00
    8    8    6      1.06      0.00
    8    8    7      0.69      0.00
    8    8    8      0.30      0.00
    8    8    9      2.62      0.00
    8    8   10     -5.14      0.00
    8    8   11      2.53      0.00
    8    8   12     -1.40      0.00
    8    8   13      1.41      0.00
    8    8   14      1.41      0.00
    8    8   15     -1.83      0.00
    8    8   16      0.44      0.00
   -8   -9   12     -0.05      0.00
   -8   -9   11     -0.66      0.00
   -8   -9   10      2.23      0.00
   -8   -9    9     -1.78      0.00
   -8   -9    8     -0.66      0.00
   -8   -9    7      1.59      0.00
   -8   -9    6     -2.77      0.00
   -8   -9    5      4.42      0.00
   -8   -9    4     -2.87      0.00
   -8   -9    3      0.57      0.00
   -8   -9    2     -1.78      0.00
   -8   -9    1      1.18      0.00
    8    9    0      0.04      0.00
    8    9    1      1.42      0.00
    8    9    2      1.95      0.00
    8    9    3     -6.44      0.00
    8    9    4      3.73      0.00
    8    9    5     -1.39      0.00
    8    9    6      0.76      0.00
    8    9    7      1.04      0.00
    8    9    8      0.33      0.00
    8    9    9     -3.56      0.00
    8    9   10      2.33      0.00
    8    9   11      0.27      0.00
    8    9   12     -0.36      0.00
    8    9   13      1.52      0.00
    8    9   14     -1.71      0.00
    8    9   15      1.05      0.00
    8    9   16     -2.45      0.00
   -8  -10   11      0.28      0.00
   -8  -10   10     -0.60      0.00
   -8  -10    9     -0.35      0.00
   -8  -10    8      1.14      0.00
   -8  -10    7     -0.99      0.00
   -8  -10    6      0.01      0.00
   -8  -10    5      1.71      0.00
   -8  -10    4     -2.63      0.00
   -8  -10    3      0.36      0.00
   -8  -10    2      0.57      0.00
   -8  -10    1      0.90      0.00
    8   10    0     -0.01      0.00
    8   10    1      0.87      0.00
    8   10    2     -4.32      0.00
    8   10    3      3.31      0.00
    8   10    4     -2.32      0.00
    8   10    5      1.67      0.00
    8   10    6      1.73      0.00
    8   10    7     -2.73      0.00
    8   10    8      0.00      0.00
    8   10    9      0.33      0.00
    8   10   10      1.29      0.00
    8   10   11     -1.36      0.00
    8   10   12      2.39      0.00
    8   10   13     -1.83      0.00
    8   10   14     -1.13      0.00
    8   10   15      0.06      0.00
   -8  -11   10      0.32      0.00
   -8  -11    9     -0.12      0.00
   -8  -11    8     -0.36      0.00
   -8  -11    7     -0.11      0.00
   -8  -11    6      1.98      0.00
   -8  -11    5     -3.91      0.00
   -8  -11    4      2.56      0.00
   -8  -11    3      0.00      0.00
   -8  -11    2     -0.48      0.00
   -8  -11    1      1.13      0.00
    8   11    0     -0.95      0.00
    8   11    1     -1.69      0.00
    8   11    2      0.21      0.00
    8   11    3      1.66      0.00
    8   11    4     -0.45      0.00
    8   11    5      1.14      0.00
    8   11    6     -2.36      0.00
    8   11    7      0.81      0.00
    8   11    8     -0.26      0.00
    8   11    9      0.66      0.00
    8   11   10      0.29      0.00
    8   11   11     -0.03      0.00
    8   11   12     -0.51      0.00
    8   11   13     -1.75      0.00
    8   11   14      2.62      0.00
    8   11   15     -2.14      0.00
   -8  -12    9      0.70      0.00
   -8  -12    8     -0.44      0.00
   -8  -12    7      0.40      0.00
   -8  -12    6     -0.79      0.00
   -8  -12    5      0.57      0.00
   -8  -12    4      0.67      0.00
   -8  -12    3     -1.59      0.00
   -8  -12    2      1.97      0.00
   -8  -12    1     -2.06      0.00
    8   12    0     -0.58      0.00
    8   12    1      0.77      0.00
    8   12    2      1.64      0.00
    8   12    3     -1.79      0.00
    8   12    4      1.46      0.00
    8   12    5     -0.72      0.00
    8   12    6     -2.01      0.00
    8   12    7      1.65      0.00
    8   12    8     -0.16      0.00
    8   12    9      0.83      0.00
    8   12   10     -1.27      0.00
    8   12   11      1.56      0.00
    8   12   12     -2.74      0.00
    8   12   13      2.65      0.00
    8   12   14     -2.61      0.00
   -8  -13    7     -0.09      0.00
   -8  -13    6     -0.86      0.00
   -8  -13    5      1.73      0.00
   -8  -13    4     -2.18      0.00
   -8  -13    3      1.41      0.00
   -8  -13    2     -1.17      0.00
   -8  -13    1     -0.99      0.00
    8   13    0      2.77      0.00
    8   13    1     -1.40      0.00
    8   13    2      0.50      0.00
    8   13    3     -0.05      0.00
    8   13    4     -0.52      0.00
    8   13    5     -2.46      0.00
    8   13    6      3.35      0.00
    8   13    7     -1.29      0.00
    8   13    8     -0.59      0.00
    8   13    9      2.12      0.00
    8   13   10     -0.64      0.00
    8   13   11     -1.83      0.00
    8   13   12      1.94      0.00
    8   13   13     -2.46      0.00
   -8  -14    5     -1.63      0.00
   -8  -14    4      0.99      0.00
   -8  -14    3     -0.66      0.00
   -8  -14    2     -0.68      0.00
   -8  -14    1      2.73      0.00
    8   14    0     -2.26      0.00
    8   14    1      1.20      0.00
    8   14    2     -0.95      0.00
    8   14    3     -0.67      0.00
    8   14    4     -0.32      0.00
    8   14    5      1.32      0.00
    8   14    6     -0.84      0.00
    8   14    7     -0.61      0.00
    8   14    8      4.36      0.00
    8   14    9     -4.66      0.00
    8   14   10      1.70      0.00
    8   14   11     -0.40      0.00
   -8  -15    2      0.73      0.00
   -8  -15    1     -0.60      0.00
    8   15    0     -0.37      0.00
    8   15    1      0.20      0.00
    8   15    2     -1.57      0.00
    8   15    3      1.33      0.00
    8   15    4     -0.40      0.00
    8   15    5      0.61      0.00
    8   15    6     -0.59      0.00
    8   15    7      2.38      0.00
    8   15    8     -3.65      0.00
    8   15    9      2.91      0.00
    8   16    3     -0.42      0.00
    8   16    4      0.24      0.00
    8   16    5      0.02      0.00
   -9   12    5      0.15      0.00
   -9   12    4      0.00      0.00
   -9   12    3      1.11      0.00
   -9   12    2     -0.45      0.00
   -9   12    1      0.67      0.00
   -9   11    9     -1.32      0.00
   -9   11    8      0.18      0.00
   -9   11    7     -1.26      0.00
   -9   11    6      0.11      0.00
   -9   11    5      0.80      0.00
   -9   11    4      1.78      0.00
   -9   11    3     -1.65      0.00
   -9   11    2     -0.67      0.00
   -9   11    1      0.08      0.00
   -9   11    0      0.25      0.00
    9  -11    1      0.54      0.00
    9  -11    2      0.27      0.00
    9  -11    3     -0.19      0.00
   -9   10   11      0.98      0.00
   -9   10   10     -1.36      0.00
   -9   10    9     -0.65      0.00
   -9   10    8     -0.35      0.00
   -9   10    7     -0.59      0.00
   -9   10    6      3.20      0.00
   -9   10    5     -0.63      0.00
   -9   10    4     -1.34      0.00
   -9   10    3     -0.32      0.00
   -9   10    2      0.19      0.00
   -9   10    1     -1.15      0.00
   -9   10    0      2.58      0.00
    9  -10    1      0.84      0.00
    9  -10    2     -2.62      0.00
    9  -10    3      0.62      0.00
    9  -10    4     -0.98      0.00
    9  -10    5      1.72      0.00
    9  -10    6      0.13      0.00
   -9    9   12      0.52      0.00
   -9    9   11     -1.32      0.00
   -9    9   10     -1.47      0.00
   -9    9    9      1.28      0.00
   -9    9    8     -1.20      0.00
   -9    9    7      3.79      0.00
   -9    9    6     -1.87      0.00
   -9    9    5     -0.58      0.00
   -9    9    4     -0.62      0.00
   -9    9    3     -1.13      0.00
   -9    9    2      1.57      0.00
   -9    9    1      2.02      0.00
   -9    9    0      0.02      0.00
    9   -9    1     -4.01      0.00
    9   -9    2      3.62      0.00
    9   -9    3     -3.09      0.00
    9   -9    4      2.27      0.00
    9   -9    5      0.65      0.00
    9   -9    6     -0.04      0.00
    9   -9    7     -1.33      0.00
   -9    8   13     -0.71      0.00
   -9    8   12     -1.86      0.00
   -9    8   11      0.08      0.00
   -9    8   10      0.67      0.00
   -9    8    9     -0.19      0.00
   -9    8    8      2.21      0.00
   -9    8    7     -0.54      0.00
   -9    8    6     -2.75      0.00
   -9    8    5      0.52      0.00
   -9    8    4     -0.36      0.00
   -9    8    3      2.14      0.00
   -9    8    2      0.88      0.00
   -9    8    1     -0.62      0.00
   -9    8    0     -2.86      0.00
    9   -8    1      2.76      0.00
    9   -8    2     -3.19      0.00
    9   -8    3      3.72      0.00
    9   -8    4      0.80      0.00
    9   -8    5     -2.34      0.00
    9   -8    6     -0.17      0.00
    9   -8    7      0.03      0.00
    9   -8    8      0.16      0.00
    9   -8    9      1.05      0.00
   -9    7   14     -1.64      0.00
   -9    7   13     -1.60      0.00
   -9    7   12      1.63      0.00
   -9    7   11     -1.00      0.00
   -9    7   10      2.14      0.00
   -9    7    9     -0.39      0.00
   -9    7    8      0.00      0.00
   -9    7    7     -4.13      0.00
   -9    7    6      2.86      0.00
   -9    7    5      0.40      0.00
   -9    7    4     -0.36      0.00
   -9    7    3      3.68      0.00
   -9    7    2     -4.51      0.00
   -9    7    1      0.03      0.00
   -9    7    0      0.33      0.00
    9   -7    1      0.20      0.00
    9   -7    2      2.55      0.00
    9   -7    3     -0.09      0.00
    9   -7    4     -2.59      0.00
    9   -7    5      0.12      0.00
    9   -7    6      0.32      0.00
    9   -7    7      0.29      0.00
    9   -7    8      1.40      0.00
    9   -7    9      0.70      0.00
    9   -7   10     -1.64      0.00
   -9    6   14     -0.99      0.00
   -9    6   13      1.17      0.00
   -9    6   12     -0.23      0.00
   -9    6   11      1.35      0.00
   -9    6   10     -0.53      0.00
   -9    6    9     -1.21      0.00
   -9    6    8     -2.55      0.00
   -9    6    7      2.44      0.00
   -9    6    6      1.11      0.00
   -9    6    5     -0.69      0.00
   -9    6    4      4.52      0.00
   -9    6    3     -7.92      0.00
   -9    6    2      2.52      0.00
   -9    6    1     -0.26      0.00
   -9    6    0      1.90      0.00
    9   -6    1      1.81      0.00
    9   -6    2     -1.22      0.00
    9   -6    3     -2.05      0.00
    9   -6    4     -1.73      0.00
    9   -6    5      3.35      0.00
    9   -6    6     -1.13      0.00
    9   -6    7      3.01      0.00
    9   -6    8     -1.23      0.00
    9   -6    9     -1.82      0.00
    9   -6   10      0.99      0.00
    9   -6   11     -0.05      0.00
   -9    5   15      0.13      0.00
   -9    5   14      0.09      0.00
   -9    5   13      1.28      0.00
   -9    5   12     -1.60      0.00
   -9    5   11      2.09      0.00
   -9    5   10     -3.90      0.00
   -9    5    9     -0.24      0.00
   -9    5    8      1.85      0.00
   -9    5    7      1.47      0.00
   -9    5    6      0.20      0.00
   -9    5    5      0.76      0.00
   -9    5    4     -4.71      0.00
   -9    5    3      0.38      0.00
   -9    5    2      3.08      0.00
   -9    5    1     -0.39      0.00
   -9    5    0      2.58      0.00
    9   -5    1     -2.41      0.00
    9   -5    2     -2.12      0.00
    9   -5    3     -1.22      0.00
    9   -5    4      4.14      0.00
    9   -5    5     -1.64      0.00
    9   -5    6      3.78      0.00
    9   -5    7     -2.37      0.00
    9   -5    8     -2.30      0.00
    9   -5    9      1.66      0.00
    9   -5   10     -0.27      0.00
    9   -5   11      1.65      0.00
    9   -5   12      0.40      0.00
   -9    4   15     -1.19      0.00
   -9    4   14      1.67      0.00
   -9    4   13     -2.12      0.00
   -9    4   12      2.29      0.00
   -9    4   11     -4.26      0.00
   -9    4   10      0.91      0.00
   -9    4    9      2.55      0.00
   -9    4    8     -0.81      0.00
   -9    4    7      1.74      0.00
   -9    4    6     -1.58      0.00
   -9    4    5     -1.54      0.00
   -9    4    4     -2.66      0.00
   -9    4    3      7.24      0.00
   -9    4    2     -3.83      0.00
   -9    4    1      3.61      0.00
   -9    4    0     -2.76      0.00
    9   -4    1     -4.22      0.00
    9   -4    2      2.78      0.00
    9   -4    3      1.64      0.00
    9   -4    4      1.31      0.00
    9   -4    5      0.51      0.00
    9   -4    6     -1.65      0.00
    9   -4    7     -3.15      0.00
    9   -4    8      3.40      0.00
    9   -4    9     -0.65      0.00
    9   -4   10      1.96      0.00
    9   -4   11     -0.44      0.00
    9   -4   12     -0.57      0.00
    9   -4   13     -1.14      0.00
   -9    3   15      1.22      0.00
   -9    3   14     -1.79      0.00
   -9    3   13      0.36      0.00
   -9    3   12     -1.36      0.00
   -9    3   11      0.11      0.00
   -9    3   10      3.02      0.00
   -9    3    9     -2.54      0.00
   -9    3    8      2.41      0.00
   -9    3    7     -1.72      0.00
   -9    3    6     -2.81      0.00
   -9    3    5      1.42      0.00
   -9    3    4      4.59      0.00
   -9    3    3     -3.47      0.00
   -9    3    2      2.68      0.00
   -9    3    1     -3.07      0.00
   -9    3    0     -4.38      0.00
    9   -3    1      5.90      0.00
    9   -3    2     -0.12      0.00
    9   -3    3      1.77      0.00
    9   -3    4     -1.58      0.00
    9   -3    5     -0.73      0.00
    9   -3    6     -3.02      0.00
    9   -3    7      3.65      0.00
    9   -3    8      0.11      0.00
    9   -3    9      0.93      0.00
    9   -3   10      0.45      0.00
    9   -3   11     -2.21      0.00
    9   -3   12     -0.60      0.00
    9   -3   13      1.32      0.00
   -9    2   15     -1.01      0.00
   -9    2   14      0.66      0.00
   -9    2   13     -1.23      0.00
   -9    2   12      0.22      0.00
   -9    2   11      2.27      0.00
   -9    2   10     -1.48      0.00
   -9    2    9      0.19      0.00
   -9    2    8     -0.24      0.00
   -9    2    7     -4.06      0.00
   -9    2    6      6.19      0.00
   -9    2    5     -1.65      0.00
   -9    2    4      1.40      0.00
   -9    2    3     -1.18      0.00
   -9    2    2     -2.80      0.00
   -9    2    1     -1.57      0.00
   -9    2    0      3.93      0.00
    9   -2    1      2.66      0.00
    9   -2    2     -2.58      0.00
    9   -2    3      1.87      0.00
    9   -2    4     -4.83      0.00
    9   -2    5      0.00      0.00
    9   -2    6      3.50      0.00
    9   -2    7      1.36      0.00
    9   -2    8     -1.05      0.00
    9   -2    9      0.50      0.00
    9   -2   10     -3.22      0.00
    9   -2   11      1.31      0.00
    9   -2   12      1.42      0.00
    9   -2   13      0.09      0.00
    9   -2   14      0.50      0.00
   -9    1   15      0.87      0.00
   -9    1   14     -2.47      0.00
   -9    1   13      2.88      0.00
   -9    1   12     -0.52      0.00
   -9    1   11      0.10      0.00
   -9    1   10     -1.78      0.00
   -9    1    9      1.19      0.00
   -9    1    8     -3.34      0.00
   -9    1    7      5.72      0.00
   -9    1    6     -1.64      0.00
   -9    1    5      1.24      0.00
   -9    1    4     -3.20      0.00
   -9    1    3     -0.72      0.00
   -9    1    2     -0.38      0.00
   -9    1    1      2.03      0.00
   -9    1    0      4.77      0.00
    9   -1    1     -6.49      0.00
    9   -1    2      5.21      0.00
    9   -1    3     -8.55      0.00
    9   -1    4      4.47      0.00
    9   -1    5      2.17      0.00
    9   -1    6      0.35      0.00
    9   -1    7     -0.26      0.00
    9   -1    8     -1.16      0.00
    9   -1    9     -1.92      0.00
    9   -1   10      0.64      0.00
    9   -1   11      2.81      0.00
    9   -1   12     -0.35      0.00
    9   -1   13      0.63      0.00
    9   -1   14     -1.13      0.00
    9   -1   15     -1.08      0.00
   -9    0   15     -1.66      0.00
   -9    0   14      2.14      0.00
   -9    0   13     -1.24      0.00
   -9    0   12      1.00      0.00
   -9    0   11     -1.63      0.00
   -9    0   10      0.12      0.00
   -9    0    9     -1.17      0.00
   -9    0    8      3.27      0.00
   -9    0    7      1.46      0.00
   -9    0    6     -3.44      0.00
   -9    0    5      0.43      0.00
   -9    0    4     -1.60      0.00
   -9    0    3     -1.25      0.00
   -9    0    2      5.55      0.00
   -9    0    1      0.26      0.00
    9    0    0     -4.13      0.00
    9    0    1      2.34      0.00
    9    0    2     -5.28      0.00
    9    0    3      4.09      0.00
    9    0    4      2.08      0.00
    9    0    5     -0.63      0.00
    9    0    6      0.28      0.00
    9    0    7     -3.29      0.00
    9    0    8      0.33      0.00
    9    0    9      0.28      0.00
    9    0   10      4.01      0.00
    9    0   11     -1.69      0.00
    9    0   12      0.54      0.00
    9    0   13     -1.15      0.00
    9    0   14     -1.23      0.00
    9    0   15      1.88      0.00
   -9   -1   15      0.06      0.00
   -9   -1   14      0.76      0.00
   -9   -1   13     -1.69      0.00
   -9   -1   12      0.08      0.00
   -9   -1   11     -0.15      0.00
   -9   -1   10      0.15      0.00
   -9   -1    9      1.87      0.00
   -9   -1    8      1.17      0.00
   -9   -1    7     -3.82      0.00
   -9   -1    6      2.03      0.00
   -9   -1    5     -3.28      0.00
   -9   -1    4      0.47      0.00
   -9   -1    3      7.39      0.00
   -9   -1    2     -6.22      0.00
   -9   -1    1      1.97      0.00
    9    1    0     -2.91      0.00
    9    1    1      0.40      0.00
    9    1    2      0.53      0.00
    9    1    3      4.23      0.00
    9    1    4     -2.31      0.00
    9    1    5     -1.77      0.00
    9    1    6     -0.35      0.00
    9    1    7     -0.57      0.00
    9    1    8      1.74      0.00
    9    1    9      2.38      0.00
    9    1   10     -1.09      0.00
    9    1   11     -0.09      0.00
    9    1   12     -1.09      0.00
    9    1   13     -0.98      0.00
    9    1   14      2.43      0.00
    9    1   15     -0.68      0.00
   -9   -2   15      1.54      0.00
   -9   -2   14     -2.36      0.00
   -9   -2   13      1.97      0.00
   -9   -2   12     -1.11      0.00
   -9   -2   11     -0.61      0.00
   -9   -2   10      3.42      0.00
   -9   -2    9     -1.32      0.00
   -9   -2    8     -1.02      0.00
   -9   -2    7     -0.63      0.00
   -9   -2    6     -1.22      0.00
   -9   -2    5      1.49      0.00
   -9   -2    4      4.35      0.00
   -9   -2    3     -4.70      0.00
   -9   -2    2      2.30      0.00
   -9   -2    1     -4.31      0.00
    9    2    0      1.71      0.00
    9    2    1      1.08      0.00
    9    2    2      3.82      0.00
    9    2    3     -3.80      0.00
    9    2    4     -2.40      0.00
    9    2    5      2.70      0.00
    9    2    6     -3.71      0.00
    9    2    7      5.75      0.00
    9    2    8     -0.34      0.00
    9    2    9     -1.20      0.00
    9    2   10     -1.00      0.00
    9    2   11     -0.39      0.00
    9    2   12      0.92      0.00
    9    2   13      1.14      0.00
    9    2   14     -0.11      0.00
    9    2   15     -0.51      0.00
    9    2   16     -0.13      0.00
   -9   -3   15     -1.73      0.00
   -9   -3   14      0.76      0.00
   -9   -3   13     -0.43      0.00
   -9   -3   12      0.50      0.00
   -9   -3   11      2.99      0.00
   -9   -3   10     -3.65      0.00
   -9   -3    9      0.66      0.00
   -9   -3    8     -0.65      0.00
   -9   -3    7      0.06      0.00
   -9   -3    6      1.13      0.00
   -9   -3    5      1.48      0.00
   -9   -3    4     -0.43      0.00
   -9   -3    3     -3.04      0.00
   -9   -3    2      1.34      0.00
   -9   -3    1     -1.42      0.00
    9    3    0      3.27      0.00
    9    3    1      0.59      0.00
    9    3    2     -2.64      0.00
    9    3    3     -1.26      0.00
    9    3    4      1.22      0.00
    9    3    5     -2.01      0.00
    9    3    6      5.87      0.00
    9    3    7     -2.03      0.00
    9    3    8     -2.04      0.00
    9    3    9      0.34      0.00
    9    3   10     -0.66      0.00
    9    3   11      2.17      0.00
    9    3   12      0.00      0.00
    9    3   13      1.10      0.00
    9    3   14     -2.11      0.00
    9    3   15      0.34      0.00
    9    3   16     -0.33      0.00
   -9   -4   14      0.51      0.00
   -9   -4   13     -0.56      0.00
   -9   -4   12      1.27      0.00
   -9   -4   11     -1.48      0.00
   -9   -4   10     -0.01      0.00
   -9   -4    9      0.46      0.00
   -9   -4    8     -1.63      0.00
   -9   -4    7      2.99      0.00
   -9   -4    6      0.07      0.00
   -9   -4    5     -0.25      0.00
   -9   -4    4     -4.12      0.00
   -9   -4    3      4.85      0.00
   -9   -4    2     -4.46      0.00
   -9   -4    1      4.82      0.00
    9    4    0     -0.43      0.00
    9    4    1     -3.28      0.00
    9    4    2      0.33      0.00
    9    4    3     -0.29      0.00
    9    4    4      1.59      0.00
    9    4    5      1.41      0.00
    9    4    6     -0.12      0.00
    9    4    7     -3.43      0.00
    9    4    8      1.36      0.00
    9    4    9     -0.58      0.00
    9    4   10      2.52      0.00
    9    4   11      0.69      0.00
    9    4   12     -0.37      0.00
    9    4   13     -2.18      0.00
    9    4   14      0.30      0.00
    9    4   15      0.55      0.00
    9    4   16      0.76      0.00
   -9   -5   14     -0.69      0.00
   -9   -5   13      1.67      0.00
   -9   -5   12     -1.58      0.00
   -9   -5   11     -1.20      0.00
   -9   -5   10      1.97      0.00
   -9   -5    9     -1.10      0.00
   -9   -5    8      2.76      0.00
   -9   -5    7     -0.95      0.00
   -9   -5    6     -1.81      0.00
   -9   -5    5     -0.23      0.00
   -9   -5    4      1.80      0.00
   -9   -5    3     -1.65      0.00
   -9   -5    2      3.18      0.00
   -9   -5    1     -1.07      0.00
    9    5    0     -4.23      0.00
    9    5    1      3.37      0.00
    9    5    2     -1.15      0.00
    9    5    3      1.21      0.00
    9    5    4      0.62      0.00
    9    5    5      0.04      0.00
    9    5    6     -3.69      0.00
    9    5    7      1.94      0.00
    9    5    8      0.61      0.00
    9    5    9      0.90      0.00
    9    5   10      1.57      0.00
    9    5   11     -2.08      0.00
    9    5   12     -0.58      0.00
    9    5   13     -0.39      0.00
    9    5   14      1.32      0.00
    9    5   15      0.40      0.00
    9    5   16      0.05      0.00
   -9   -6   13     -1.85      0.00
   -9   -6   12      1.13      0.00
   -9   -6   11      1.00      0.00
   -9   -6   10     -0.74      0.00
   -9   -6    9      0.42      0.00
   -9   -6    8      1.66      0.00
   -9   -6    7     -3.33      0.00
   -9   -6    6      1.49      0.00
   -9   -6    5     -0.79      0.00
   -9   -6    4      1.79      0.00
   -9   -6    3      0.20      0.00
   -9   -6    2     -0.43      0.00
   -9   -6    1     -2.89      0.00
    9    6    0      1.97      0.00
    9    6    1     -0.31      0.00
    9    6    2      0.82      0.00
    9    6    3      2.43      0.00
    9    6    4     -4.44      0.00
    9    6    5     -0.20      0.00
    9    6    6      1.13      0.00
    9    6    7      1.60      0.00
    9    6    8     -0.35      0.00
    9    6    9      1.12      0.00
    9    6   10     -1.92      0.00
    9    6   11     -0.88      0.00
    9    6   12      1.30      0.00
    9    6   13      0.85      0.00
    9    6   14      0.10      0.00
    9    6   15     -0.26      0.00
    9    6   16      0.21      0.00
   -9   -7   12     -0.23      0.00
   -9   -7   11      0.38      0.00
   -9   -7   10      0.08      0.00
   -9   -7    9      1.79      0.00
   -9   -7    8     -4.57      0.00
   -9   -7    7      2.70      0.00
   -9   -7    6      0.48      0.00
   -9   -7    5     -0.46      0.00
   -9   -7    4      1.05      0.00
   -9   -7    3     -0.82      0.00
   -9   -7    2     -1.97      0.00
   -9   -7    1      0.48      0.00
    9    7    0      2.82      0.00
    9    7    1     -1.39      0.00
    9    7    2      1.49      0.00
    9    7    3     -4.41      0.00
    9    7    4      2.30      0.00
    9    7    5     -0.48      0.00
    9    7    6      1.57      0.00
    9    7    7     -0.27      0.00
    9    7    8     -0.17      0.00
    9    7    9     -0.49      0.00
    9    7   10     -1.92      0.00
    9    7   11      3.95      0.00
    9    7   12     -1.49      0.00
    9    7   13      0.82      0.00
    9    7   14     -0.30      0.00
    9    7   15     -0.85      0.00
   -9   -8   12     -0.41      0.00
   -9   -8   11      0.39      0.00
   -9   -8   10      0.04      0.00
   -9   -8    9     -1.51      0.00
   -9   -8    8      1.83      0.00
   -9   -8    7      0.16      0.00
   -9   -8    6     -2.19      0.00
   -9   -8    5      3.89      0.00
   -9   -8    4     -3.09      0.00
   -9   -8    3     -0.77      0.00
   -9   -8    2      1.99      0.00
   -9   -8    1      0.72      0.00
    9    8    0     -1.53      0.00
    9    8    1      1.30      0.00
    9    8    2     -1.49      0.00
    9    8    3     -1.70      0.00
    9    8    4      2.15      0.00
    9    8    5      0.45      0.00
    9    8    6      0.50      0.00
    9    8    7     -1.37      0.00
    9    8    8     -0.19      0.00
    9    8    9     -1.11      0.00
    9    8   10      3.95      0.00
    9    8   11     -1.73      0.00
    9    8   12      0.62      0.00
    9    8   13     -0.59      0.00
    9    8   14     -1.75      0.00
    9    8   15      1.37      0.00
   -9   -9   11     -0.89      0.00
   -9   -9   10      0.58      0.00
   -9   -9    9     -0.69      0.00
   -9   -9    8      1.30      0.00
   -9   -9    7     -1.33      0.00
   -9   -9    6      2.16      0.00
   -9   -9    5     -2.65      0.00
   -9   -9    4      0.30      0.00
   -9   -9    3      2.50      0.00
   -9   -9    2     -2.28      0.00
   -9   -9    1      2.20      0.00
    9    9    0     -1.83      0.00
    9    9    1     -0.38      0.00
    9    9    2     -2.39      0.00
    9    9    3      5.62      0.00
    9    9    4     -3.13      0.00
    9    9    5      0.67      0.00
    9    9    6     -0.48      0.00
    9    9    7     -0.66      0.00
    9    9    8      0.82      0.00
    9    9    9      1.26      0.00
    9    9   10     -0.21      0.00
    9    9   11     -1.11      0.00
    9    9   12      0.89      0.00
    9    9   13     -1.81      0.00
    9    9   14      1.35      0.00
    9    9   15     -0.54      0.00
   -9  -10   10     -1.01      0.00
   -9  -10    9      1.48      0.00
   -9  -10    8     -1.59      0.00
   -9  -10    7      1.27      0.00
   -9  -10    6     -0.34      0.00
   -9  -10    5     -0.85      0.00
   -9  -10    4      1.79      0.00
   -9  -10    3     -1.11      0.00
   -9  -10    2      1.15      0.00
   -9  -10    1     -2.63      0.00
    9   10    0      1.40      0.00
    9   10    1     -1.01      0.00
    9   10    2      2.72      0.00
    9   10    3     -2.55      0.00
    9   10    4      1.17      0.00
    9   10    5      0.36      0.00
    9   10    6     -2.63      0.00
    9   10    7      2.43      0.00
    9   10    8     -0.17      0.00
    9   10    9      0.57      0.00
    9   10   10     -1.32      0.00
    9   10   11      1.40      0.00
    9   10   12     -2.20      0.00
    9   10   13      1.21      0.00
    9   10   14      0.48      0.00
   -9  -11    8      1.17      0.00
   -9  -11    7     -0.64      0.00
   -9  -11    6     -0.54      0.00
   -9  -11    5      1.21      0.00
   -9  -11    4      0.06      0.00
   -9  -11    3     -2.17      0.00
   -9  -11    2      1.92      0.00
   -9  -11    1     -1.07      0.00
    9   11    0     -0.15      0.00
    9   11    1      1.66      0.00
    9   11    2     -0.32      0.00
    9   11    3     -1.09      0.00
    9   11    4     -0.04      0.00
    9   11    5     -1.30      0.00
    9   11    6      2.43      0.00
    9   11    7     -0.45      0.00
    9   11    8     -0.08      0.00
    9   11    9     -0.07      0.00
    9   11   10      0.35      0.00
    9   11   11     -1.20      0.00
    9   11   12      1.15      0.00
    9   11   13     -0.45      0.00
   -9  -12    7      0.11      0.00
   -9  -12    6      0.14      0.00
   -9  -12    5      0.01      0.00
   -9  -12    4     -1.91      0.00
   -9  -12    3      3.13      0.00
   -9  -12    2     -3.24      0.00
   -9  -12    1      2.36      0.00
    9   12    0      1.05      0.00
    9   12    1     -2.40      0.00
    9   12    2     -0.15      0.00
    9   12    3      0.26      0.00
    9   12    4      0.26      0.00
    9   12    5     -0.78      0.00
    9   12    6      1.86      0.00
    9   12    7     -0.57      0.00
    9   12    8      0.14      0.00
    9   12    9      0.53      0.00
    9   12   10     -1.82      0.00
    9   12   11      0.83      0.00
    9   12   12     -1.10      0.00
   -9  -13    5     -0.33      0.00
   -9  -13    4      0.85      0.00
   -9  -13    3     -1.22      0.00
   -9  -13    2      1.93      0.00
   -9  -13    1     -0.17      0.00
    9   13    0     -2.33      0.00
    9   13    1      1.54      0.00
    9   13    2     -1.20      0.00
    9   13    3      0.25      0.00
    9   13    4     -0.25      0.00
    9   13    5      3.10      0.00
    9   13    6     -2.51      0.00
    9   13    7      0.49      0.00
    9   13    8      1.86      0.00
    9   13    9     -4.40      0.00
    9   13   10      2.79      0.00
    9   13   11     -1.91      0.00
   -9  -14    3      0.30      0.00
   -9  -14    2     -0.22      0.00
   -9  -14    1     -1.05      0.00
    9   14    0      0.30      0.00
    9   14    1     -0.37      0.00
    9   14    2     -0.08      0.00
    9   14    3      1.59      0.00
    9   14    4     -0.03      0.00
    9   14    5     -1.34      0.00
    9   14    6      1.62      0.00
    9   14    7      0.17      0.00
    9   14    8     -4.27      0.00
    9   14    9      4.18      0.00
    9   15    2      1.98      0.00
    9   15    3     -1.52      0.00
    9   15    4      0.93      0.00
    9   15    5      0.03      0.00
  -10   10    7      1.54      0.00
  -10   10    6     -3.01      0.00
  -10   10    5      0.96      0.00
  -10   10    4     -0.06      0.00
  -10   10    3     -0.16      0.00
  -10   10    2      1.36      0.00
  -10   10    1      0.15      0.00
  -10   10    0     -1.37      0.00
   10  -10    1     -0.68      0.00
   10  -10    2      1.09      0.00
  -10    9    9     -1.43      0.00
  -10    9    8      1.39      0.00
  -10    9    7     -3.00      0.00
  -10    9    6      1.03      0.00
  -10    9    5      0.48      0.00
  -10    9    4      0.20      0.00
  -10    9    3      1.56      0.00
  -10    9    2     -1.86      0.00
  -10    9    1     -0.65      0.00
  -10    9    0     -0.12      0.00
   10   -9    1      2.25      0.00
   10   -9    2     -2.09      0.00
   10   -9    3      1.64      0.00
   10   -9    4     -0.30      0.00
  -10    8   11     -0.61      0.00
  -10    8   10     -0.06      0.00
  -10    8    9     -0.53      0.00
  -10    8    8     -1.50      0.00
  -10    8    7      0.35      0.00
  -10    8    6      2.24      0.00
  -10    8    5     -0.62      0.00
  -10    8    4      0.08      0.00
  -10    8    3     -0.66      0.00
  -10    8    2     -1.58      0.00
  -10    8    1      1.54      0.00
  -10    8    0      0.57      0.00
   10   -8    1     -0.55      0.00
   10   -8    2      1.98      0.00
   10   -8    3     -2.49      0.00
   10   -8    4     -1.29      0.00
   10   -8    5      2.53      0.00
   10   -8    6     -0.41      0.00
  -10    7   12     -1.24      0.00
  -10    7   11      0.48      0.00
  -10    7   10     -1.73      0.00
  -10    7    9     -0.55      0.00
  -10    7    8      0.86      0.00
  -10    7    7      2.59      0.00
  -10    7    6     -1.31      0.00
  -10    7    5     -1.01      0.00
  -10    7    4      1.19      0.00
  -10    7    3     -4.57      0.00
  -10    7    2      5.29      0.00
  -10    7    1     -1.22      0.00
  -10    7    0      1.19      0.00
   10   -7    1     -0.87      0.00
   10   -7    2     -2.56      0.00
   10   -7    3      1.15      0.00
   10   -7    4      1.19      0.00
   10   -7    5      0.46      0.00
   10   -7    6     -0.01      0.00
   10   -7    7      0.42      0.00
   10   -7    8     -1.21      0.00
  -10    6   12     -0.55      0.00
  -10    6   11     -0.16      0.00
  -10    6   10     -1.46      0.00
  -10    6    9      2.54      0.00
  -10    6    8      0.67      0.00
  -10    6    7     -0.89      0.00
  -10    6    6     -0.63      0.00
  -10    6    5      0.21      0.00
  -10    6    4     -3.97      0.00
  -10    6    3      6.50      0.00
  -10    6    2     -2.01      0.00
  -10    6    1      0.44      0.00
  -10    6    0     -0.84      0.00
   10   -6    1     -2.12      0.00
   10   -6    2      1.17      0.00
   10   -6    3      0.42      0.00
   10   -6    4      3.05      0.00
   10   -6    5     -2.36      0.00
   10   -6    6      1.26      0.00
   10   -6    7     -3.17      0.00
   10   -6    8      1.57      0.00
   10   -6    9      1.21      0.00
  -10    5   13     -1.22      0.00
  -10    5   12      1.23      0.00
  -10    5   11     -2.18      0.00
  -10    5   10      3.31      0.00
  -10    5    9     -0.55      0.00
  -10    5    8     -0.92      0.00
  -10    5    7      0.00      0.00
  -10    5    6     -1.80      0.00
  -10    5    5      0.34      0.00
  -10    5    4      3.23      0.00
  -10    5    3     -0.50      0.00
  -10    5    2     -1.69      0.00
  -10    5    1      0.41      0.00
  -10    5    0     -2.24      0.00
   10   -5    1      1.06      0.00
   10   -5    2      2.81      0.00
   10   -5    3      0.43      0.00
   10   -5    4     -2.41      0.00
   10   -5    5      1.40      0.00
   10   -5    6     -2.96      0.00
   10   -5    7      2.10      0.00
   10   -5    8      1.06      0.00
   10   -5    9     -0.19      0.00
   10   -5   10      0.41      0.00
  -10    4   13      0.54      0.00
  -10    4   12     -0.79      0.00
  -10    4   11      1.89      0.00
  -10    4   10     -0.13      0.00
  -10    4    9     -2.57      0.00
  -10    4    8      1.55      0.00
  -10    4    7     -1.82      0.00
  -10    4    6      1.71      0.00
  -10    4    5      1.09      0.00
  -10    4    4      0.49      0.00
  -10    4    3     -2.80      0.00
  -10    4    2      0.43      0.00
  -10    4    1     -0.83      0.00
  -10    4    0      0.28      0.00
   10   -4    1      5.10      0.00
   10   -4    2     -3.74      0.00
   10   -4    3      0.55      0.00
   10   -4    4     -1.26      0.00
   10   -4    5     -1.12      0.00
   10   -4    6      2.18      0.00
   10   -4    7      1.68      0.00
   10   -4    8     -1.05      0.00
   10   -4    9     -0.28      0.00
   10   -4   10     -0.95      0.00
   10   -4   11      0.22      0.00
  -10    3   14     -0.12      0.00
  -10    3   13      0.77      0.00
  -10    3   12      0.16      0.00
  -10    3   11     -0.01      0.00
  -10    3   10     -2.84      0.00
  -10    3    9      2.31      0.00
  -10    3    8     -1.39      0.00
  -10    3    7      0.82      0.00
  -10    3    6      3.24      0.00
  -10    3    5     -2.82      0.00
  -10    3    4     -1.53      0.00
  -10    3    3     -0.18      0.00
  -10    3    2      0.67      0.00
  -10    3    1      0.16      0.00
  -10    3    0      5.26      0.00
   10   -3    1     -5.16      0.00
   10   -3    2      0.21      0.00
   10   -3    3     -0.93      0.00
   10   -3    4     -0.13      0.00
   10   -3    5      2.97      0.00
   10   -3    6      0.35      0.00
   10   -3    7     -1.13      0.00
   10   -3    8     -0.95      0.00
   10   -3    9      0.05      0.00
   10   -3   10     -0.55      0.00
   10   -3   11      1.56      0.00
   10   -3   12      1.27      0.00
  -10    2   14     -0.60      0.00
  -10    2   13      0.55      0.00
  -10    2   12     -0.61      0.00
  -10    2   11     -1.15      0.00
  -10    2   10      0.46      0.00
  -10    2    9      0.11      0.00
  -10    2    8      0.90      0.00
  -10    2    7      3.07      0.00
  -10    2    6     -5.18      0.00
  -10    2    5      0.84      0.00
  -10    2    4     -0.66      0.00
  -10    2    3      0.27      0.00
  -10    2    2      2.14      0.00
  -10    2    1      2.34      0.00
  -10    2    0     -3.72      0.00
   10   -2    1     -1.44      0.00
   10   -2    2      2.02      0.00
   10   -2    3     -2.84      0.00
   10   -2    4      5.35      0.00
   10   -2    5     -1.14      0.00
   10   -2    6     -0.81      0.00
   10   -2    7     -2.18      0.00
   10   -2    8      0.44      0.00
   10   -2    9      0.54      0.00
   10   -2   10      2.23      0.00
   10   -2   11      0.31      0.00
   10   -2   12     -2.05      0.00
  -10    1   14      2.03      0.00
  -10    1   13     -2.25      0.00
  -10    1   12     -0.19      0.00
  -10    1   11      0.20      0.00
  -10    1   10      1.14      0.00
  -10    1    9      0.64      0.00
  -10    1    8      0.55      0.00
  -10    1    7     -2.48      0.00
  -10    1    6     -0.94      0.00
  -10    1    5      0.75      0.00
  -10    1    4     -0.13      0.00
  -10    1    3      3.46      0.00
  -10    1    2     -0.90      0.00
  -10    1    1     -1.96      0.00
  -10    1    0     -1.38      0.00
   10   -1    1      1.88      0.00
   10   -1    2     -2.16      0.00
   10   -1    3      5.41      0.00
   10   -1    4     -2.42      0.00
   10   -1    5     -1.82      0.00
   10   -1    6     -0.66      0.00
   10   -1    7      0.70      0.00
   10   -1    8      1.00      0.00
   10   -1    9      0.99      0.00
   10   -1   10      1.09      0.00
   10   -1   11     -2.54      0.00
   10   -1   12      1.16      0.00
   10   -1   13     -1.77      0.00
  -10    0   14     -1.85      0.00
  -10    0   13      0.58      0.00
  -10    0   12      0.97      0.00
  -10    0   11     -0.88      0.00
  -10    0   10      1.71      0.00
  -10    0    9     -0.62      0.00
  -10    0    8     -0.81      0.00
  -10    0    7     -2.99      0.00
  -10    0    6      3.31      0.00
  -10    0    5     -0.95      0.00
  -10    0    4      2.66      0.00
  -10    0    3     -0.27      0.00
  -10    0    2     -3.33      0.00
  -10    0    1      0.18      0.00
   10    0    0      0.56      0.00
   10    0    1      1.54      0.00
   10    0    2      0.74      0.00
   10    0    3     -0.86      0.00
   10    0    4     -2.99      0.00
   10    0    5      1.43      0.00
   10    0    6      0.18      0.00
   10    0    7      0.59      0.00
   10    0    8      2.08      0.00
   10    0    9     -0.59      0.00
   10    0   10     -2.57      0.00
   10    0   11      1.35      0.00
   10    0   12     -0.66      0.00
   10    0   13      1.45      0.00
  -10   -1   14     -0.13      0.00
  -10   -1   13      1.09      0.00
  -10   -1   12     -0.88      0.00
  -10   -1   11      2.20      0.00
  -10   -1   10     -1.92      0.00
  -10   -1    9     -1.21      0.00
  -10   -1    8     -0.51      0.00
  -10   -1    7      2.18      0.00
  -10   -1    6     -0.51      0.00
  -10   -1    5      1.65      0.00
  -10   -1    4      0.55      0.00
  -10   -1    3     -5.65      0.00
  -10   -1    2      3.45      0.00
  -10   -1    1     -0.49      0.00
   10    1    0      1.50      0.00
   10    1    1     -0.41      0.00
   10    1    2      0.17      0.00
   10    1    3     -4.08      0.00
   10    1    4      2.31      0.00
   10    1    5      1.05      0.00
   10    1    6     -0.10      0.00
   10    1    7      2.59      0.00
   10    1    8     -4.06      0.00
   10    1    9      0.76      0.00
   10    1   10      0.39      0.00
   10    1   11      0.30      0.00
   10    1   12      0.77      0.00
   10    1   13      0.21      0.00
   10    1   14     -0.81      0.00
  -10   -2   14      0.43      0.00
  -10   -2   13     -0.24      0.00
  -10   -2   12      0.42      0.00
  -10   -2   11     -0.66      0.00
  -10   -2   10     -1.27      0.00
  -10   -2    9      1.06      0.00
  -10   -2    8     -0.16      0.00
  -10   -2    7      1.26      0.00
  -10   -2    6      0.59      0.00
  -10   -2    5     -0.51      0.00
  -10   -2    4     -3.62      0.00
  -10   -2    3      3.19      0.00
  -10   -2    2     -1.18      0.00
  -10   -2    1      0.89      0.00
   10    2    0      2.13      0.00
   10    2    1     -3.41      0.00
   10    2    2     -1.90      0.00
   10    2    3      2.27      0.00
   10    2    4      1.08      0.00
   10    2    5     -0.20      0.00
   10    2    6      1.44      0.00
   10    2    7     -3.98      0.00
   10    2    8      1.34      0.00
   10    2    9     -0.06      0.00
   10    2   10      1.87      0.00
   10    2   11      0.43      0.00
   10    2   12     -0.93      0.00
   10    2   13     -0.73      0.00
   10    2   14      0.08      0.00
  -10   -3   13     -0.65      0.00
  -10   -3   12      0.18      0.00
  -10   -3   11     -1.88      0.00
  -10   -3   10      1.66      0.00
  -10   -3    9      0.78      0.00
  -10   -3    8      0.04      0.00
  -10   -3    7      0.48      0.00
  -10   -3    6     -1.99      0.00
  -10   -3    5     -0.09      0.00
  -10   -3    4      0.34      0.00
  -10   -3    3      1.40      0.00
  -10   -3    2     -0.57      0.00
  -10   -3    1      1.26      0.00
   10    3    0     -3.76      0.00
   10    3    1      0.94      0.00
   10    3    2      1.22      0.00
   10    3    3     -0.30      0.00
   10    3    4      1.07      0.00
   10    3    5     -1.06      0.00
   10    3    6     -1.04      0.00
   10    3    7     -0.99      0.00
   10    3    8      2.69      0.00
   10    3    9      0.43      0.00
   10    3   10     -0.01      0.00
   10    3   11     -0.88      0.00
   10    3   12     -0.28      0.00
   10    3   13     -0.47      0.00
   10    3   14      1.22      0.00
  -10   -4   13      0.95      0.00
  -10   -4   12     -1.27      0.00
  -10   -4   11      1.63      0.00
  -10   -4   10      0.51      0.00
  -10   -4    9     -1.38      0.00
  -10   -4    8      2.05      0.00
  -10   -4    7     -2.85      0.00
  -10   -4    6      0.70      0.00
  -10   -4    5      0.15      0.00
  -10   -4    4      2.30      0.00
  -10   -4    3     -2.04      0.00
  -10   -4    2      0.73      0.00
  -10   -4    1     -1.47      0.00
   10    4    0     -0.99      0.00
   10    4    1      2.89      0.00
   10    4    2     -1.63      0.00
   10    4    3      1.53      0.00
   10    4    4     -2.53      0.00
   10    4    5      0.85      0.00
   10    4    6     -1.93      0.00
   10    4    7      4.32      0.00
   10    4    8     -1.80      0.00
   10    4    9      0.75      0.00
   10    4   10     -0.78      0.00
   10    4   11     -1.06      0.00
   10    4   12      0.31      0.00
   10    4   13      2.10      0.00
   10    4   14     -0.28      0.00
  -10   -5   12      2.04      0.00
  -10   -5   11     -0.11      0.00
  -10   -5   10     -0.34      0.00
  -10   -5    9      0.56      0.00
  -10   -5    8     -1.93      0.00
  -10   -5    7     -0.06      0.00
  -10   -5    6      2.62      0.00
  -10   -5    5     -0.40      0.00
  -10   -5    4     -0.61      0.00
  -10   -5    3      0.05      0.00
  -10   -5    2     -1.71      0.00
  -10   -5    1     -0.40      0.00
   10    5    0      4.07      0.00
   10    5    1     -3.06      0.00
   10    5    2      0.86      0.00
   10    5    3     -1.47      0.00
   10    5    4     -0.38      0.00
   10    5    5      0.65      0.00
   10    5    6      2.58      0.00
   10    5    7     -1.97      0.00
   10    5    8      0.14      0.00
   10    5    9     -0.71      0.00
   10    5   10     -0.06      0.00
   10    5   11      1.00      0.00
   10    5   12      1.60      0.00
   10    5   13     -1.55      0.00
   10    5   14      0.74      0.00
  -10   -6   12     -1.41      0.00
  -10   -6   11      0.47      0.00
  -10   -6   10     -0.51      0.00
  -10   -6    9      0.74      0.00
  -10   -6    8     -1.87      0.00
  -10   -6    7      3.51      0.00
  -10   -6    6     -2.26      0.00
  -10   -6    5      1.21      0.00
  -10   -6    4     -0.39      0.00
  -10   -6    3     -2.22      0.00
  -10   -6    2      2.09      0.00
  -10   -6    1      0.22      0.00
   10    6    0     -0.05      0.00
   10    6    1     -0.88      0.00
   10    6    2     -0.15      0.00
   10    6    3     -2.19      0.00
   10    6    4      3.34      0.00
   10    6    5     -0.15      0.00
   10    6    6     -0.75      0.00
   10    6    7     -0.61      0.00
   10    6    8     -0.41      0.00
   10    6    9      0.81      0.00
   10    6   10      0.37      0.00
   10    6   11      2.14      0.00
   10    6   12     -2.31      0.00
   10    6   13      0.78      0.00
   10    6   14     -1.28      0.00
  -10   -7   11     -0.51      0.00
  -10   -7   10      0.39      0.00
  -10   -7    9     -1.67      0.00
  -10   -7    8      3.58      0.00
  -10   -7    7     -2.18      0.00
  -10   -7    6      0.33      0.00
  -10   -7    5      0.56      0.00
  -10   -7    4     -2.24      0.00
  -10   -7    3      2.80      0.00
  -10   -7    2     -1.54      0.00
  -10   -7    1      2.32      0.00
   10    7    0     -3.98      0.00
   10    7    1      1.93      0.00
   10    7    2     -1.72      0.00
   10    7    3      2.32      0.00
   10    7    4     -0.20      0.00
   10    7    5     -1.09      0.00
   10    7    6      0.22      0.00
   10    7    7     -0.98      0.00
   10    7    8      1.38      0.00
   10    7    9      0.34      0.00
   10    7   10      1.82      0.00
   10    7   11     -2.79      0.00
   10    7   12      0.40      0.00
   10    7   13      0.11      0.00
   10    7   14      0.17      0.00
  -10   -8   10      0.06      0.00
  -10   -8    9      1.17      0.00
  -10   -8    8     -1.52      0.00
  -10   -8    7      0.37      0.00
  -10   -8    6      1.32      0.00
  -10   -8    5     -2.10      0.00
  -10   -8    4      1.75      0.00
  -10   -8    3      0.11      0.00
  -10   -8    2     -0.60      0.00
  -10   -8    1     -1.80      0.00
   10    8    0      2.37      0.00
   10    8    1     -1.91      0.00
   10    8    2      0.48      0.00
   10    8    3      2.16      0.00
   10    8    4     -3.18      0.00
   10    8    5      1.80      0.00
   10    8    6     -1.80      0.00
   10    8    7      1.85      0.00
   10    8    8      0.23      0.00
   10    8    9      0.41      0.00
   10    8   10     -1.45      0.00
   10    8   11      0.04      0.00
   10    8   12      1.07      0.00
   10    8   13     -1.50      0.00
  -10   -9    9      0.22      0.00
  -10   -9    8      0.15      0.00
  -10   -9    7      0.14      0.00
  -10   -9    6     -0.77      0.00
  -10   -9    5      0.76      0.00
  -10   -9    4      1.26      0.00
  -10   -9    3     -3.04      0.00
  -10   -9    2      2.05      0.00
  -10   -9    1     -0.86      0.00
   10    9    0     -0.61      0.00
   10    9    1      1.61      0.00
   10    9    2      0.74      0.00
   10    9    3     -3.93      0.00
   10    9    4      2.65      0.00
   10    9    5     -0.87      0.00
   10    9    6      0.80      0.00
   10    9    7      0.24      0.00
   10    9    8     -0.22      0.00
   10    9    9     -0.41      0.00
   10    9   10      0.10      0.00
   10    9   11      0.70      0.00
   10    9   12     -1.31      0.00
   10    9   13      2.35      0.00
  -10  -10    8      0.18      0.00
  -10  -10    7     -0.05      0.00
  -10  -10    6     -0.19      0.00
  -10  -10    5      0.81      0.00
  -10  -10    4     -1.76      0.00
  -10  -10    3      1.55      0.00
  -10  -10    2     -0.90      0.00
  -10  -10    1      0.66      0.00
   10   10    0      0.93      0.00
   10   10    1     -2.07      0.00
   10   10    2     -0.11      0.00
   10   10    3      0.98      0.00
   10   10    4     -0.37      0.00
   10   10    5     -0.49      0.00
   10   10    6      1.73      0.00
   10   10    7     -0.48      0.00
   10   10    8     -1.05      0.00
   10   10    9      1.17      0.00
   10   10   10     -0.86      0.00
   10   10   11      0.35      0.00
   10   10   12      0.38      0.00
  -10  -11    6      0.30      0.00
  -10  -11    5     -0.41      0.00
  -10  -11    4     -0.11      0.00
  -10  -11    3      1.45      0.00
  -10  -11    2     -1.25      0.00
  -10  -11    1      0.70      0.00
   10   11    0     -0.91      0.00
   10   11    1      0.17      0.00
   10   11    2     -1.20      0.00
   10   11    3      1.18      0.00
   10   11    4      0.46      0.00
   10   11    5      0.73      0.00
   10   11    6     -0.62      0.00
   10   11    7     -1.22      0.00
   10   11    8      2.10      0.00
   10   11    9     -2.36      0.00
   10   11   10      1.34      0.00
   10   11   11     -0.79      0.00
  -10  -12    5      0.16      0.00
  -10  -12    4      1.06      0.00
  -10  -12    3     -1.45      0.00
  -10  -12    2      1.35      0.00
  -10  -12    1     -0.91      0.00
   10   12    0     -1.96      0.00
   10   12    1      1.86      0.00
   10   12    2      0.63      0.00
   10   12    3     -0.32      0.00
   10   12    4     -0.22      0.00
   10   12    5      1.30      0.00
   10   12    6     -1.79      0.00
   10   12    7      1.18      0.00
   10   12    8     -2.07      0.00
   10   12    9      0.88      0.00
   10   12   10      0.42      0.00
  -10  -13    2     -0.86      0.00
  -10  -13    1     -0.80      0.00
   10   13    0      2.35      0.00
   10   13    1     -1.86      0.00
   10   13    2      0.97      0.00
   10   13    3      1.11      0.00
   10   13    4     -0.41      0.00
   10   13    5     -1.93      0.00
   10   13    6      1.24      0.00
   10   13    7     -0.78      0.00
   10   13    8     -0.38      0.00
  -11    8    7      0.37      0.00
  -11    8    6     -2.78      0.00
  -11    8    5      1.78      0.00
  -11    8    4     -1.01      0.00
  -11    8    3      0.02      0.00
  -11    8    2      2.13      0.00
  -11    8    1     -1.54      0.00
  -11    8    0      0.02      0.00
   11   -8    1     -0.44      0.00
   11   -8    2     -0.97      0.00
  -11    7    9      1.30      0.00
  -11    7    8     -1.40      0.00
  -11    7    7     -1.17      0.00
  -11    7    6      1.06      0.00
  -11    7    5     -1.32      0.00
  -11    7    4      1.19      0.00
  -11    7    3      2.32      0.00
  -11    7    2     -3.11      0.00
  -11    7    1      0.32      0.00
  -11    7    0     -0.36      0.00
   11   -7    1     -0.32      0.00
   11   -7    2      2.63      0.00
   11   -7    3     -0.76      0.00
   11   -7    4     -0.43      0.00
   11   -7    5     -0.26      0.00
  -11    6   10      1.56      0.00
  -11    6    9     -2.66      0.00
  -11    6    8      0.69      0.00
  -11    6    7      0.18      0.00
  -11    6    6     -0.57      0.00
  -11    6    5      1.61      0.00
  -11    6    4      0.09      0.00
  -11    6    3     -1.66      0.00
  -11    6    2     -0.62      0.00
  -11    6    1      1.60      0.00
  -11    6    0     -1.72      0.00
   11   -6    1      3.27      0.00
   11   -6    2     -1.57      0.00
   11   -6    3      0.52      0.00
   11   -6    4     -1.64      0.00
   11   -6    5      0.47      0.00
   11   -6    6     -0.31      0.00
  -11    5   11      0.93      0.00
  -11    5   10     -2.15      0.00
  -11    5    9      0.51      0.00
  -11    5    8      0.63      0.00
  -11    5    7     -0.26      0.00
  -11    5    6      1.56      0.00
  -11    5    5     -0.92      0.00
  -11    5    4     -1.56      0.00
  -11    5    3     -0.73      0.00
  -11    5    2      2.79      0.00
  -11    5    1     -2.14      0.00
  -11    5    0      3.74      0.00
   11   -5    1     -2.13      0.00
   11   -5    2     -1.22      0.00
   11   -5    3     -0.45      0.00
   11   -5    4      1.43      0.00
   11   -5    5     -0.05      0.00
   11   -5    6      1.39      0.00
   11   -5    7     -1.40      0.00
   11   -5    8      0.15      0.00
  -11    4   11     -0.93      0.00
  -11    4   10     -0.32      0.00
  -11    4    9      2.15      0.00
  -11    4    8     -0.59      0.00
  -11    4    7      0.48      0.00
  -11    4    6     -0.71      0.00
  -11    4    5     -2.69      0.00
  -11    4    4      2.01      0.00
  -11    4    3      0.25      0.00
  -11    4    2      0.49      0.00
  -11    4    1      1.82      0.00
  -11    4    0     -1.93      0.00
   11   -4    1     -2.24      0.00
   11   -4    2      1.42      0.00
   11   -4    3      0.80      0.00
   11   -4    4     -0.03      0.00
   11   -4    5      1.63      0.00
   11   -4    6     -1.88      0.00
   11   -4    7     -0.38      0.00
   11   -4    8     -0.73      0.00
   11   -4    9      1.86      0.00
  -11    3   12     -0.90      0.00
  -11    3   11      0.43      0.00
  -11    3   10      1.72      0.00
  -11    3    9     -0.79      0.00
  -11    3    8     -0.03      0.00
  -11    3    7      0.01      0.00
  -11    3    6     -3.82      0.00
  -11    3    5      3.33      0.00
  -11    3    4     -0.81      0.00
  -11    3    3      2.93      0.00
  -11    3    2     -1.35      0.00
  -11    3    1     -0.67      0.00
  -11    3    0     -2.48      0.00
   11   -3    1      1.57      0.00
   11   -3    2      1.51      0.00
   11   -3    3     -0.84      0.00
   11   -3    4      2.47      0.00
   11   -3    5     -3.87      0.00
   11   -3    6      0.38      0.00
   11   -3    7     -0.06      0.00
   11   -3    8      2.25      0.00
   11   -3    9     -1.42      0.00
   11   -3   10      2.31      0.00
  -11    2   12      1.90      0.00
  -11    2   11     -0.49      0.00
  -11    2   10      0.48      0.00
  -11    2    9     -0.51      0.00
  -11    2    8     -1.03      0.00
  -11    2    7     -2.42      0.00
  -11    2    6      3.21      0.00
  -11    2    5      0.68      0.00
  -11    2    4      0.00      0.00
  -11    2    3     -0.16      0.00
  -11    2    2     -0.80      0.00
  -11    2    1     -2.41      0.00
  -11    2    0      2.37      0.00
   11   -2    1      0.93      0.00
   11   -2    2     -1.46      0.00
   11   -2    3      2.78      0.00
   11   -2    4     -4.41      0.00
   11   -2    5      1.03      0.00
   11   -2    6      0.36      0.00
   11   -2    7      1.37      0.00
   11   -2    8     -0.15      0.00
   11   -2    9      1.13      0.00
   11   -2   10     -2.74      0.00
  -11    1   12     -0.85      0.00
  -11    1   11      0.85      0.00
  -11    1   10     -1.46      0.00
  -11    1    9     -1.35      0.00
  -11    1    8      0.40      0.00
  -11    1    7      1.09      0.00
  -11    1    6      1.94      0.00
  -11    1    5     -2.09      0.00
  -11    1    4      2.38      0.00
  -11    1    3     -4.28      0.00
  -11    1    2      0.17      0.00
  -11    1    1      3.09      0.00
  -11    1    0     -1.23      0.00
   11   -1    1      0.65      0.00
   11   -1    2     -0.35      0.00
   11   -1    3     -2.47      0.00
   11   -1    4      0.73      0.00
   11   -1    5      2.08      0.00
   11   -1    6     -0.53      0.00
   11   -1    7      0.32      0.00
   11   -1    8     -0.30      0.00
   11   -1    9     -1.01      0.00
   11   -1   10      0.01      0.00
   11   -1   11      0.58      0.00
  -11    0   12     -0.36      0.00
  -11    0   11     -0.65      0.00
  -11    0   10     -0.68      0.00
  -11    0    9      0.56      0.00
  -11    0    8      0.58      0.00
  -11    0    7      1.99      0.00
  -11    0    6     -1.83      0.00
  -11    0    5      0.74      0.00
  -11    0    4     -3.56      0.00
  -11    0    3      1.81      0.00
  -11    0    2      1.64      0.00
  -11    0    1     -0.71      0.00
   11    0    0      0.99      0.00
   11    0    1     -2.86      0.00
   11    0    2      0.26      0.00
   11    0    3     -0.08      0.00
   11    0    4      2.69      0.00
   11    0    5     -1.60      0.00
   11    0    6      0.36      0.00
   11    0    7     -0.31      0.00
   11    0    8     -1.62      0.00
   11    0    9      0.85      0.00
   11    0   10      1.53      0.00
   11    0   11     -0.86      0.00
  -11   -1   12     -0.60      0.00
  -11   -1   11     -0.54      0.00
  -11   -1   10      0.27      0.00
  -11   -1    9      2.28      0.00
  -11   -1    8     -0.72      0.00
  -11   -1    7     -0.40      0.00
  -11   -1    6     -1.24      0.00
  -11   -1    5     -0.27      0.00
  -11   -1    4     -0.29      0.00
  -11   -1    3      2.63      0.00
  -11   -1    2     -0.46      0.00
  -11   -1    1     -1.44      0.00
   11    1    0      0.09      0.00
   11    1    1     -1.62      0.00
   11    1    2      0.96      0.00
   11    1    3      1.70      0.00
   11    1    4     -0.38      0.00
   11    1    5     -1.06      0.00
   11    1    6     -0.39      0.00
   11    1    7     -1.72      0.00
   11    1    8      3.11      0.00
   11    1    9     -0.04      0.00
   11    1   10     -1.00      0.00
   11    1   11      0.70      0.00
   11    1   12     -1.11      0.00
  -11   -2   12      0.83      0.00
  -11   -2   11     -0.18      0.00
  -11   -2   10      2.01      0.00
  -11   -2    9     -2.26      0.00
  -11   -2    8      1.09      0.00
  -11   -2    7     -1.83      0.00
  -11   -2    6      0.69      0.00
  -11   -2    5     -0.27      0.00
  -11   -2    4      2.87      0.00
  -11   -2    3     -2.36      0.00
  -11   -2    2     -0.34      0.00
  -11   -2    1      1.34      0.00
   11    2    0     -4.53      0.00
   11    2    1      4.52      0.00
   11    2    2     -1.02      0.00
   11    2    3      0.40      0.00
   11    2    4     -1.95      0.00
   11    2    5      0.57      0.00
   11    2    6     -0.92      0.00
   11    2    7      1.92      0.00
   11    2    8     -0.14      0.00
   11    2    9     -0.01      0.00
   11    2   10     -0.46      0.00
   11    2   11     -1.14      0.00
   11    2   12      1.18      0.00
  -11   -3   11      1.89      0.00
  -11   -3   10     -1.64      0.00
  -11   -3    9     -0.09      0.00
  -11   -3    8     -0.79      0.00
  -11   -3    7      0.38      0.00
  -11   -3    6      1.40      0.00
  -11   -3    5      0.86      0.00
  -11   -3    4     -1.96      0.00
  -11   -3    3      0.31      0.00
  -11   -3    2     -1.35      0.00
  -11   -3    1     -0.43      0.00
   11    3    0      3.33      0.00
   11    3    1     -2.44      0.00
   11    3    2      0.12      0.00
   11    3    3     -0.79      0.00
   11    3    4      0.65      0.00
   11    3    5     -0.81      0.00
   11    3    6      1.05      0.00
   11    3    7      0.69      0.00
   11    3    8     -1.29      0.00
   11    3    9     -0.64      0.00
   11    3   10      0.75      0.00
   11    3   11      0.22      0.00
   11    3   12      0.57      0.00
  -11   -4   11     -1.58      0.00
  -11   -4   10     -0.15      0.00
  -11   -4    9      0.85      0.00
  -11   -4    8     -0.71      0.00
  -11   -4    7      1.60      0.00
  -11   -4    6      0.48      0.00
  -11   -4    5     -1.73      0.00
  -11   -4    4      0.04      0.00
  -11   -4    3     -1.58      0.00
  -11   -4    2      2.58      0.00
  -11   -4    1     -1.57      0.00
   11    4    0      1.66      0.00
   11    4    1     -2.24      0.00
   11    4    2      0.23      0.00
   11    4    3     -0.10      0.00
   11    4    4     -0.33      0.00
   11    4    5      2.08      0.00
   11    4    6     -1.55      0.00
   11    4    7     -0.92      0.00
   11    4    8      0.10      0.00
   11    4    9      1.28      0.00
   11    4   10     -0.72      0.00
   11    4   11      1.59      0.00
   11    4   12     -0.32      0.00
  -11   -5   10      0.21      0.00
  -11   -5    9     -0.44      0.00
  -11   -5    8      1.35      0.00
  -11   -5    7      0.89      0.00
  -11   -5    6     -2.77      0.00
  -11   -5    5      1.32      0.00
  -11   -5    4     -1.32      0.00
  -11   -5    3      1.37      0.00
  -11   -5    2     -0.87      0.00
  -11   -5    1      2.77      0.00
   11    5    0     -4.68      0.00
   11    5    1      1.67      0.00
   11    5    2     -0.17      0.00
   11    5    3     -0.35      0.00
   11    5    4      2.59      0.00
   11    5    5     -3.81      0.00
   11    5    6      1.40      0.00
   11    5    7     -1.10      0.00
   11    5    8      1.86      0.00
   11    5    9     -0.07      0.00
   11    5   10      0.65      0.00
   11    5   11     -0.80      0.00
   11    5   12     -1.20      0.00
  -11   -6   10      0.01      0.00
  -11   -6    9      0.23      0.00
  -11   -6    8      0.65      0.00
  -11   -6    7     -2.07      0.00
  -11   -6    6      1.88      0.00
  -11   -6    5     -0.88      0.00
  -11   -6    4     -0.27      0.00
  -11   -6    3      1.45      0.00
  -11   -6    2     -0.81      0.00
  -11   -6    1     -1.63      0.00
   11    6    0      1.27      0.00
   11    6    1     -0.63      0.00
   11    6    2     -0.45      0.00
   11    6    3      1.93      0.00
   11    6    4     -2.77      0.00
   11    6    5      1.40      0.00
   11    6    6     -1.45      0.00
   11    6    7      1.91      0.00
   11    6    8     -0.23      0.00
   11    6    9      0.18      0.00
   11    6   10     -0.04      0.00
   11    6   11     -1.77      0.00
   11    6   12      1.91      0.00
  -11   -7    9      0.14      0.00
  -11   -7    8     -1.10      0.00
  -11   -7    7      0.96      0.00
  -11   -7    6      0.28      0.00
  -11   -7    5     -1.16      0.00
  -11   -7    4      2.16      0.00
  -11   -7    3     -2.37      0.00
  -11   -7    2      0.61      0.00
  -11   -7    1     -0.26      0.00
   11    7    0      0.13      0.00
   11    7    1      0.03      0.00
   11    7    2     -0.05      0.00
   11    7    3     -0.18      0.00
   11    7    4     -1.32      0.00
   11    7    5      1.31      0.00
   11    7    6     -0.14      0.00
   11    7    7      0.17      0.00
   11    7    8      0.45      0.00
   11    7    9     -1.00      0.00
   11    7   10     -0.56      0.00
   11    7   11      1.81      0.00
   11    7   12     -0.46      0.00
  -11   -8    8      0.52      0.00
  -11   -8    7      0.14      0.00
  -11   -8    6     -0.89      0.00
  -11   -8    5      1.45      0.00
  -11   -8    4     -1.37      0.00
  -11   -8    3     -0.27      0.00
  -11   -8    2      1.00      0.00
  -11   -8    1     -0.29      0.00
   11    8    0     -0.22      0.00
   11    8    1     -0.55      0.00
   11    8    2      0.89      0.00
   11    8    3     -2.82      0.00
   11    8    4      3.85      0.00
   11    8    5     -2.70      0.00
   11    8    6      1.21      0.00
   11    8    7      0.01      0.00
   11    8    8     -1.42      0.00
   11    8    9      1.84      0.00
   11    8   10     -0.56      0.00
   11    8   11      0.21      0.00
  -11   -9    7      0.27      0.00
  -11   -9    6      0.24      0.00
  -11   -9    5     -0.16      0.00
  -11   -9    4     -0.88      0.00
  -11   -9    3      1.90      0.00
  -11   -9    2     -1.42      0.00
  -11   -9    1      0.05      0.00
   11    9    0      0.65      0.00
   11    9    1     -1.45      0.00
   11    9    2     -0.50      0.00
   11    9    3      2.74      0.00
   11    9    4     -2.62      0.00
   11    9    5      1.61      0.00
   11    9    6     -0.48      0.00
   11    9    7     -1.06      0.00
   11    9    8      1.77      0.00
   11    9    9     -1.52      0.00
   11    9   10      1.63      0.00
   11    9   11     -0.96      0.00
  -11  -10    5     -0.35      0.00
  -11  -10    4      0.85      0.00
  -11  -10    3     -0.63      0.00
  -11  -10    2     -0.32      0.00
  -11  -10    1      0.81      0.00
   11   10    0     -2.71      0.00
   11   10    1      2.88      0.00
   11   10    2     -0.97      0.00
   11   10    3     -0.17      0.00
   11   10    4      0.95      0.00
   11   10    5     -0.93      0.00
   11   10    6     -0.36      0.00
   11   10    7      0.25      0.00
   11   10    8      0.02      0.00
   11   10    9      0.64      0.00
   11   10   10     -0.93      0.00
  -11  -11    4      0.18      0.00
  -11  -11    3     -1.02      0.00
  -11  -11    2      0.76      0.00
  -11  -11    1     -1.37      0.00
   11   11    0      1.90      0.00
   11   11    1     -1.73      0.00
   11   11    2      2.09      0.00
   11   11    3     -0.75      0.00
   11   11    4     -1.07      0.00
   11   11    5      0.81      0.00
   11   11    6     -1.43      0.00
   11   11    7      1.55      0.00
   11   11    8     -1.13      0.00
  -11  -12    1      0.33      0.00
   11   12    0      0.75      0.00
   11   12    1      0.45      0.00
   11   12    2     -1.52      0.00
   11   12    3      0.75      0.00
   11   12    4      0.08      0.00
   11   12    5     -2.00      0.00
   11   12    6      2.24      0.00
  -12    6    5     -2.51      0.00
  -12    6    4      1.96      0.00
  -12    6    3      0.05      0.00
  -12    6    2      0.19      0.00
  -12    6    1     -0.41      0.00
  -12    6    0      0.63      0.00
   12   -6    1     -1.85      0.00
   12   -6    2      1.24      0.00
  -12    5    7      0.08      0.00
  -12    5    6     -1.41      0.00
  -12    5    5      1.03      0.00
  -12    5    4      0.54      0.00
  -12    5    3      1.02      0.00
  -12    5    2     -1.07      0.00
  -12    5    1      0.00      0.00
  -12    5    0     -1.42      0.00
   12   -5    1      0.44      0.00
   12   -5    2      1.25      0.00
   12   -5    3      0.63      0.00
   12   -5    4     -0.84      0.00
  -12    4    8     -0.23      0.00
  -12    4    7     -0.31      0.00
  -12    4    6      0.08      0.00
  -12    4    5      2.74      0.00
  -12    4    4     -1.55      0.00
  -12    4    3      0.07      0.00
  -12    4    2     -0.54      0.00
  -12    4    1     -1.24      0.00
  -12    4    0      0.43      0.00
   12   -4    1      2.39      0.00
   12   -4    2     -1.08      0.00
   12   -4    3     -0.95      0.00
   12   -4    4      1.00      0.00
   12   -4    5     -1.50      0.00
  -12    3    9     -0.07      0.00
  -12    3    8      0.22      0.00
  -12    3    7     -0.10      0.00
  -12    3    6      2.68      0.00
  -12    3    5     -1.97      0.00
  -12    3    4      0.53      0.00
  -12    3    3     -1.63      0.00
  -12    3    2     -0.52      0.00
  -12    3    1      1.47      0.00
  -12    3    0      1.05      0.00
   12   -3    1     -1.45      0.00
   12   -3    2      0.25      0.00
   12   -3    3      0.67      0.00
   12   -3    4     -3.26      0.00
   12   -3    5      3.05      0.00
   12   -3    6      0.76      0.00
   12   -3    7     -1.42      0.00
  -12    2    9      0.25      0.00
  -12    2    8      0.88      0.00
  -12    2    7      1.65      0.00
  -12    2    6     -1.66      0.00
  -12    2    5     -1.74      0.00
  -12    2    4      0.97      0.00
  -12    2    3     -0.93      0.00
  -12    2    2      1.61      0.00
  -12    2    1      0.31      0.00
  -12    2    0     -1.03      0.00
   12   -2    1      0.22      0.00
   12   -2    2     -0.99      0.00
   12   -2    3     -0.56      0.00
   12   -2    4      2.98      0.00
   12   -2    5     -1.48      0.00
   12   -2    6     -0.77      0.00
   12   -2    7      1.37      0.00
   12   -2    8     -1.66      0.00
  -12    1    9      1.67      0.00
  -12    1    8     -0.33      0.00
  -12    1    7     -1.45      0.00
  -12    1    6     -1.24      0.00
  -12    1    5      1.86      0.00
  -12    1    4     -2.92      0.00
  -12    1    3      4.07      0.00
  -12    1    2     -0.29      0.00
  -12    1    1     -2.28      0.00
  -12    1    0      0.25      0.00
   12   -1    1     -1.08      0.00
   12   -1    2      1.99      0.00
   12   -1    3     -0.22      0.00
   12   -1    4     -0.11      0.00
   12   -1    5     -0.70      0.00
   12   -1    6      0.09      0.00
   12   -1    7     -1.04      0.00
   12   -1    8      0.85      0.00
  -12    0    9     -1.22      0.00
  -12    0    8     -0.57      0.00
  -12    0    7     -0.41      0.00
  -12    0    6     -0.14      0.00
  -12    0    5     -0.02      0.00
  -12    0    4      3.37      0.00
  -12    0    3     -2.51      0.00
  -12    0    2     -1.00      0.00
  -12    0    1      0.55      0.00
   12    0    0     -1.04      0.00
   12    0    1      1.05      0.00
   12    0    2      0.14      0.00
   12    0    3      1.05      0.00
   12    0    4     -2.36      0.00
   12    0    5     -0.26      0.00
   12    0    6      0.75      0.00
   12    0    7     -0.28      0.00
   12    0    8      1.30      0.00
   12    0    9     -1.02      0.00
  -12   -1    9     -0.92      0.00
  -12   -1    8     -0.22      0.00
  -12   -1    7      0.24      0.00
  -12   -1    6      1.99      0.00
  -12   -1    5     -0.62      0.00
  -12   -1    4     -0.73      0.00
  -12   -1    3     -0.49      0.00
  -12   -1    2     -0.90      0.00
  -12   -1    1      0.60      0.00
   12    1    0     -0.32      0.00
   12    1    1      2.06      0.00
   12    1    2     -1.62      0.00
   12    1    3     -1.08      0.00
   12    1    4      0.26      0.00
   12    1    5      0.36      0.00
   12    1    6     -0.84      0.00
   12    1    7      2.17      0.00
   12    1    8     -2.01      0.00
   12    1    9      0.16      0.00
  -12   -2    9      0.76      0.00
  -12   -2    8      1.01      0.00
  -12   -2    7      0.30      0.00
  -12   -2    6     -0.40      0.00
  -12   -2    5     -0.23      0.00
  -12   -2    4     -1.86      0.00
  -12   -2    3      0.39      0.00
  -12   -2    2      1.48      0.00
  -12   -2    1     -1.61      0.00
   12    2    0      2.60      0.00
   12    2    1     -3.20      0.00
   12    2    2      0.92      0.00
   12    2    3     -0.32      0.00
   12    2    4     -0.18      0.00
   12    2    5     -0.05      0.00
   12    2    6      0.87      0.00
   12    2    7     -1.48      0.00
   12    2    8      0.49      0.00
   12    2    9     -0.32      0.00
   12    2   10      0.39      0.00
  -12   -3    9      0.84      0.00
  -12   -3    8     -0.52      0.00
  -12   -3    7      1.27      0.00
  -12   -3    6     -2.19      0.00
  -12   -3    5     -0.73      0.00
  -12   -3    4      0.88      0.00
  -12   -3    3      0.45      0.00
  -12   -3    2      0.04      0.00
  -12   -3    1      1.12      0.00
   12    3    0     -3.16      0.00
   12    3    1      0.91      0.00
   12    3    2      0.20      0.00
   12    3    3     -0.35      0.00
   12    3    4      0.15      0.00
   12    3    5     -0.13      0.00
   12    3    6     -0.98      0.00
   12    3    7      0.45      0.00
   12    3    8     -0.04      0.00
   12    3    9      1.08      0.00
   12    3   10     -0.85      0.00
  -12   -4    8      0.92      0.00
  -12   -4    7     -1.80      0.00
  -12   -4    6      0.06      0.00
  -12   -4    5      0.79      0.00
  -12   -4    4     -0.01      0.00
  -12   -4    3      0.53      0.00
  -12   -4    2     -0.60      0.00
  -12   -4    1     -0.82      0.00
   12    4    0     -0.15      0.00
   12    4    1     -0.16      0.00
   12    4    2      0.08      0.00
   12    4    3      0.26      0.00
   12    4    4      0.02      0.00
   12    4    5     -2.11      0.00
   12    4    6      1.55      0.00
   12    4    7     -0.24      0.00
   12    4    8      1.12      0.00
   12    4    9     -1.52      0.00
   12    4   10      1.00      0.00
  -12   -5    8     -0.60      0.00
  -12   -5    7     -0.56      0.00
  -12   -5    6      1.75      0.00
  -12   -5    5     -1.24      0.00
  -12   -5    4      0.31      0.00
  -12   -5    3      0.50      0.00
  -12   -5    2     -1.10      0.00
  -12   -5    1     -0.75      0.00
   12    5    0      0.36      0.00
   12    5    1      1.07      0.00
   12    5    2     -1.63      0.00
   12    5    3      1.16      0.00
   12    5    4     -2.49      0.00
   12    5    5      2.22      0.00
   12    5    6     -1.29      0.00
   12    5    7      1.19      0.00
   12    5    8     -0.86      0.00
   12    5    9      0.23      0.00
   12    5   10     -0.84      0.00
  -12   -6    7      1.68      0.00
  -12   -6    6     -1.77      0.00
  -12   -6    5      0.48      0.00
  -12   -6    4      0.70      0.00
  -12   -6    3     -2.38      0.00
  -12   -6    2      1.89      0.00
  -12   -6    1     -0.30      0.00
   12    6    0     -0.31      0.00
   12    6    1     -1.52      0.00
   12    6    2      2.49      0.00
   12    6    3     -2.87      0.00
   12    6    4      1.38      0.00
   12    6    5     -0.63      0.00
   12    6    6      0.29      0.00
   12    6    7      0.09      0.00
   12    6    8     -0.56      0.00
   12    6    9      0.26      0.00
  -12   -7    6      0.41      0.00
  -12   -7    5      0.09      0.00
  -12   -7    4     -1.35      0.00
  -12   -7    3      1.92      0.00
  -12   -7    2     -1.10      0.00
  -12   -7    1     -0.23      0.00
   12    7    0      0.27      0.00
   12    7    1     -0.07      0.00
   12    7    2     -1.68      0.00
   12    7    3      1.27      0.00
   12    7    4      0.38      0.00
   12    7    5     -1.69      0.00
   12    7    6      1.35      0.00
   12    7    7     -1.14      0.00
   12    7    8      0.99      0.00
   12    7    9     -0.10      0.00
  -12   -8    5      0.06      0.00
  -12   -8    4     -0.09      0.00
  -12   -8    3      0.70      0.00
  -12   -8    2     -0.95      0.00
  -12   -8    1      0.41      0.00
   12    8    0     -1.13      0.00
   12    8    1      0.39      0.00
   12    8    2      0.42      0.00
   12    8    3     -0.06      0.00
   12    8    4     -1.42      0.00
   12    8    5      1.54      0.00
   12    8    6     -1.49      0.00
   12    8    7      1.19      0.00
   12    8    8     -0.20      0.00
  -12   -9    3     -1.88      0.00
  -12   -9    2      1.15      0.00
  -12   -9    1     -0.55      0.00
   12    9    0     -0.31      0.00
   12    9    1      0.69      0.00
   12    9    2     -0.56      0.00
   12    9    3      0.21      0.00
   12    9    4     -0.32      0.00
   12    9    5     -0.75      0.00
   12    9    6      0.66      0.00
   12    9    7     -0.04      0.00
  -12  -10    1      0.01      0.00
   12   10    0      1.12      0.00
   12   10    1     -1.13      0.00
   12   10    2      0.74      0.00
   12   10    3     -1.44      0.00
   12   10    4      0.44      0.00
   12   10    5     -0.12      0.00
  -13    3    2      0.61      0.00
  -13    3    1     -1.25      0.00
  -13    3    0     -0.11      0.00
  -13    2    4     -0.27      0.00
  -13    2    3      0.68      0.00
  -13    2    2     -1.81      0.00
  -13    2    1      0.17      0.00
  -13    2    0      0.07      0.00
   13   -2    1      0.14      0.00
   13   -2    2      1.00      0.00
   13   -2    3     -0.35      0.00
  -13    1    5     -0.72      0.00
  -13    1    4      1.42      0.00
  -13    1    3     -2.54      0.00
  -13    1    2     -0.06      0.00
  -13    1    1      0.76      0.00
  -13    1    0      0.64      0.00
   13   -1    1      0.03      0.00
   13   -1    2     -0.79      0.00
   13   -1    3     -0.12      0.00
   13   -1    4     -0.16      0.00
  -13    0    6      0.70      0.00
  -13    0    5     -0.63      0.00
  -13    0    4     -2.22      0.00
  -13    0    3      1.31      0.00
  -13    0    2      1.00      0.00
  -13    0    1     -0.99      0.00
   13    0    0      0.35      0.00
   13    0    1      0.81      0.00
   13    0    2     -1.68      0.00
   13    0    3     -0.76      0.00
   13    0    4      0.70      0.00
   13    0    5      0.83      0.00
  -13   -1    6     -1.98      0.00
  -13   -1    5      0.37      0.00
  -13   -1    4      0.71      0.00
  -13   -1    3      0.19      0.00
  -13   -1    2     -0.29      0.00
  -13   -1    1      1.08      0.00
   13    1    0     -1.12      0.00
   13    1    1     -2.02      0.00
   13    1    2      1.80      0.00
   13    1    3     -0.13      0.00
   13    1    4     -0.83      0.00
   13    1    5      0.07      0.00
   13    1    6      0.88      0.00
  -13   -2    6     -0.18      0.00
  -13   -2    5     -0.03      0.00
  -13   -2    4      1.20      0.00
  -13   -2    3      0.11      0.00
  -13   -2    2     -0.75      0.00
  -13   -2    1     -1.17      0.00
   13    2    0      0.22      0.00
   13    2    1      0.38      0.00
   13    2    2     -0.63      0.00
   13    2    3     -0.22      0.00
   13    2    4      1.13      0.00
   13    2    5     -1.26      0.00
   13    2    6     -0.62      0.00
  -13   -3    5      0.62      0.00
  -13   -3    4     -0.87      0.00
  -13   -3    3     -0.03      0.00
  -13   -3    2     -0.47      0.00
  -13   -3    1     -0.63      0.00
   13    3    0     -0.45      0.00
   13    3    1      1.82      0.00
   13    3    2     -1.47      0.00
   13    3    3      0.71      0.00
   13    3    4     -1.86      0.00
   13    3    5      0.89      0.00
   13    3    6      0.22      0.00
  -13   -4    5     -0.84      0.00
  -13   -4    4      1.11      0.00
  -13   -4    3     -1.32      0.00
  -13   -4    2      0.22      0.00
  -13   -4    1     -0.12      0.00
   13    4    0      0.83      0.00
   13    4    1     -1.70      0.00
   13    4    2      1.63      0.00
   13    4    3     -1.94      0.00
   13    4    4      0.15      0.00
   13    4    5      0.29      0.00
   13    4    6     -0.10      0.00
  -13   -5    4     -0.91      0.00
  -13   -5    3      0.59      0.00
  -13   -5    2     -0.55      0.00
  -13   -5    1      0.73      0.00
   13    5    0     -0.98      0.00
   13    5    1      0.24      0.00
   13    5    2     -1.02      0.00
   13    5    3      0.08      0.00
   13    5    4      0.46      0.00
   13    5    5     -0.60      0.00
   13    5    6      0.34      0.00
  -13   -6    3      0.75      0.00
  -13   -6    2     -0.22      0.00
  -13   -6    1     -1.80      0.00
   13    6    0      1.25      0.00
   13    6    1     -0.57      0.00
   13    6    2     -0.52      0.00
   13    6    3      0.36      0.00
   13    6    4     -0.18      0.00
   13    6    5     -0.14      0.00
  -13   -7    1      1.28      0.00
   13    7    0     -2.52      0.00
   13    7    1      1.60      0.00
   13    7    2      0.13      0.00
   13    7    3     -0.60      0.00
   13    7    4     -0.88      0.00
    1    0    0    -68.37      0.00
   -1    1    0     33.02      0.00
    0    1    0    -78.25      0.00
    1    1    0     17.04      0.00
  -13    4    0     -0.45      0.00
  -13    5    0      0.95      0.00
  -12    7    0      0.17      0.00
   13    8    0      1.86      0.00
  -11    9    0     -0.03      0.00
   13    9    0     -0.09      0.00
  -10   11    0      0.68      0.00
   12   11    0      0.06      0.00
   -9   12    0     -2.31      0.00
   11   13    0     -0.85      0.00
   10   14    0     -0.58      0.00
    9   15    0      0.66      0.00
   -5   16    0      1.06      0.00
    8   16    0      0.77      0.00
   -4   17    0      1.24      0.00
   -3   17    0     -1.66      0.00
    6   17    0     -1.76      0.00
    7   17    0      0.89      0.00
   -2   18    0     -1.37      0.00
   -1   18    0      0.52      0.00
    0   18    0      0.70      0.00
    1   18    0     -0.94      0.00
    2   18    0     -0.02      0.00
    3   18    0     -0.56      0.00
    4   18    0      0.95      0.00
    5   18    0     -1.33      0.00
   -4  -18    1     -0.45      0.00
   -3  -18    1     -0.05      0.00
   -2  -18    1      0.93      0.00
   -1  -18    1      0.06      0.00
    0  -18    1     -0.21      0.00
    1  -18    1     -0.34      0.00
   -7  -17    1     -0.28      0.00
   -6  -17    1      1.88      0.00
    3  -17    1      0.13      0.00
   -8  -16    1     -0.81      0.00
    5  -16    1      0.58      0.00
   -9  -15    1     -0.44      0.00
    6  -15    1      0.66      0.00
  -10  -14    1      0.52      0.00
    7  -14    1     -0.93      0.00
  -11  -13    1      0.40      0.00
    8  -13    1      1.12      0.00
    9  -12    1      1.17      0.00
  -12  -11    1     -0.23      0.00
   10  -11    1     -1.00      0.00
  -13   -9    1     -0.37      0.00
   11   -9    1     -0.91      0.00
  -13   -8    1     -0.89      0.00
   12   -7    1      0.73      0.00
   13   -4    1     -0.83      0.00
   13   -3    1      0.60      0.00
   -1   -1    1    -21.16      0.00
    0   -1    1     73.75      0.00
   -1    0    1     30.36      0.00
    0    0    1    -88.76      0.00
    1    0    1     21.69      0.00
   -1    1    1     -1.49      0.00
    0    1    1     56.65      0.00
    1    1    1      7.75      0.00
    0    2    1    -30.41      0.00
  -13    4    1      0.54      0.00
  -13    5    1      0.26      0.00
  -12    7    1     -0.55      0.00
   13    8    1     -1.58      0.00
  -11    9    1      0.34      0.00
   13    9    1      0.23      0.00
  -10   11    1      0.15      0.00
   12   11    1      0.01      0.00
   11   13    1      0.51      0.00
   -8   14    1     -0.62      0.00
   10   14    1      1.29      0.00
   -7   15    1     -0.44      0.00
    9   15    1     -0.78      0.00
   -5   16    1     -3.38      0.00
    8   16    1     -1.56      0.00
   -4   17    1     -0.77      0.00
    7   17    1     -1.90      0.00
   -2   18    1      2.29      0.00
   -1   18    1     -0.89      0.00
    4   18    1     -1.01      0.00
    5   18    1      0.78      0.00
   -3  -18    2      1.06      0.00
   -2  -18    2     -1.31      0.00
   -1  -18    2     -0.10      0.00
    0  -18    2      1.60      0.00
   -6  -17    2     -1.31      0.00
   -5  -17    2     -0.28      0.00
    2  -17    2     -1.06      0.00
    3  -17    2      0.68      0.00
   -8  -16    2      0.09      0.00
   -7  -16    2      0.75      0.00
    5  -16    2      0.53      0.00
   -9  -15    2     -0.14      0.00
    6  -15    2      0.20      0.00
  -10  -14    2      0.03      0.00
    7  -14    2      0.29      0.00
    8  -13    2      0.28      0.00
  -11  -12    2     -0.68      0.00
    9  -12    2      0.63      0.00
  -12  -11    2      0.58      0.00
   10  -11    2      0.39      0.00
  -12  -10    2     -0.73      0.00
   11   -9    2      0.58      0.00
  -13   -8    2      0.07      0.00
  -13   -7    2     -0.46      0.00
   12   -7    2     -1.69      0.00
   13   -4    2      0.82      0.00
   13   -3    2     -0.59      0.00
    0    0    2     33.71      0.00
    0    1    2    -43.89      0.00
    1    1    2    -11.43      0.00
    0    2    2     23.33      0.00
  -13    4    2      0.76      0.00
  -13    5    2     -0.78      0.00
  -12    7    2      1.80      0.00
   13    8    2      0.05      0.00
  -11    9    2      0.98      0.00
   13    9    2     -0.66      0.00
  -11   10    2     -1.28      0.00
  -10   11    2     -0.05      0.00
   12   11    2     -0.97      0.00
   -9   13    2      0.23      0.00
   11   13    2      0.69      0.00
   -8   14    2     -1.50      0.00
   10   14    2     -0.12      0.00
   -7   15    2     -0.32      0.00
   -6   16    2     -0.73      0.00
    8   16    2      1.46      0.00
   -4   17    2      1.26      0.00
    7   17    2      0.98      0.00
   -2   18    2     -2.33      0.00
   -1   18    2      1.22      0.00
    4   18    2      0.26      0.00
    5   18    2      0.19      0.00
   -6  -17    3      0.46      0.00
   -5  -17    3      0.87      0.00
    1  -17    3     -0.25      0.00
    2  -17    3     -0.75      0.00
   -7  -16    3     -0.89      0.00
    4  -16    3      0.83      0.00
   -8  -15    3      0.45      0.00
    6  -15    3     -0.03      0.00
    7  -14    3     -1.67      0.00
  -10  -13    3      0.19      0.00
    8  -13    3     -0.83      0.00
  -11  -12    3      0.32      0.00
    9  -12    3      0.27      0.00
  -12  -10    3      0.79      0.00
   10  -10    3      0.10      0.00
   11   -9    3     -0.87      0.00
  -13   -8    3     -0.31      0.00
   11   -8    3      1.65      0.00
  -13   -7    3     -0.92      0.00
   12   -7    3      0.52      0.00
   12   -6    3     -0.31      0.00
   13   -4    3     -0.15      0.00
   13   -3    3     -0.03      0.00
    0    2    3     -1.63      0.00
  -13    3    3      0.70      0.00
  -13    4    3     -0.82      0.00
  -13    5    3      0.37      0.00
  -12    7    3     -0.78      0.00
   13    8    3     -0.11      0.00
  -11    9    3     -0.63      0.00
   13    9    3     -0.61      0.00
  -11   10    3     -0.18      0.00
  -10   11    3      0.86      0.00
   12   11    3      0.51      0.00
   -9   13    3      1.24      0.00
   11   13    3     -2.06      0.00
   -8   14    3      2.73      0.00
   10   14    3     -1.42      0.00
   -7   15    3     -0.12      0.00
   -6   16    3      0.43      0.00
    9   16    3      0.76      0.00
   -4   17    3     -0.88      0.00
    7   17    3      0.50      0.00
   -2   18    3      0.49      0.00
   -1   18    3      0.83      0.00
    5   18    3     -0.53      0.00
    6   18    3     -0.23      0.00
   -5  -17    4     -0.19      0.00
   -4  -17    4      0.88      0.00
   -3  -17    4     -1.60      0.00
   -2  -17    4      1.93      0.00
   -1  -17    4     -0.12      0.00
    0  -17    4     -2.30      0.00
    1  -17    4      0.33      0.00
    2  -17    4      0.50      0.00
   -7  -16    4      0.44      0.00
   -6  -16    4     -0.22      0.00
    3  -16    4      0.88      0.00
    4  -16    4     -1.20      0.00
   -8  -15    4     -0.84      0.00
    5  -15    4     -1.64      0.00
   -9  -14    4      0.35      0.00
  -10  -13    4      0.06      0.00
  -11  -12    4     -0.22      0.00
    9  -11    4     -0.17      0.00
  -12  -10    4     -0.78      0.00
   10  -10    4      0.38      0.00
  -12   -9    4      1.25      0.00
   11   -8    4      1.04      0.00
  -13   -7    4      0.87      0.00
  -13   -6    4     -0.14      0.00
   12   -6    4      0.47      0.00
   13   -3    4      1.70      0.00
   13   -2    4     -1.80      0.00
  -13    3    4     -0.48      0.00
  -13    4    4      1.29      0.00
  -12    7    4     -1.76      0.00
   13    8    4     -0.02      0.00
  -11    9    4      0.03      0.00
   13    9    4      0.67      0.00
  -10   11    4     -0.77      0.00
   12   11    4     -0.57      0.00
   -9   13    4     -0.88      0.00
   11   13    4      0.44      0.00
   -8   14    4     -1.20      0.00
   10   14    4      0.74      0.00
   -7   15    4     -0.66      0.00
   -6   16    4     -0.44      0.00
    9   16    4     -0.72      0.00
   -4   17    4     -0.75      0.00
    7   17    4     -1.92      0.00
   -2   18    4      0.46      0.00
    5   18    4     -0.17      0.00
    6   18    4     -0.10      0.00
   -4  -17    5      0.05      0.00
   -3  -17    5      0.26      0.00
   -2  -17    5     -0.36      0.00
   -1  -17    5     -0.61      0.00
    0  -17    5      2.02      0.00
   -6  -16    5     -0.08      0.00
    2  -16    5      1.56      0.00
    3  -16    5     -2.09      0.00
   -8  -15    5      0.73      0.00
   -7  -15    5     -0.38      0.00
    5  -15    5      1.52      0.00
   -9  -14    5     -0.16      0.00
    6  -14    5      0.84      0.00
  -10  -13    5     -0.30      0.00
    7  -13    5      0.04      0.00
    8  -12    5      0.12      0.00
  -11  -11    5      0.28      0.00
    9  -11    5     -1.01      0.00
  -12   -9    5     -0.65      0.00
   10   -9    5     -1.42      0.00
   11   -8    5     -0.92      0.00
  -13   -7    5     -0.20      0.00
  -13   -6    5      0.00      0.00
   12   -6    5      0.49      0.00
  -13   -5    5      0.83      0.00
   12   -5    5     -0.69      0.00
   13   -3    5     -1.76      0.00
   13   -2    5      1.04      0.00
   13   -1    5     -0.50      0.00
  -13    2    5      1.02      0.00
  -13    3    5      1.13      0.00
  -13    4    5     -2.18      0.00
  -12    7    5      1.79      0.00
   13    7    5      0.75      0.00
   13    8    5     -0.42      0.00
  -11    9    5     -1.65      0.00
  -10   11    5     -1.55      0.00
   12   11    5      0.24      0.00
   -9   13    5     -0.64      0.00
   11   13    5      1.32      0.00
   -8   14    5      0.42      0.00
   10   14    5      0.14      0.00
   -7   15    5      1.25      0.00
   -6   16    5      0.26      0.00
   -4   17    5      0.96      0.00
    7   17    5      1.69      0.00
   -2   18    5      0.14      0.00
    5   18    5      0.74      0.00
    6   18    5      0.23      0.00
   -5  -16    6     -1.34      0.00
   -4  -16    6      1.90      0.00
    1  -16    6     -0.41      0.00
    2  -16    6     -0.30      0.00
   -7  -15    6      0.05      0.00
    4  -15    6     -0.35      0.00
   -8  -14    6      0.82      0.00
    6  -14    6     -1.07      0.00
   -9  -13    6     -0.24      0.00
    7  -13    6     -0.79      0.00
  -10  -12    6     -0.28      0.00
    8  -12    6      0.67      0.00
  -11  -11    6     -0.13      0.00
  -11  -10    6      0.43      0.00
  -12   -9    6      0.48      0.00
   10   -9    6      0.90      0.00
  -12   -8    6     -0.28      0.00
   11   -7    6     -0.10      0.00
  -13   -6    6      0.42      0.00
  -13   -5    6     -0.62      0.00
   12   -5    6      0.08      0.00
  -13   -4    6     -0.82      0.00
   12   -4    6      0.27      0.00
  -13   -3    6      1.62      0.00
   13   -2    6      0.30      0.00
   13   -1    6      0.26      0.00
   13    0    6     -0.75      0.00
  -13    1    6      0.18      0.00
  -13    2    6      0.83      0.00
  -13    3    6     -1.37      0.00
  -12    6    6      0.82      0.00
   13    6    6     -0.02      0.00
  -12    7    6     -0.84      0.00
   13    7    6     -0.21      0.00
   13    8    6      0.53      0.00
  -11    9    6      0.87      0.00
   12   10    6      0.10      0.00
  -10   11    6      0.67      0.00
   12   11    6      0.85      0.00
   -9   12    6     -1.04      0.00
   11   13    6     -1.20      0.00
   -8   14    6      0.00      0.00
   10   14    6     -1.01      0.00
   -7   15    6      0.99      0.00
    9   15    6     -1.38      0.00
   -6   16    6     -0.21      0.00
    8   16    6      0.52      0.00
   -4   17    6      0.22      0.00
    7   17    6     -0.41      0.00
   -2   18    6      1.05      0.00
   -1   18    6     -0.92      0.00
    5   18    6     -0.36      0.00
    6   18    6     -0.87      0.00
   -4  -16    7     -1.31      0.00
   -3  -16    7      0.90      0.00
   -2  -16    7     -0.74      0.00
   -1  -16    7      1.24      0.00
    0  -16    7     -1.39      0.00
    1  -16    7      0.91      0.00
   -6  -15    7     -0.28      0.00
    3  -15    7     -2.31      0.00
   -8  -14    7     -0.02      0.00
    5  -14    7     -1.55      0.00
   -9  -13    7      0.22      0.00
    6  -13    7      0.08      0.00
  -10  -12    7      0.18      0.00
    7  -12    7     -0.98      0.00
  -10  -11    7      0.03      0.00
    8  -11    7     -2.11      0.00
  -11  -10    7     -0.12      0.00
    9  -10    7      0.15      0.00
  -12   -8    7      0.37      0.00
   10   -8    7      0.89      0.00
  -12   -7    7     -0.83      0.00
   11   -7    7     -0.31      0.00
   11   -6    7      2.23      0.00
  -13   -4    7      1.76      0.00
   12   -4    7      1.59      0.00
  -13   -3    7     -1.91      0.00
  -13   -2    7      0.14      0.00
  -13   -1    7     -0.20      0.00
   13   -1    7      0.92      0.00
  -13    0    7     -0.49      0.00
   13    0    7      0.07      0.00
  -13    1    7      1.50      0.00
   13    1    7     -1.42      0.00
  -13    2    7     -1.16      0.00
   13    2    7      0.78      0.00
  -13    3    7     -0.53      0.00
   13    3    7     -0.42      0.00
   13    4    7      0.31      0.00
   13    5    7     -0.38      0.00
  -12    6    7     -0.63      0.00
   13    6    7     -0.14      0.00
   13    7    7      0.25      0.00
  -11    9    7      0.52      0.00
   12   10    7      0.76      0.00
  -10   11    7      0.47      0.00
   12   11    7     -0.49      0.00
   -9   12    7      0.01      0.00
   11   12    7     -1.51      0.00
   11   13    7      1.48      0.00
   10   14    7      0.08      0.00
   -7   15    7     -0.49      0.00
    9   15    7     -0.39      0.00
   -5   16    7     -0.62      0.00
    8   16    7     -1.05      0.00
   -4   17    7      0.88      0.00
    7   17    7      0.08      0.00
   -2   18    7     -1.23      0.00
   -1   18    7      1.06      0.00
    4   18    7      0.24      0.00
    5   18    7     -0.25      0.00
   -2  -16    8      0.12      0.00
   -1  -16    8     -0.78      0.00
   -5  -15    8      0.43      0.00
   -4  -15    8     -0.85      0.00
    1  -15    8      0.13      0.00
    2  -15    8     -0.96      0.00
    3  -15    8      1.27      0.00
   -7  -14    8      0.29      0.00
    4  -14    8     -0.05      0.00
   -8  -13    8      0.86      0.00
    6  -13    8      0.14      0.00
   -9  -12    8     -0.28      0.00
    7  -12    8      2.29      0.00
  -10  -11    8     -0.24      0.00
    8  -11    8      1.11      0.00
  -11   -9    8     -0.06      0.00
    9   -9    8      0.30      0.00
   10   -8    8     -0.29      0.00
  -12   -7    8      0.61      0.00
  -12   -6    8     -0.13      0.00
   11   -6    8     -0.75      0.00
  -13   -3    8      0.92      0.00
   12   -3    8      0.53      0.00
  -13   -2    8     -1.33      0.00
  -13   -1    8      0.35      0.00
  -13    0    8      0.77      0.00
  -13    1    8     -0.29      0.00
   13    1    8      0.15      0.00
   13    2    8      0.03      0.00
   13    3    8      0.12      0.00
   13    4    8     -0.84      0.00
  -12    5    8     -0.98      0.00
   13    5    8      0.08      0.00
  -12    6    8     -0.44      0.00
   13    6    8      0.31      0.00
  -11    8    8      0.69      0.00
  -11    9    8      0.19      0.00
   12    9    8      0.53      0.00
  -10   10    8     -0.95      0.00
   12   10    8     -0.69      0.00
   -9   12    8     -0.37      0.00
   11   12    8      2.01      0.00
   -8   13    8      0.06      0.00
   -7   14    8     -0.70      0.00
   10   14    8      1.97      0.00
   -6   15    8      0.99      0.00
    9   15    8      1.81      0.00
   -5   16    8      0.29      0.00
    8   16    8      0.36      0.00
   -4   17    8     -0.94      0.00
   -3   17    8      1.84      0.00
    6   17    8      1.05      0.00
    7   17    8     -0.41      0.00
   -2   18    8      0.33      0.00
   -1   18    8     -0.31      0.00
    0   18    8     -1.29      0.00
    3   18    8     -0.49      0.00
    4   18    8     -0.34      0.00
    5   18    8     -0.15      0.00
   -4  -15    9     -0.24      0.00
   -3  -15    9      1.10      0.00
   -2  -15    9     -1.56      0.00
   -1  -15    9      0.54      0.00
    0  -15    9      0.63      0.00
    1  -15    9     -1.30      0.00
   -6  -14    9      0.71      0.00
    3  -14    9      0.18      0.00
   -7  -13    9      0.02      0.00
    5  -13    9      1.22      0.00
    6  -12    9     -0.64      0.00
   -9  -11    9     -0.56      0.00
    7  -11    9     -0.09      0.00
  -10  -10    9     -0.03      0.00
    8  -10    9      0.13      0.00
    9   -9    9     -0.69      0.00
  -11   -8    9      0.26      0.00
   10   -7    9     -0.24      0.00
  -12   -6    9     -0.08      0.00
  -12   -5    9      0.44      0.00
   11   -5    9     -0.46      0.00
  -12   -4    9     -0.71      0.00
   12   -2    9      0.03      0.00
   12   -1    9      0.41      0.00
  -12    4    9     -1.69      0.00
  -12    5    9      0.22      0.00
  -11    8    9      0.76      0.00
   12    8    9      0.11      0.00
   12    9    9     -0.38      0.00
  -10   10    9      1.52      0.00
   11   11    9      1.07      0.00
   -9   12    9      0.79      0.00
   11   12    9     -0.40      0.00
   -8   13    9     -1.88      0.00
   10   13    9      1.89      0.00
   -7   14    9     -0.89      0.00
   -6   15    9     -0.33      0.00
    9   15    9     -1.96      0.00
   -5   16    9     -0.47      0.00
    8   16    9     -1.19      0.00
   -3   17    9      0.42      0.00
    6   17    9     -1.40      0.00
   -1   18    9      0.29      0.00
    0   18    9      1.55      0.00
    1   18    9     -1.10      0.00
    2   18    9     -0.76      0.00
    3   18    9      0.98      0.00
    4   18    9     -0.03      0.00
   -5  -14   10      0.25      0.00
   -4  -14   10     -0.49      0.00
    1  -14   10     -1.25      0.00
    2  -14   10     -0.07      0.00
   -7  -13   10      0.07      0.00
   -6  -13   10     -0.13      0.00
    4  -13   10     -0.41      0.00
   -8  -12   10     -0.96      0.00
    5  -12   10     -2.47      0.00
   -9  -11   10      0.44      0.00
  -10   -9   10      0.06      0.00
    8   -9   10     -1.50      0.00
  -11   -8   10     -0.68      0.00
    9   -8   10      0.69      0.00
  -11   -7   10      0.70      0.00
   10   -6   10      0.02      0.00
  -12   -5   10     -0.20      0.00
  -12   -4   10      0.52      0.00
   11   -4   10     -0.53      0.00
  -12   -3   10      0.66      0.00
  -12   -2   10     -1.03      0.00
  -12   -1   10     -0.59      0.00
   12   -1   10     -0.14      0.00
  -12    0   10      0.92      0.00
   12    0   10     -0.23      0.00
  -12    1   10      0.51      0.00
   12    1   10      0.00      0.00
  -12    2   10     -0.25      0.00
  -12    3   10     -1.20      0.00
  -12    4   10      0.50      0.00
   12    6   10      0.21      0.00
  -11    7   10      0.45      0.00
   12    7   10      0.51      0.00
   12    8   10     -0.32      0.00
  -10    9   10      1.06      0.00
  -10   10   10     -0.11      0.00
   -9   11   10      1.25      0.00
   11   11   10      0.73      0.00
   -8   13   10      2.07      0.00
   10   13   10     -0.99      0.00
   -7   14   10     -0.91      0.00
    9   14   10     -3.05      0.00
   -6   15   10      1.02      0.00
    8   15   10     -2.36      0.00
   -5   16   10      1.23      0.00
   -4   16   10     -1.03      0.00
    7   16   10      0.07      0.00
   -3   17   10      0.70      0.00
   -2   17   10     -0.01      0.00
    5   17   10     -0.21      0.00
    6   17   10      1.61      0.00
   -1   18   10     -0.28      0.00
    0   18   10     -0.53      0.00
    1   18   10      0.31      0.00
    2   18   10      0.95      0.00
    3   18   10     -0.75      0.00
    4   18   10      0.22      0.00
   -3  -14   11     -0.65      0.00
   -2  -14   11      0.39      0.00
   -1  -14   11      0.79      0.00
    0  -14   11     -1.99      0.00
    1  -14   11      1.84      0.00
   -6  -13   11      0.30      0.00
   -5  -13   11     -0.43      0.00
    2  -13   11      0.72      0.00
    3  -13   11     -0.78      0.00
   -7  -12   11      0.46      0.00
    4  -12   11     -2.12      0.00
    5  -12   11      0.75      0.00
   -8  -11   11     -0.16      0.00
    6  -11   11      0.21      0.00
   -9  -10   11      0.67      0.00
    7  -10   11      1.72      0.00
    8   -9   11     -0.23      0.00
  -10   -8   11      0.07      0.00
    9   -7   11      0.49      0.00
  -11   -6   11      0.40      0.00
  -11   -5   11      0.23      0.00
   10   -5   11     -1.04      0.00
  -12   -3   11     -0.59      0.00
   11   -3   11     -2.46      0.00
  -12   -2   11     -0.53      0.00
   11   -2   11      0.96      0.00
  -12   -1   11      0.33      0.00
  -12    0   11      0.61      0.00
  -12    1   11     -0.28      0.00
   12    1   11      0.00      0.00
  -12    2   11     -0.27      0.00
   12    2   11      0.46      0.00
   12    3   11      0.43      0.00
   12    4   11     -1.04      0.00
   12    5   11      0.86      0.00
  -11    6   11     -0.91      0.00
   12    6   11      0.64      0.00
  -11    7   11     -0.23      0.00
   12    7   11     -0.55      0.00
  -10    9   11      0.69      0.00
   11   10   11      1.07      0.00
   -9   11   11      0.87      0.00
   -8   12   11      1.52      0.00
   10   12   11      0.48      0.00
   -7   13   11     -1.58      0.00
    9   14   11      1.89      0.00
   -5   15   11      0.39      0.00
    8   15   11     -0.75      0.00
   -4   16   11     -1.03      0.00
    7   16   11     -1.31      0.00
   -2   17   11      0.12      0.00
   -1   17   11      1.27      0.00
    4   17   11      0.04      0.00
    5   17   11      0.45      0.00
    1   18   11     -0.47      0.00
    2   18   11     -0.45      0.00
    3   18   11      0.04      0.00
   -4  -13   12     -0.60      0.00
   -3  -13   12      0.52      0.00
   -2  -13   12     -0.47      0.00
   -1  -13   12      0.21      0.00
    0  -13   12      0.34      0.00
    1  -13   12     -0.95      0.00
    2  -13   12      0.49      0.00
   -6  -12   12      0.31      0.00
   -5  -12   12      0.30      0.00
    3  -12   12     -1.37      0.00
    4  -12   12      2.18      0.00
   -7  -11   12      0.47      0.00
    5  -11   12      1.04      0.00
   -8  -10   12      0.32      0.00
    6  -10   12     -1.28      0.00
   -9   -9   12      1.06      0.00
    7   -9   12     -0.98      0.00
    8   -8   12      0.04      0.00
  -10   -7   12      0.79      0.00
    9   -6   12      0.24      0.00
  -11   -5   12     -0.76      0.00
  -11   -4   12      0.85      0.00
   10   -4   12      0.35      0.00
  -11   -3   12     -0.49      0.00
   11   -2   12     -0.18      0.00
   11   -1   12      0.12      0.00
   11    0   12      0.49      0.00
  -11    4   12     -0.41      0.00
  -11    5   12     -0.91      0.00
  -10    8   12      1.27      0.00
   11    8   12      0.10      0.00
   11    9   12      0.36      0.00
   -9   10   12      0.53      0.00
   11   10   12     -0.28      0.00
   10   11   12      0.60      0.00
   -8   12   12     -0.10      0.00
   10   12   12      0.02      0.00
   -7   13   12      0.46      0.00
    9   13   12      1.38      0.00
   -6   14   12      1.03      0.00
    8   14   12     -1.93      0.00
   -5   15   12      1.22      0.00
    7   15   12     -1.01      0.00
   -4   16   12      0.81      0.00
   -3   16   12     -1.02      0.00
    6   16   12     -0.21      0.00
   -2   17   12      0.46      0.00
   -1   17   12     -1.84      0.00
    0   17   12      0.51      0.00
    1   17   12      1.58      0.00
    2   17   12     -1.19      0.00
    3   17   12     -0.35      0.00
    4   17   12      0.50      0.00
    5   17   12     -0.44      0.00
   -5  -12   13     -0.20      0.00
   -4  -12   13      0.06      0.00
   -3  -12   13     -0.15      0.00
    0  -12   13      1.28      0.00
    1  -12   13     -0.72      0.00
    2  -12   13     -0.78      0.00
   -6  -11   13      0.14      0.00
    3  -11   13      1.49      0.00
    4  -11   13     -0.76      0.00
   -7  -10   13      0.11      0.00
    5  -10   13     -0.42      0.00
   -8   -9   13      0.72      0.00
    6   -9   13      0.73      0.00
   -9   -8   13      0.56      0.00
    7   -8   13      0.39      0.00
   -9   -7   13      0.87      0.00
    8   -7   13     -0.14      0.00
  -10   -6   13      1.62      0.00
  -10   -5   13     -1.43      0.00
    9   -5   13     -1.07      0.00
  -11   -3   13      0.56      0.00
   10   -3   13     -1.27      0.00
  -11   -2   13     -0.67      0.00
   10   -2   13      1.11      0.00
  -11   -1   13     -0.28      0.00
  -11    0   13     -0.47      0.00
   11    0   13     -0.65      0.00
  -11    1   13      1.90      0.00
   11    1   13      0.54      0.00
  -11    2   13     -1.29      0.00
   11    2   13      0.46      0.00
  -11    3   13     -0.44      0.00
   11    3   13      0.32      0.00
  -11    4   13     -0.19      0.00
   11    4   13     -1.14      0.00
   11    5   13      1.55      0.00
  -10    6   13     -0.92      0.00
   11    6   13     -0.45      0.00
  -10    7   13      1.28      0.00
   11    7   13      0.54      0.00
   11    8   13      0.04      0.00
   -9    9   13      0.45      0.00
   10   10   13     -1.08      0.00
   -8   11   13      0.27      0.00
   10   11   13      0.29      0.00
   -7   12   13     -0.90      0.00
    9   12   13      0.77      0.00
    9   13   13     -0.33      0.00
   -6   14   13     -1.95      0.00
   -5   14   13      1.30      0.00
    8   14   13      1.75      0.00
   -4   15   13     -0.49      0.00
    7   15   13     -0.24      0.00
   -3   16   13     -0.17      0.00
   -2   16   13      0.34      0.00
    5   16   13     -0.09      0.00
    6   16   13      0.06      0.00
   -1   17   13      1.15      0.00
    0   17   13      0.37      0.00
    1   17   13     -1.82      0.00
    2   17   13      0.87      0.00
    3   17   13      0.81      0.00
    4   17   13      0.06      0.00
   -2  -12   14     -0.89      0.00
   -1  -12   14      1.34      0.00
    0  -12   14     -1.71      0.00
   -5  -11   14     -0.73      0.00
   -4  -11   14      1.17      0.00
    1  -11   14     -0.83      0.00
    2  -11   14      0.99      0.00
    3  -11   14     -1.40      0.00
   -6  -10   14      0.62      0.00
    4  -10   14      1.29      0.00
   -7   -9   14     -0.07      0.00
    5   -9   14      2.45      0.00
   -8   -8   14     -0.32      0.00
    6   -8   14     -0.19      0.00
   -9   -7   14     -0.34      0.00
    7   -7   14      1.68      0.00
   -9   -6   14      0.64      0.00
    8   -6   14      0.72      0.00
  -10   -4   14     -0.87      0.00
    9   -4   14      0.56      0.00
  -10   -3   14      0.65      0.00
    9   -3   14      0.43      0.00
   10   -2   14     -1.25      0.00
   10   -1   14      1.67      0.00
   10    0   14      0.00      0.00
   11    3   14     -0.43      0.00
  -10    4   14     -0.61      0.00
   11    4   14      0.38      0.00
  -10    5   14     -0.46      0.00
   11    5   14     -0.32      0.00
  -10    6   14      0.62      0.00
   -9    8   14      1.51      0.00
   10    8   14      2.31      0.00
   -9    9   14      0.13      0.00
   10    9   14     -2.10      0.00
   -8   10   14      0.00      0.00
   10   10   14      1.20      0.00
    9   11   14     -1.04      0.00
   -7   12   14     -0.06      0.00
    9   12   14      0.27      0.00
   -6   13   14     -1.82      0.00
    8   13   14      1.55      0.00
   -5   14   14      0.30      0.00
    7   14   14     -0.74      0.00
   -4   15   14      0.53      0.00
   -3   15   14      0.64      0.00
    6   15   14      0.00      0.00
   -2   16   14      0.58      0.00
   -1   16   14      1.45      0.00
    0   16   14     -1.03      0.00
    3   16   14     -1.35      0.00
    4   16   14      1.98      0.00
    5   16   14      0.05      0.00
   -3  -11   15      0.01      0.00
   -2  -11   15      0.16      0.00
   -1  -11   15     -1.11      0.00
    0  -11   15      1.27      0.00
   -5  -10   15     -0.19      0.00
   -4  -10   15     -0.24      0.00
    2  -10   15      0.38      0.00
    3  -10   15      0.19      0.00
   -6   -9   15      0.34      0.00
    4   -9   15      1.24      0.00
   -7   -8   15     -0.41      0.00
    5   -8   15      1.74      0.00
   -8   -7   15      0.10      0.00
    6   -7   15      1.52      0.00
   -8   -6   15      0.17      0.00
    7   -6   15     -0.51      0.00
   -9   -5   15      0.30      0.00
    8   -5   15     -0.86      0.00
   -9   -4   15      0.49      0.00
    8   -4   15      0.00      0.00
    9   -3   15      0.58      0.00
  -10   -2   15      0.21      0.00
    9   -2   15     -0.38      0.00
  -10   -1   15     -0.67      0.00
  -10    0   15      0.84      0.00
   10    0   15     -0.55      0.00
  -10    1   15     -1.18      0.00
   10    1   15      0.03      0.00
  -10    2   15      0.41      0.00
   10    2   15      0.64      0.00
  -10    3   15     -0.38      0.00
   10    3   15      0.48      0.00
  -10    4   15     -0.23      0.00
   10    4   15     -0.32      0.00
   10    5   15     -0.86      0.00
   -9    6   15     -1.07      0.00
   10    6   15      0.98      0.00
   -9    7   15      1.59      0.00
   10    7   15      0.67      0.00
   10    8   15     -0.98      0.00
   -8    9   15     -0.51      0.00
    9   10   15     -0.53      0.00
   -7   11   15      0.38      0.00
    9   11   15      0.97      0.00
   -6   12   15     -1.72      0.00
    8   12   15      1.75      0.00
   -5   13   15     -0.29      0.00
    7   13   15     -1.13      0.00
   -4   14   15      0.56      0.00
    6   14   15     -1.95      0.00
   -3   15   15     -1.68      0.00
   -2   15   15      1.14      0.00
    4   15   15      0.82      0.00
    5   15   15     -0.39      0.00
   -1   16   15     -1.83      0.00
    0   16   15      1.41      0.00
    1   16   15     -0.28      0.00
    2   16   15     -1.06      0.00
    3   16   15      1.55      0.00
   -2  -10   16      0.26      0.00
   -1  -10   16     -0.85      0.00
    0  -10   16      0.00      0.00
   -5   -9   16     -0.02      0.00
   -4   -9   16     -0.51      0.00
   -3   -9   16      0.85      0.00
    1   -9   16      0.36      0.00
    2   -9   16     -0.43      0.00
    3   -9   16      1.79      0.00
   -6   -8   16      1.12      0.00
   -5   -8   16     -0.68      0.00
    4   -8   16      0.51      0.00
   -7   -7   16     -0.53      0.00
    5   -7   16     -1.43      0.00
   -7   -6   16      0.96      0.00
    6   -6   16      0.16      0.00
   -8   -5   16     -0.20      0.00
    7   -5   16      0.10      0.00
   -8   -4   16      0.63      0.00
    7   -4   16     -0.21      0.00
   -9   -3   16      0.93      0.00
    8   -3   16     -0.14      0.00
   -9   -2   16     -1.51      0.00
    8   -2   16      1.49      0.00
   -9   -1   16      0.68      0.00
    9   -1   16      0.73      0.00
   -9    0   16      0.38      0.00
    9    0   16     -0.49      0.00
   -9    1   16     -0.54      0.00
    9    1   16      0.70      0.00
   -9    2   16     -0.25      0.00
   -9    3   16     -0.48      0.00
   -9    4   16      1.07      0.00
   -9    5   16     -0.82      0.00
   -9    6   16      0.64      0.00
   -8    7   16      0.56      0.00
    9    7   16     -0.58      0.00
   -8    8   16     -0.54      0.00
    9    8   16     -0.01      0.00
    9    9   16      0.72      0.00
   -7   10   16      0.53      0.00
    8   10   16      0.93      0.00
   -6   11   16     -0.24      0.00
    8   11   16      0.58      0.00
   -5   12   16     -1.66      0.00
    7   12   16      0.39      0.00
   -4   13   16      0.17      0.00
    6   13   16     -0.96      0.00
    7   13   16      0.96      0.00
   -3   14   16     -1.42      0.00
    5   14   16     -0.69      0.00
    6   14   16      1.48      0.00
   -2   15   16     -0.27      0.00
   -1   15   16      0.28      0.00
    0   15   16      0.85      0.00
    1   15   16     -0.74      0.00
    2   15   16      0.25      0.00
    3   15   16      0.18      0.00
    4   15   16      0.68      0.00
   -2   -9   17     -0.53      0.00
   -1   -9   17     -0.04      0.00
    0   -9   17     -0.31      0.00
   -4   -8   17      0.05      0.00
   -3   -8   17     -1.09      0.00
   -2   -8   17      2.66      0.00
    1   -8   17      0.04      0.00
    2   -8   17      1.06      0.00
   -5   -7   17      0.28      0.00
    3   -7   17      1.24      0.00
    4   -7   17     -1.01      0.00
   -6   -6   17     -1.04      0.00
    5   -6   17      1.12      0.00
   -7   -5   17      0.07      0.00
    6   -5   17     -0.10      0.00
   -7   -4   17      0.09      0.00
    6   -4   17     -0.55      0.00
   -8   -3   17      0.18      0.00
    7   -3   17     -2.31      0.00
   -8   -2   17     -0.30      0.00
   -8   -1   17     -0.70      0.00
    8   -1   17     -0.31      0.00
    8    0   17     -0.39      0.00
   -9    1   17     -0.67      0.00
   -9    2   17      0.51      0.00
    9    2   17     -0.17      0.00
    9    3   17      0.75      0.00
    9    4   17      0.13      0.00
   -8    5   17      0.95      0.00
    9    5   17     -0.04      0.00
   -8    6   17     -0.07      0.00
    9    6   17     -1.32      0.00
   -8    7   17     -1.22      0.00
    9    7   17      1.04      0.00
   -7    8   17      0.41      0.00
    8    8   17     -0.72      0.00
   -7    9   17     -0.96      0.00
    8    9   17      1.28      0.00
   -6   10   17      0.95      0.00
    8   10   17     -0.58      0.00
   -5   11   17     -0.77      0.00
    7   11   17     -0.68      0.00
   -5   12   17      1.19      0.00
   -4   12   17     -0.30      0.00
    6   12   17      0.59      0.00
   -3   13   17     -0.42      0.00
    5   13   17      1.34      0.00
    6   13   17     -0.43      0.00
   -2   14   17     -0.44      0.00
   -1   14   17      1.37      0.00
    0   14   17     -0.11      0.00
    1   14   17     -0.93      0.00
    2   14   17      1.85      0.00
    3   14   17     -0.51      0.00
    4   14   17      0.99      0.00
   -4   -7   18     -0.51      0.00
   -3   -7   18     -0.09      0.00
   -2   -7   18      0.36      0.00
   -1   -7   18      0.98      0.00
    0   -7   18     -0.93      0.00
    1   -7   18      1.75      0.00
    2   -7   18     -0.14      0.00
   -5   -6   18     -0.12      0.00
   -4   -6   18      1.10      0.00
    3   -6   18     -0.26      0.00
   -6   -5   18     -0.12      0.00
   -5   -5   18      0.45      0.00
    4   -5   18     -0.75      0.00
   -6   -4   18      0.53      0.00
    5   -4   18     -1.32      0.00
   -7   -3   18      0.68      0.00
    6   -3   18     -1.27      0.00
   -7   -2   18      0.37      0.00
    6   -2   18     -0.17      0.00
   -7   -1   18     -1.19      0.00
    7   -1   18     -0.19      0.00
   -8    0   18      0.40      0.00
    7    0   18     -0.07      0.00
   -8    1   18     -1.85      0.00
    8    1   18     -0.23      0.00
   -8    2   18      0.41      0.00
    8    2   18      0.03      0.00
   -8    3   18     -0.24      0.00
    8    3   18     -0.16      0.00
   -8    4   18      1.09      0.00
    8    4   18      0.42      0.00
   -7    5   18      0.33      0.00
    8    5   18      0.11      0.00
   -7    6   18      1.74      0.00
    8    6   18     -0.19      0.00
   -7    7   18     -0.69      0.00
    8    7   18     -0.17      0.00
   -6    8   18      1.42      0.00
    7    8   18      0.54      0.00
   -6    9   18     -0.12      0.00
    7    9   18      0.28      0.00
   -5   10   18      0.30      0.00
    6   10   18      2.19      0.00
    7   10   18     -1.17      0.00
   -4   11   18     -0.15      0.00
    6   11   18     -1.03      0.00
   -3   12   18      0.79      0.00
    5   12   18      2.30      0.00
   -2   13   18      0.82      0.00
   -1   13   18      0.55      0.00
    0   13   18     -0.88      0.00
    1   13   18     -0.16      0.00
    2   13   18      1.04      0.00
    3   13   18      0.14      0.00
    4   13   18      1.09      0.00
    0   14   18      0.14      0.00
    1   14   18      0.60      0.00
    2   14   18     -1.07      0.00
   -3   -6   19      0.24      0.00
   -2   -6   19      0.18      0.00
   -1   -6   19      0.38      0.00
    0   -6   19      0.44      0.00
    1   -6   19      0.17      0.00
   -4   -5   19      1.13      0.00
   -3   -5   19     -1.39      0.00
   -2   -5   19      0.52      0.00
    1   -5   19     -1.13      0.00
    2   -5   19      1.44      0.00
    3   -5   19     -1.47      0.00
   -5   -4   19      0.43      0.00
   -4   -4   19     -0.99      0.00
    3   -4   19     -0.25      0.00
    4   -4   19      0.32      0.00
   -6   -3   19     -0.54      0.00
   -5   -3   19      1.03      0.00
    4   -3   19     -1.64      0.00
    5   -3   19      0.60      0.00
   -6   -2   19      1.30      0.00
    5   -2   19      0.45      0.00
   -6   -1   19      0.82      0.00
    6   -1   19     -0.08      0.00
   -7    0   19      1.20      0.00
    6    0   19      0.51      0.00
   -7    1   19     -0.12      0.00
    6    1   19      1.12      0.00
    7    1   19     -0.45      0.00
   -7    2   19     -0.97      0.00
    7    2   19      1.71      0.00
   -7    3   19     -0.43      0.00
    7    3   19     -0.57      0.00
   -7    4   19      1.36      0.00
    7    4   19     -0.25      0.00
   -6    5   19      0.22      0.00
    7    5   19      0.04      0.00
   -6    6   19     -0.59      0.00
    7    6   19      0.28      0.00
   -6    7   19      1.40      0.00
    7    7   19      0.36      0.00
   -5    8   19      0.85      0.00
    6    8   19     -0.11      0.00
   -5    9   19     -0.22      0.00
   -4    9   19      0.92      0.00
    6    9   19      0.98      0.00
   -4   10   19     -1.14      0.00
    5   10   19     -0.38      0.00
    6   10   19     -0.75      0.00
   -3   11   19      0.93      0.00
   -2   11   19     -2.09      0.00
    4   11   19      0.48      0.00
    5   11   19      1.39      0.00
   -2   12   19      1.82      0.00
   -1   12   19     -1.19      0.00
    0   12   19      0.90      0.00
    1   12   19     -0.33      0.00
    2   12   19     -0.01      0.00
    3   12   19      0.57      0.00
    4   12   19      0.69      0.00
    1   13   19      0.42      0.00
   -3   -4   20      0.61      0.00
   -2   -4   20     -1.56      0.00
   -1   -4   20      1.51      0.00
    0   -4   20     -1.88      0.00
    1   -4   20      1.87      0.00
    2   -4   20     -1.61      0.00
   -4   -3   20      0.38      0.00
   -3   -3   20      0.41      0.00
   -2   -3   20      0.25      0.00
    1   -3   20     -1.42      0.00
    2   -3   20      0.97      0.00
    3   -3   20     -0.50      0.00
   -5   -2   20     -0.55      0.00
   -4   -2   20      1.22      0.00
    3   -2   20     -0.56      0.00
    4   -2   20      0.56      0.00
   -5   -1   20      1.27      0.00
   -4   -1   20     -0.94      0.00
    4   -1   20      0.28      0.00
   -5    0   20     -0.78      0.00
    5    0   20     -0.66      0.00
   -6    1   20     -0.04      0.00
   -5    1   20     -0.11      0.00
    5    1   20      1.32      0.00
   -6    2   20     -0.26      0.00
   -5    2   20     -0.79      0.00
    5    2   20     -0.81      0.00
    6    2   20      1.55      0.00
   -6    3   20     -0.52      0.00
   -5    3   20      0.62      0.00
    6    3   20     -0.50      0.00
   -6    4   20      0.63      0.00
   -5    4   20     -0.01      0.00
    6    4   20     -0.15      0.00
   -5    5   20     -0.73      0.00
    6    5   20      0.97      0.00
   -5    6   20     -0.13      0.00
    5    6   20      0.46      0.00
    6    6   20     -0.76      0.00
   -5    7   20      0.21      0.00
   -4    7   20      0.23      0.00
    5    7   20      0.68      0.00
    6    7   20      0.18      0.00
   -4    8   20      0.28      0.00
    5    8   20     -0.65      0.00
   -3    9   20      1.08      0.00
    4    9   20     -0.10      0.00
    5    9   20     -0.31      0.00
   -3   10   20     -0.10      0.00
   -2   10   20     -1.19      0.00
   -1   10   20      0.50      0.00
    0   10   20     -2.86      0.00
    2   10   20     -1.70      0.00
    3   10   20      0.18      0.00
    4   10   20      0.30      0.00
   -1   11   20     -1.01      0.00
    0   11   20      1.84      0.00
    1   11   20     -0.85      0.00
    2   11   20      0.97      0.00
    3   11   20      0.37      0.00
   -2   -2   21     -0.52      0.00
   -1   -2   21      0.22      0.00
    0   -2   21      0.47      0.00
    1   -2   21     -1.20      0.00
   -3   -1   21     -0.80      0.00
   -2   -1   21     -0.53      0.00
   -1   -1   21      0.28      0.00
    0   -1   21     -0.36      0.00
    1   -1   21      0.52      0.00
    2   -1   21      0.20      0.00
   -4    0   21      0.35      0.00
   -3    0   21     -0.12      0.00
   -2    0   21      0.34      0.00
    1    0   21      1.94      0.00
    2    0   21     -1.75      0.00
    3    0   21      1.59      0.00
   -4    1   21     -1.38      0.00
   -3    1   21      0.85      0.00
    3    1   21     -0.32      0.00
    4    1   21     -0.21      0.00
   -4    2   21      1.21      0.00
   -3    2   21     -1.64      0.00
    3    2   21     -0.47      0.00
    4    2   21      0.54      0.00
   -4    3   21     -0.58      0.00
   -3    3   21      1.43      0.00
    3    3   21     -0.88      0.00
    4    3   21      0.02      0.00
   -4    4   21      0.20      0.00
   -3    4   21     -0.20      0.00
    4    4   21      0.54      0.00
   -4    5   21     -0.84      0.00
   -3    5   21     -0.18      0.00
    3    5   21      0.73      0.00
    4    5   21     -0.86      0.00
   -4    6   21      0.88      0.00
   -3    6   21      0.62      0.00
   -2    6   21     -0.12      0.00
    3    6   21     -0.45      0.00
    4    6   21      0.07      0.00
   -3    7   21     -0.10      0.00
   -2    7   21      0.28      0.00
   -1    7   21     -0.43      0.00
    2    7   21     -0.20      0.00
    3    7   21     -0.16      0.00
    4    7   21      0.86      0.00
   -2    8   21     -0.10      0.00
   -1    8   21      0.46      0.00
    0    8   21      0.33      0.00
    1    8   21      1.16      0.00
    2    8   21      0.70      0.00
    3    8   21     -0.20      0.00
   -1    9   21     -0.44      0.00
    0    9   21     -1.67      0.00
    1    9   21      0.46      0.00
    2    9   21     -1.60      0.00
    3    9   21      0.98      0.00
    0    0    0      0.00      0.00
loop_
  _platon_squeeze_void_nr
  _platon_squeeze_void_average_x
  _platon_squeeze_void_average_y
  _platon_squeeze_void_average_z
  _platon_squeeze_void_volume
  _platon_squeeze_void_count_electrons
  _platon_squeeze_void_content
   1  0.000  0.000  0.000        14         0 ' '
   2 -0.076  0.500  0.500       424       120 ' '
   3  0.262  0.036  0.163        15         0 ' '
   4  0.379  0.171  0.143         7         1 ' '
   5  0.454  0.731  0.839        15         8 ' '
   6  0.547  0.270  0.161        15         8 ' '
   7  0.628  0.835  0.857         7         0 ' '
   8  0.741  0.968  0.836        14         0 ' '
loop_
  _platon_missing_refln_index_h
  _platon_missing_refln_index_k
  _platon_missing_refln_index_l
  _platon_missing_refln_theta
    1    0    0     1.900
   -1    1    0     2.518
    0    1    0     1.437
    1    1    0     2.239
   -1   -1    1     2.671
    0   -1    1     2.063
   -1    0    1     2.242
    0    0    1     1.219
    1    0    1     2.273
   -1    1    1     2.656
    0    1    1     1.687
    1    1    1     2.421
    0    2    1     2.888
    0    0    2     2.438
    0    1    2     2.569
    1    1    2     3.112
    0    2    2     3.375
    0    2    3     4.174
_platon_squeeze_void_probe_radius                  1.20
_platon_squeeze_details
)
TITL g150427a in P-1 #2
CELL   10.7998   14.5731   17.0590     78.40     89.44     83.04
SPGR P-1
C101 0.375 0.253 0.453 !      11.82 eA-3
C102 0.484 0.232 0.167 !      11.20 eA-3
Q103 0.527 0.381 0.340 !      10.85 eA-3
C104 0.374 0.649 0.296 !       4.02 eA-3
C105 0.652 0.675 0.404 !       3.98 eA-3
C106 0.546 0.525 0.414 !       3.76 eA-3
C107 0.608 0.482 0.452 !       3.72 eA-3
C108 0.736 0.615 0.453 !       3.63 eA-3
C109 0.204 0.613 0.448 !       3.62 eA-3
Q110 0.313 0.665 0.476 !       2.32 eA-3
Q111 0.297 0.644 0.384 !       2.28 eA-3
C112 0.988 0.515 0.489 !       1.81 eA-3
Q113 0.767 0.051-0.001 !       1.31 eA-3
Q114 0.396 0.273 0.156 !       1.04 eA-3
Q115 0.886 0.044 0.113 !       0.99 eA-3
Q116 0.795 0.511 0.108 !       0.99 eA-3
Q117 0.809 0.130 0.111 !       0.98 eA-3
C118 0.639 0.414 0.496 !       0.97 eA-3
Q119 0.220 0.443 0.339 !       0.96 eA-3
Q120 0.851 0.331 0.292 !       0.93 eA-3
Q121 0.487 0.130 0.487 !       0.91 eA-3
Q122 0.472 0.842 0.310 !       0.91 eA-3
Q123 0.142 0.438 0.332 !       0.90 eA-3
Q124 0.744 0.179 0.156 !       0.88 eA-3
C125 0.485 0.609 0.354 !       0.88 eA-3
Q126 0.296 0.891 0.049 !       0.86 eA-3
Q127 0.501 0.547 0.065 !       0.84 eA-3
Q128 0.734 0.096 0.497 !       0.82 eA-3
Q129 0.514 0.127 0.316 !       0.81 eA-3
Q130 0.485 0.011 0.389 !       0.79 eA-3
Q131 0.566 0.129 0.049 !       0.79 eA-3
Q132 0.153 0.198 0.217 !       0.78 eA-3
Q133 0.503 0.161 0.285 !       0.77 eA-3
Q134 0.887 0.873 0.406 !       0.75 eA-3
Q135 0.139 0.681 0.053 !       0.74 eA-3
Q136 0.278 0.982 0.009 !       0.73 eA-3
Q137 0.329 0.601 0.077 !       0.73 eA-3
Q138 0.090 0.110 0.295 !       0.72 eA-3
Q139 0.157 0.556 0.455 !       0.70 eA-3
Q140 0.159 0.076 0.346 !       0.70 eA-3
Q141 0.034 0.826 0.253 !       0.70 eA-3
Q142 0.297 0.318 0.142 !       0.69 eA-3
Q143 1.001 0.436 0.263 !       0.68 eA-3
Q144 0.497 0.375 0.063 !       0.68 eA-3
Q145 0.284 0.405 0.032 !       0.67 eA-3
Q146 0.562 0.890 0.224 !       0.67 eA-3
Q147 0.130 0.364 0.096 !       0.67 eA-3
Q148 0.466 0.499 0.216 !       0.67 eA-3
Q149 0.499 0.305 0.382 !       0.66 eA-3
Q150 0.256 0.078 0.394 !       0.66 eA-3
Q151 1.002 0.094 0.251 !       0.66 eA-3
C152 0.343 0.563 0.422 !       0.64 eA-3
Q153 0.777 0.015 0.248 !       0.64 eA-3
Q154 0.189 0.945 0.402 !       0.63 eA-3
Q155 0.560 0.835 0.117 !       0.63 eA-3
Q156 0.949 0.162 0.459 !       0.63 eA-3
Q157 0.793 0.211 0.388 !       0.62 eA-3
Q158 0.483 0.903 0.199 !       0.62 eA-3
Q159 0.267 0.899 0.457 !       0.61 eA-3
C160 0.578 0.599 0.371 !       0.61 eA-3
Q161 0.018 0.773 0.104 !       0.60 eA-3
Q162 0.279 0.420 0.062 !       0.59 eA-3
Q163 0.170 0.461 0.398 !       0.59 eA-3
Q164 0.860 0.415 0.193 !       0.58 eA-3
Q165 0.815 0.985 0.404 !       0.58 eA-3
Q166 0.206 0.211 0.267 !       0.58 eA-3
Q167 0.059 0.411 0.284 !       0.57 eA-3
Q168 0.169 0.521 0.217 !       0.57 eA-3
Q169 0.188 0.424 0.031 !       0.56 eA-3
Q170 0.592 0.652 0.112 !       0.56 eA-3
Q171 0.706 0.986 0.417 !       0.56 eA-3
Q172 0.326 0.970 0.018 !       0.56 eA-3
Q173 0.685 0.217 0.358 !       0.56 eA-3
Q174 0.702 0.680 0.017 !       0.56 eA-3
C175 0.626 0.569 0.385 !       0.55 eA-3
Q176 0.968 0.818 0.297 !       0.55 eA-3
Q177 0.260 0.767 0.448 !       0.55 eA-3
Q178 0.956 0.765 0.167 !       0.55 eA-3
Q179 0.234 0.534 0.012 !       0.55 eA-3
Q180 0.703 0.453 0.136 !       0.55 eA-3
Q181 0.049 0.338 0.095 !       0.55 eA-3
C182 0.859 0.524 0.459 !       0.54 eA-3
C183 0.848 0.553 0.430 !       0.54 eA-3
C184 0.425 0.538 0.472 !       0.53 eA-3
C185 0.046 0.575 0.436 !       0.53 eA-3
C186 0.642 0.603 0.278 !       0.53 eA-3
Q187 0.563 1.002 0.434 !       0.52 eA-3
Q188 0.389 0.831 0.281 !       0.52 eA-3
Q189 0.999 0.341 0.352 !       0.51 eA-3
Q190 0.436 0.306 0.924 !       0.51 eA-3
Q191 0.615 0.970 0.130 !       0.51 eA-3
Q192 0.748 0.594 0.075 !       0.51 eA-3
)
;
_shelx_shelxl_version_number     2014/7
_olex2_submission_special_instructions 'No special instructions were received'
loop_
_space_group_symop_operation_xyz
'x, y, z'
'-x, -y, -z'
loop_
_atom_site_label
_atom_site_type_symbol
_atom_site_fract_x
_atom_site_fract_y
_atom_site_fract_z
_atom_site_U_iso_or_equiv
_atom_site_adp_type
_atom_site_occupancy
_atom_site_site_symmetry_order
_atom_site_calc_flag
_atom_site_refinement_flags_posn
_atom_site_refinement_flags_adp
_atom_site_refinement_flags_occupancy
_atom_site_disorder_assembly
_atom_site_disorder_group
Co1 Co 0.26760(3) 0.88879(2) 1.50835(2) 0.01827(9) Uani 1 1 d . . . . .
Co2 Co 0.49278(3) 1.01918(2) 1.40603(2) 0.01744(9) Uani 1 1 d . . . . .
Co3 Co 0.73662(3) 0.58668(2) 0.97474(2) 0.01733(9) Uani 1 1 d . U . . .
Co4 Co 0.50062(3) 0.46401(2) 0.91805(2) 0.01872(9) Uani 1 1 d . . . . .
O1 O 0.81833(16) 1.02926(12) 0.59125(10) 0.0239(4) Uani 1 1 d . . . . .
O2 O 0.69689(15) 0.91278(12) 0.60136(10) 0.0209(4) Uani 1 1 d . . . . .
O3 O 0.74138(17) 0.66037(14) 0.84629(12) 0.0314(5) Uani 1 1 d . . . . .
O4 O 0.90253(16) 0.64625(13) 0.92704(11) 0.0295(4) Uani 1 1 d . U . . .
O5 O 0.27805(16) 0.78332(13) 0.61797(11) 0.0283(4) Uani 1 1 d . . . . .
O6 O 0.09534(17) 0.82027(13) 0.55816(11) 0.0296(4) Uani 1 1 d . . . . .
O7 O 0.44705(15) 0.91660(12) 1.50221(10) 0.0177(4) Uani 1 1 d D . . . .
O8 O 0.17881(15) 0.46035(12) 0.91528(10) 0.0237(4) Uani 1 1 d . . . . .
O9 O 0.33210(15) 0.54811(13) 0.87347(11) 0.0253(4) Uani 1 1 d . . . . .
O10 O 0.55527(15) 0.57346(12) 0.96156(10) 0.0184(4) Uani 1 1 d D . . . .
O11 O 0.44853(17) 0.96934(14) 1.30671(11) 0.0302(4) Uani 1 1 d . . . . .
O12 O 0.4485(3) 0.81433(17) 1.32163(15) 0.0740(9) Uani 1 1 d . . . . .
O13 O 0.68210(16) 0.71824(12) 1.00652(11) 0.0241(4) Uani 1 1 d . . . . .
O14 O 0.55708(16) 0.65648(12) 1.10483(11) 0.0267(4) Uani 1 1 d . . . . .
O15 O 0.5911(2) 1.13931(14) 1.04347(13) 0.0402(5) Uani 1 1 d . . . . .
O16 O 0.7054(8) 1.0633(7) 0.9724(5) 0.0409(15) Uani 0.75 1 d . . P A 1
O16A O 0.747(2) 1.048(2) 0.9919(16) 0.055(7) Uani 0.25 1 d . . P A 2
O17 O -0.1802(8) 0.4828(6) 0.7474(4) 0.0464(17) Uani 0.75 1 d . . P B 1
O17A O -0.159(2) 0.4632(17) 0.7235(13) 0.050(5) Uani 0.25 1 d . U P B 2
O18 O -0.2111(10) 0.5868(8) 0.6372(6) 0.044(4) Uani 0.5 1 d . U P B 1
O18A O -0.2343(16) 0.6135(12) 0.6625(9) 0.049(4) Uani 0.3 1 d . . P B 2
O18B O -0.181(3) 0.563(2) 0.6153(17) 0.060(8) Uani 0.2 1 d . . P B 3
O19 O 0.53200(18) 1.14145(14) 1.32477(11) 0.0339(5) Uani 1 1 d . . . . .
H19A H 0.6113 1.1543 1.3302 0.051 Uiso 1 1 d GR . . . .
H19B H 0.5226 1.1356 1.2735 0.051 Uiso 1 1 d GR . . . .
O20 O 0.56096(19) 0.50782(16) 0.79820(12) 0.0433(6) Uani 1 1 d . . . . .
H20A H 0.5166 0.5638 0.7715 0.065 Uiso 1 1 d GR . . . .
H20B H 0.6440 0.5182 0.7953 0.065 Uiso 1 1 d GR . . . .
O21 O 0.3014(2) 0.77949(14) 1.44491(13) 0.0417(6) Uani 1 1 d . . . . .
H21A H 0.3216 0.7244 1.4778 0.063 Uiso 1 1 d GR . . . .
H21B H 0.3639 0.7894 1.4114 0.063 Uiso 1 1 d GR . . . .
O22 O 1.1829(2) 0.9850(2) 0.76609(16) 0.0735(9) Uani 1 1 d . . . . .
O23 O 1.2189(7) 0.8595(6) 0.8572(6) 0.090(3) Uani 0.45 1 d . U P C 1
O23A O 1.1619(7) 0.9066(6) 0.8860(4) 0.088(2) Uani 0.55 1 d . U P C 2
N1 N 1.22430(19) 0.00475(15) 0.56611(13) 0.0219(5) Uani 1 1 d . . . . .
N2 N 1.31755(18) 0.04502(15) 0.59512(13) 0.0219(5) Uani 1 1 d . . . . .
N3 N 1.1435(2) 0.13843(16) 0.59435(14) 0.0268(5) Uani 1 1 d . . . . .
N4 N 0.86670(19) 0.30750(15) 0.94586(13) 0.0242(5) Uani 1 1 d . . . . .
N5 N 0.78147(18) 0.44966(14) 0.94911(13) 0.0207(5) Uani 1 1 d . . . . .
N6 N 0.68797(19) 0.39557(15) 0.94044(13) 0.0238(5) Uani 1 1 d . . . . .
N7 N 0.6419(2) 1.06441(17) 1.03067(14) 0.0310(6) Uani 1 1 d . . . . .
N8 N 1.1440(3) 0.9190(3) 0.8092(2) 0.0737(12) Uani 1 1 d . . . . .
N9 N -0.1480(3) 0.5479(2) 0.6962(2) 0.0606(10) Uani 1 1 d . . . . .
C1 C 1.1209(2) 0.0625(2) 0.56567(16) 0.0254(6) Uani 1 1 d . . . . .
H1 H 1.0426 0.0522 0.5479 0.030 Uiso 1 1 calc R . . . .
C2 C 1.2665(2) 0.1247(2) 0.61210(17) 0.0287(6) Uani 1 1 d . . . . .
H2 H 1.3096 0.1665 0.6336 0.034 Uiso 1 1 calc R . . . .
C3 C 1.0515(3) 0.2199(2) 0.60429(18) 0.0363(7) Uani 1 1 d . . . . .
H3A H 0.9726 0.2160 0.5779 0.044 Uiso 1 1 calc R . . . .
H3B H 1.0826 0.2787 0.5783 0.044 Uiso 1 1 calc R . . . .
C4 C 1.0284(3) 0.2215(2) 0.69151(18) 0.0306(7) Uani 1 1 d . . . . .
C5 C 1.1036(3) 0.2659(2) 0.73336(19) 0.0372(7) Uani 1 1 d . . . . .
H5 H 1.1693 0.2958 0.7071 0.045 Uiso 1 1 calc R . . . .
C6 C 1.0833(3) 0.2667(2) 0.81349(19) 0.0353(7) Uani 1 1 d . . . . .
H6 H 1.1350 0.2974 0.8411 0.042 Uiso 1 1 calc R . . . .
C7 C 0.9875(2) 0.22257(19) 0.85319(17) 0.0285(6) Uani 1 1 d . . . . .
C8 C 0.9118(3) 0.1787(2) 0.8112(2) 0.0393(8) Uani 1 1 d . . . . .
H8 H 0.8460 0.1489 0.8375 0.047 Uiso 1 1 calc R . . . .
C9 C 0.9314(3) 0.1780(2) 0.7315(2) 0.0407(8) Uani 1 1 d . . . . .
H9 H 0.8790 0.1480 0.7039 0.049 Uiso 1 1 calc R . . . .
C10 C 0.9620(3) 0.2273(2) 0.93992(18) 0.0343(7) Uani 1 1 d . . . . .
H10A H 0.9328 0.1683 0.9675 0.041 Uiso 1 1 calc R . . . .
H10B H 1.0394 0.2345 0.9663 0.041 Uiso 1 1 calc R . . . .
C11 C 0.8871(2) 0.39533(18) 0.95213(15) 0.0220(6) Uani 1 1 d . . . . .
H11 H 0.9659 0.4145 0.9578 0.026 Uiso 1 1 calc R . . . .
C12 C 0.7421(2) 0.31121(19) 0.93802(17) 0.0275(6) Uani 1 1 d . . . . .
H12 H 0.7001 0.2602 0.9317 0.033 Uiso 1 1 calc R . . . .
C13 C 0.7859(2) 0.94954(17) 0.62342(15) 0.0184(5) Uani 1 1 d . . . . .
C14 C 0.8623(2) 0.89660(18) 0.69512(15) 0.0205(5) Uani 1 1 d . . . . .
C15 C 0.8240(2) 0.81557(18) 0.74192(15) 0.0217(6) Uani 1 1 d . . . . .
H15 H 0.7522 0.7923 0.7270 0.026 Uiso 1 1 calc R . . . .
C16 C 0.8911(2) 0.76849(19) 0.81071(15) 0.0236(6) Uani 1 1 d . . . . .
C17 C 0.9968(2) 0.8013(2) 0.83281(16) 0.0316(7) Uani 1 1 d . . . . .
H17 H 1.0427 0.7702 0.8791 0.038 Uiso 1 1 calc R . . . .
C18 C 1.0338(3) 0.8816(2) 0.78498(18) 0.0371(7) Uani 1 1 d . . . . .
C19 C 0.9684(2) 0.9302(2) 0.71780(16) 0.0266(6) Uani 1 1 d . . . . .
H19 H 0.9951 0.9855 0.6876 0.032 Uiso 1 1 calc R . . . .
C20 C 0.8432(2) 0.68574(19) 0.86402(16) 0.0252(6) Uani 1 1 d . . . . .
C21 C 0.2267(2) 0.52368(17) 0.86620(15) 0.0204(5) Uani 1 1 d . . . . .
C22 C 0.1498(2) 0.57093(18) 0.79319(15) 0.0206(5) Uani 1 1 d . . . . .
C23 C 0.1895(2) 0.64703(18) 0.73920(15) 0.0211(6) Uani 1 1 d . . . . .
H23 H 0.2654 0.6687 0.7488 0.025 Uiso 1 1 calc R . . . .
C24 C 0.1180(2) 0.69121(18) 0.67124(15) 0.0218(6) Uani 1 1 d . . . . .
C25 C 0.0063(2) 0.65908(19) 0.65629(17) 0.0280(6) Uani 1 1 d . . . . .
H25 H -0.0431 0.6881 0.6109 0.034 Uiso 1 1 calc R . . . .
C26 C -0.0301(2) 0.5829(2) 0.71039(18) 0.0318(7) Uani 1 1 d . . . . .
C27 C 0.0392(2) 0.53850(19) 0.77785(16) 0.0266(6) Uani 1 1 d . . . . .
H27 H 0.0115 0.4869 0.8130 0.032 Uiso 1 1 calc R . . . .
C28 C 0.1644(2) 0.77052(18) 0.61216(15) 0.0217(6) Uani 1 1 d . . . . .
C29 C 0.6149(2) 0.72155(18) 1.06690(15) 0.0214(5) Uani 1 1 d . . . . .
C30 C 0.5992(2) 0.81178(18) 1.09785(16) 0.0216(5) Uani 1 1 d . . . . .
C31 C 0.6366(2) 0.89410(18) 1.05314(16) 0.0241(6) Uani 1 1 d . . . . .
H31 H 0.6787 0.8937 1.0047 0.029 Uiso 1 1 calc R . . . .
C32 C 0.6105(2) 0.97652(18) 1.08152(16) 0.0236(6) Uani 1 1 d . . . . .
C33 C 0.5550(2) 0.97936(19) 1.15450(16) 0.0244(6) Uani 1 1 d . . . . .
H33 H 0.5398 1.0364 1.1727 0.029 Uiso 1 1 calc R . . . .
C34 C 0.5219(2) 0.89583(19) 1.20048(16) 0.0235(6) Uani 1 1 d . . . . .
C35 C 0.5430(2) 0.81325(19) 1.17069(16) 0.0240(6) Uani 1 1 d . . . . .
H35 H 0.5183 0.7572 1.2008 0.029 Uiso 1 1 calc R . . . .
C36 C 0.4670(3) 0.8933(2) 1.28253(17) 0.0318(7) Uani 1 1 d . . . . .
H7 H 0.5068(17) 0.8669(11) 1.5075(18) 0.034(8) Uiso 1 1 d D . . . .
H10 H 0.505(2) 0.6266(12) 0.9410(18) 0.054(10) Uiso 1 1 d D . . . .
loop_
_atom_site_aniso_label
_atom_site_aniso_U_11
_atom_site_aniso_U_22
_atom_site_aniso_U_33
_atom_site_aniso_U_23
_atom_site_aniso_U_13
_atom_site_aniso_U_12
Co1 0.01991(18) 0.01719(18) 0.01668(18) 0.00116(14) -0.00058(13) -0.00577(13)
Co2 0.01847(17) 0.01949(18) 0.01499(18) -0.00341(14) 0.00072(13) -0.00496(13)
Co3 0.01813(17) 0.01680(18) 0.01684(18) -0.00152(14) 0.00108(13) -0.00451(13)
Co4 0.01840(18) 0.01857(18) 0.02060(19) -0.00542(15) 0.00217(13) -0.00559(13)
O1 0.0271(10) 0.0225(10) 0.0194(9) 0.0052(8) -0.0052(7) -0.0080(8)
O2 0.0175(9) 0.0216(9) 0.0230(10) -0.0014(8) -0.0020(7) -0.0050(7)
O3 0.0258(10) 0.0317(11) 0.0318(11) 0.0079(9) 0.0018(8) -0.0087(8)
O4 0.0256(9) 0.0340(11) 0.0225(10) 0.0090(9) 0.0019(8) -0.0034(8)
O5 0.0267(10) 0.0310(11) 0.0253(10) 0.0053(9) -0.0021(8) -0.0138(8)
O6 0.0303(10) 0.0291(11) 0.0248(11) 0.0076(9) -0.0022(8) -0.0069(8)
O7 0.0200(9) 0.0165(9) 0.0157(9) -0.0006(7) 0.0004(7) -0.0032(7)
O8 0.0258(9) 0.0241(10) 0.0187(9) 0.0042(8) -0.0003(7) -0.0079(8)
O9 0.0211(9) 0.0256(10) 0.0268(10) 0.0022(8) -0.0038(7) -0.0056(8)
O10 0.0187(9) 0.0152(9) 0.0207(9) -0.0015(8) 0.0006(7) -0.0035(7)
O11 0.0361(11) 0.0336(11) 0.0252(11) -0.0168(9) -0.0006(8) -0.0036(9)
O12 0.142(3) 0.0380(14) 0.0461(16) -0.0140(12) 0.0543(17) -0.0237(16)
O13 0.0331(10) 0.0180(9) 0.0238(10) -0.0088(8) 0.0083(8) -0.0056(8)
O14 0.0337(10) 0.0219(10) 0.0274(11) -0.0075(8) 0.0076(8) -0.0117(8)
O15 0.0543(13) 0.0215(11) 0.0441(14) -0.0022(10) -0.0017(10) -0.0086(10)
O16 0.063(4) 0.030(4) 0.029(3) -0.001(2) 0.014(2) -0.014(3)
O16A 0.080(17) 0.022(8) 0.057(16) 0.004(9) 0.046(11) -0.008(10)
O17 0.036(3) 0.049(4) 0.052(4) 0.008(3) -0.002(2) -0.025(2)
O17A 0.048(10) 0.048(10) 0.056(12) 0.002(7) -0.007(8) -0.038(8)
O18 0.034(6) 0.054(7) 0.040(7) 0.007(5) -0.019(5) -0.017(5)
O18A 0.025(6) 0.072(11) 0.042(9) 0.008(6) -0.014(5) -0.009(6)
O18B 0.055(15) 0.080(16) 0.054(15) -0.027(10) -0.014(10) -0.018(11)
O19 0.0381(11) 0.0399(12) 0.0237(11) 0.0031(9) -0.0065(8) -0.0205(9)
O20 0.0388(12) 0.0538(14) 0.0296(12) 0.0057(11) 0.0117(9) 0.0002(10)
O21 0.0596(14) 0.0255(11) 0.0441(14) -0.0118(10) 0.0248(11) -0.0153(10)
O22 0.0602(16) 0.096(2) 0.0609(18) 0.0224(16) -0.0212(13) -0.0582(16)
O23 0.070(5) 0.092(6) 0.095(6) 0.036(4) -0.063(4) -0.044(4)
O23A 0.091(5) 0.117(6) 0.054(4) 0.019(4) -0.037(3) -0.064(4)
N1 0.0229(11) 0.0229(11) 0.0190(11) -0.0013(9) 0.0033(9) -0.0044(9)
N2 0.0178(11) 0.0270(12) 0.0209(12) -0.0041(10) 0.0019(9) -0.0043(9)
N3 0.0255(12) 0.0284(13) 0.0253(13) -0.0063(10) 0.0010(9) 0.0029(9)
N4 0.0260(12) 0.0228(12) 0.0225(12) -0.0043(10) 0.0020(9) 0.0016(9)
N5 0.0207(11) 0.0193(11) 0.0221(12) -0.0028(9) 0.0007(9) -0.0049(9)
N6 0.0206(11) 0.0222(12) 0.0309(13) -0.0091(10) 0.0032(9) -0.0060(9)
N7 0.0405(14) 0.0276(14) 0.0282(14) -0.0072(11) 0.0000(11) -0.0139(11)
N8 0.060(2) 0.096(3) 0.057(2) 0.031(2) -0.0378(16) -0.053(2)
N9 0.0403(17) 0.065(2) 0.065(2) 0.0286(18) -0.0219(15) -0.0296(15)
C1 0.0214(13) 0.0326(15) 0.0220(14) -0.0048(12) -0.0005(10) -0.0045(11)
C2 0.0262(14) 0.0337(16) 0.0287(16) -0.0115(13) -0.0018(12) -0.0041(12)
C3 0.0372(17) 0.0345(17) 0.0356(18) -0.0117(14) -0.0008(13) 0.0098(13)
C4 0.0292(15) 0.0298(15) 0.0319(16) -0.0117(13) -0.0005(12) 0.0097(12)
C5 0.0280(15) 0.0467(19) 0.0398(19) -0.0143(16) 0.0072(13) -0.0067(13)
C6 0.0271(15) 0.0430(18) 0.0398(18) -0.0195(15) -0.0022(13) -0.0013(13)
C7 0.0298(15) 0.0266(15) 0.0292(16) -0.0118(13) 0.0016(12) 0.0064(12)
C8 0.0387(17) 0.0385(18) 0.047(2) -0.0214(16) 0.0135(15) -0.0099(14)
C9 0.0344(17) 0.0447(19) 0.051(2) -0.0263(17) 0.0017(15) -0.0082(14)
C10 0.0376(16) 0.0251(15) 0.0353(17) -0.0041(13) 0.0015(13) 0.0119(12)
C11 0.0192(13) 0.0256(14) 0.0202(14) -0.0035(11) 0.0020(10) -0.0007(10)
C12 0.0295(15) 0.0214(14) 0.0339(16) -0.0099(12) 0.0062(12) -0.0047(11)
C13 0.0193(13) 0.0183(13) 0.0172(13) -0.0019(11) 0.0014(10) -0.0033(10)
C14 0.0185(12) 0.0247(14) 0.0164(13) 0.0013(11) 0.0006(10) -0.0043(10)
C15 0.0180(12) 0.0257(14) 0.0209(14) -0.0007(11) 0.0012(10) -0.0078(10)
C16 0.0184(13) 0.0292(15) 0.0194(14) 0.0032(12) 0.0037(10) -0.0021(11)
C17 0.0284(15) 0.0419(18) 0.0192(14) 0.0082(13) -0.0042(11) -0.0071(13)
C18 0.0319(16) 0.0466(19) 0.0307(17) 0.0057(15) -0.0101(12) -0.0184(14)
C19 0.0256(14) 0.0288(15) 0.0234(15) 0.0037(12) -0.0001(11) -0.0109(11)
C20 0.0245(14) 0.0249(14) 0.0222(14) 0.0015(12) 0.0086(11) 0.0022(11)
C21 0.0239(14) 0.0188(13) 0.0188(13) -0.0045(11) 0.0042(10) -0.0025(10)
C22 0.0188(12) 0.0228(13) 0.0186(13) -0.0005(11) 0.0014(10) -0.0028(10)
C23 0.0180(12) 0.0234(14) 0.0214(14) -0.0013(11) 0.0015(10) -0.0057(10)
C24 0.0227(13) 0.0239(14) 0.0173(13) 0.0010(11) 0.0026(10) -0.0058(10)
C25 0.0265(14) 0.0292(15) 0.0249(15) 0.0051(12) -0.0061(11) -0.0064(12)
C26 0.0215(14) 0.0350(17) 0.0361(17) 0.0045(14) -0.0037(12) -0.0114(12)
C27 0.0242(14) 0.0244(14) 0.0277(15) 0.0056(12) 0.0026(11) -0.0070(11)
C28 0.0282(14) 0.0222(14) 0.0159(13) -0.0044(11) 0.0028(11) -0.0075(11)
C29 0.0231(13) 0.0201(13) 0.0218(14) -0.0049(11) -0.0001(11) -0.0051(10)
C30 0.0211(13) 0.0231(14) 0.0229(14) -0.0078(11) -0.0012(10) -0.0065(10)
C31 0.0248(13) 0.0259(14) 0.0234(14) -0.0062(12) 0.0031(11) -0.0078(11)
C32 0.0272(14) 0.0205(13) 0.0253(15) -0.0049(12) -0.0016(11) -0.0110(11)
C33 0.0274(14) 0.0217(14) 0.0270(15) -0.0103(12) -0.0004(11) -0.0057(11)
C34 0.0258(14) 0.0255(14) 0.0222(14) -0.0083(12) -0.0007(11) -0.0092(11)
C35 0.0312(14) 0.0233(14) 0.0207(14) -0.0074(12) 0.0042(11) -0.0110(11)
C36 0.0426(17) 0.0303(16) 0.0245(16) -0.0081(13) 0.0072(13) -0.0085(13)
loop_
_atom_type_symbol
_atom_type_description
_atom_type_scat_dispersion_real
_atom_type_scat_dispersion_imag
_atom_type_scat_source
C C 0.0033 0.0016 'International Tables Vol C Tables 4.2.6.8 and 6.1.1.4'
H H 0.0000 0.0000 'International Tables Vol C Tables 4.2.6.8 and 6.1.1.4'
Co Co 0.3494 0.9721 'International Tables Vol C Tables 4.2.6.8 and 6.1.1.4'
N N 0.0061 0.0033 'International Tables Vol C Tables 4.2.6.8 and 6.1.1.4'
O O 0.0106 0.0060 'International Tables Vol C Tables 4.2.6.8 and 6.1.1.4'
loop_
_geom_angle_atom_site_label_1
_geom_angle_atom_site_label_2
_geom_angle_atom_site_label_3
_geom_angle
_geom_angle_site_symmetry_1
_geom_angle_site_symmetry_3
O1 Co1 O5 154.81(7) 2_677 1_556
O1 Co1 O6 96.14(7) 2_677 1_556
O1 Co1 O21 88.41(8) 2_677 .
O1 Co1 N1 87.63(8) 2_677 1_466
O5 Co1 O6 58.72(7) 1_556 1_556
O7 Co1 O1 105.47(7) . 2_677
O7 Co1 O5 99.66(7) . 1_556
O7 Co1 O6 158.38(7) . 1_556
O7 Co1 O21 93.47(7) . .
O7 Co1 N1 88.49(7) . 1_466
O21 Co1 O5 88.52(8) . 1_556
O21 Co1 O6 86.72(7) . 1_556
O21 Co1 N1 175.93(9) . 1_466
N1 Co1 O5 94.67(8) 1_466 1_556
N1 Co1 O6 92.77(7) 1_466 1_556
O7 Co2 O2 90.42(6) . 2_677
O7 Co2 O2 96.25(6) 2_678 2_677
O7 Co2 O7 83.31(7) . 2_678
O7 Co2 O19 168.54(8) . .
O7 Co2 N2 86.02(7) 2_678 2_767
O7 Co2 N2 92.94(7) . 2_767
O11 Co2 O2 85.99(7) . 2_677
O11 Co2 O7 172.09(7) . 2_678
O11 Co2 O7 104.29(7) . .
O11 Co2 O19 85.95(8) . .
O11 Co2 N2 91.35(8) . 2_767
O19 Co2 O2 85.11(7) . 2_677
O19 Co2 O7 86.69(7) . 2_678
O19 Co2 N2 91.92(8) . 2_767
N2 Co2 O2 176.14(7) 2_767 2_677
O3 Co3 C20 30.22(8) . .
O4 Co3 O3 59.70(7) . .
O4 Co3 C20 30.14(8) . .
O8 Co3 O3 150.63(7) 2_667 .
O8 Co3 O4 90.94(7) 2_667 .
O8 Co3 O13 89.09(7) 2_667 .
O8 Co3 N5 89.45(8) 2_667 .
O8 Co3 C20 120.68(8) 2_667 .
O10 Co3 O3 89.90(7) . .
O10 Co3 O4 149.14(7) . .
O10 Co3 O8 119.36(7) . 2_667
O10 Co3 O13 88.60(7) . .
O10 Co3 N5 88.51(7) . .
O10 Co3 C20 119.01(8) . .
O13 Co3 O3 89.25(7) . .
O13 Co3 O4 86.01(7) . .
O13 Co3 N5 175.60(7) . .
O13 Co3 C20 82.62(8) . .
N5 Co3 O3 94.05(8) . .
N5 Co3 O4 98.16(8) . .
N5 Co3 C20 101.68(8) . .
O9 Co4 O20 83.19(7) . .
O9 Co4 N6 167.64(7) . .
O10 Co4 O9 96.95(7) 2_667 .
O10 Co4 O9 90.35(7) . .
O10 Co4 O10 80.32(7) . 2_667
O10 Co4 O14 169.89(7) . 2_667
O10 Co4 O20 177.04(8) 2_667 .
O10 Co4 O20 96.73(8) . .
O10 Co4 N6 94.65(7) 2_667 .
O10 Co4 N6 87.42(7) . .
O14 Co4 O9 93.20(7) 2_667 .
O14 Co4 O10 89.86(7) 2_667 2_667
O14 Co4 O20 93.08(8) 2_667 .
O14 Co4 N6 91.06(8) 2_667 .
O20 Co4 N6 85.00(8) . .
C13 O1 Co1 122.51(16) . 2_677
C13 O2 Co2 122.49(16) . 2_677
C20 O3 Co3 86.25(15) . .
C20 O4 Co3 89.75(15) . .
C28 O5 Co1 92.65(15) . 1_554
C28 O6 Co1 87.45(14) . 1_554
Co1 O7 Co2 116.95(8) . .
Co1 O7 Co2 115.69(8) . 2_678
Co1 O7 H7 117.2(17) . .
Co2 O7 Co2 96.69(7) . 2_678
Co2 O7 H7 99.1(19) 2_678 .
Co2 O7 H7 108.1(18) . .
C21 O8 Co3 117.62(16) . 2_667
C21 O9 Co4 129.21(16) . .
Co3 O10 Co4 121.46(8) . .
Co3 O10 Co4 101.88(8) . 2_667
Co3 O10 H10 116.5(19) . .
Co4 O10 Co4 99.68(7) . 2_667
Co4 O10 H10 105(2) 2_667 .
Co4 O10 H10 109(2) . .
C36 O11 Co2 137.3(2) . .
C29 O13 Co3 119.24(16) . .
C29 O14 Co4 135.83(17) . 2_667
Co2 O19 H19A 112.4 . .
Co2 O19 H19B 111.5 . .
H19A O19 H19B 106.8 . .
Co4 O20 H20A 113.1 . .
Co4 O20 H20B 113.1 . .
H20A O20 H20B 105.5 . .
Co1 O21 H21A 111.1 . .
Co1 O21 H21B 110.6 . .
H21A O21 H21B 107.8 . .
N2 N1 Co1 120.44(15) . 1_644
C1 N1 Co1 130.54(19) . 1_644
C1 N1 N2 107.3(2) . .
N1 N2 Co2 119.54(16) . 2_767
C2 N2 Co2 133.16(18) . 2_767
C2 N2 N1 107.0(2) . .
C1 N3 C2 105.3(2) . .
C1 N3 C3 127.1(2) . .
C2 N3 C3 127.7(3) . .
C11 N4 C10 127.0(2) . .
C12 N4 C10 127.3(2) . .
C12 N4 C11 105.4(2) . .
N6 N5 Co3 120.27(15) . .
C11 N5 Co3 131.41(18) . .
C11 N5 N6 107.3(2) . .
N5 N6 Co4 118.68(15) . .
C12 N6 Co4 133.77(19) . .
C12 N6 N5 106.9(2) . .
O15 N7 O16A 128.6(14) . .
O15 N7 C32 118.5(2) . .
O16 N7 O15 119.9(5) . .
O16 N7 C32 121.2(5) . .
O16A N7 C32 110.3(12) . .
O22 N8 O23 119.6(5) . .
O22 N8 O23A 118.9(4) . .
O22 N8 C18 120.0(3) . .
O23 N8 C18 114.9(4) . .
O23A N8 C18 115.0(4) . .
O17 N9 C26 117.3(5) . .
O17A N9 O18A 127.5(15) . .
O17A N9 C26 118.3(13) . .
O18 N9 O17 123.6(7) . .
O18 N9 C26 119.0(6) . .
O18A N9 C26 113.9(9) . .
O18B N9 C26 113.5(14) . .
N1 C1 N3 110.1(2) . .
N1 C1 H1 125.0 . .
N3 C1 H1 125.0 . .
N2 C2 N3 110.4(2) . .
N2 C2 H2 124.8 . .
N3 C2 H2 124.8 . .
N3 C3 H3A 109.3 . .
N3 C3 H3B 109.3 . .
N3 C3 C4 111.7(2) . .
H3A C3 H3B 107.9 . .
C4 C3 H3A 109.3 . .
C4 C3 H3B 109.3 . .
C5 C4 C3 120.6(3) . .
C5 C4 C9 118.6(3) . .
C9 C4 C3 120.8(3) . .
C4 C5 H5 119.6 . .
C4 C5 C6 120.7(3) . .
C6 C5 H5 119.6 . .
C5 C6 H6 119.8 . .
C7 C6 C5 120.4(3) . .
C7 C6 H6 119.8 . .
C6 C7 C10 120.3(3) . .
C8 C7 C6 118.9(3) . .
C8 C7 C10 120.8(3) . .
C7 C8 H8 119.6 . .
C9 C8 C7 120.8(3) . .
C9 C8 H8 119.6 . .
C4 C9 H9 119.7 . .
C8 C9 C4 120.5(3) . .
C8 C9 H9 119.7 . .
N4 C10 C7 110.9(2) . .
N4 C10 H10A 109.5 . .
N4 C10 H10B 109.5 . .
C7 C10 H10A 109.5 . .
C7 C10 H10B 109.5 . .
H10A C10 H10B 108.0 . .
N4 C11 H11 125.0 . .
N5 C11 N4 110.1(2) . .
N5 C11 H11 125.0 . .
N4 C12 H12 124.8 . .
N6 C12 N4 110.3(2) . .
N6 C12 H12 124.8 . .
O1 C13 C14 115.6(2) . .
O2 C13 O1 126.1(2) . .
O2 C13 C14 118.3(2) . .
C15 C14 C13 120.3(2) . .
C19 C14 C13 120.6(2) . .
C19 C14 C15 119.1(2) . .
C14 C15 H15 119.7 . .
C14 C15 C16 120.7(2) . .
C16 C15 H15 119.7 . .
C15 C16 C20 120.1(2) . .
C17 C16 C15 120.2(2) . .
C17 C16 C20 119.6(2) . .
C16 C17 H17 121.0 . .
C16 C17 C18 118.1(3) . .
C18 C17 H17 121.0 . .
C17 C18 N8 118.6(3) . .
C19 C18 N8 118.4(3) . .
C19 C18 C17 122.9(3) . .
C14 C19 H19 120.5 . .
C18 C19 C14 119.0(2) . .
C18 C19 H19 120.5 . .
O3 C20 Co3 63.53(13) . .
O3 C20 C16 119.2(2) . .
O4 C20 Co3 60.12(13) . .
O4 C20 O3 121.6(2) . .
O4 C20 C16 119.2(2) . .
C16 C20 Co3 162.37(19) . .
O8 C21 C22 116.5(2) . .
O9 C21 O8 125.3(2) . .
O9 C21 C22 118.1(2) . .
C23 C22 C21 120.8(2) . .
C27 C22 C21 120.1(2) . .
C27 C22 C23 119.1(2) . .
C22 C23 H23 119.6 . .
C24 C23 C22 120.9(2) . .
C24 C23 H23 119.6 . .
C23 C24 C28 120.2(2) . .
C25 C24 C23 119.9(2) . .
C25 C24 C28 119.8(2) . .
C24 C25 H25 121.0 . .
C26 C25 C24 118.0(3) . .
C26 C25 H25 121.0 . .
C25 C26 N9 119.0(3) . .
C27 C26 N9 118.0(2) . .
C27 C26 C25 122.9(2) . .
C22 C27 H27 120.4 . .
C26 C27 C22 119.2(2) . .
C26 C27 H27 120.4 . .
O5 C28 C24 117.6(2) . .
O6 C28 O5 120.9(2) . .
O6 C28 C24 121.4(2) . .
O13 C29 O14 126.8(2) . .
O13 C29 C30 117.9(2) . .
O14 C29 C30 115.4(2) . .
C31 C30 C29 121.0(2) . .
C35 C30 C29 119.3(2) . .
C35 C30 C31 119.7(2) . .
C30 C31 H31 120.8 . .
C32 C31 C30 118.4(2) . .
C32 C31 H31 120.8 . .
C31 C32 N7 117.9(2) . .
C31 C32 C33 122.7(2) . .
C33 C32 N7 119.4(2) . .
C32 C33 H33 120.7 . .
C32 C33 C34 118.5(2) . .
C34 C33 H33 120.7 . .
C33 C34 C36 121.1(2) . .
C35 C34 C33 119.1(2) . .
C35 C34 C36 119.8(2) . .
C30 C35 C34 121.5(2) . .
C30 C35 H35 119.3 . .
C34 C35 H35 119.3 . .
O11 C36 C34 117.7(2) . .
O12 C36 O11 125.6(3) . .
O12 C36 C34 116.6(3) . .
loop_
_geom_bond_atom_site_label_1
_geom_bond_atom_site_label_2
_geom_bond_distance
_geom_bond_site_symmetry_2
Co1 O1 2.0299(17) 2_677
Co1 O5 2.1630(18) 1_556
Co1 O6 2.2932(18) 1_556
Co1 O7 2.0249(16) .
Co1 O21 2.094(2) .
Co1 N1 2.125(2) 1_466
Co2 O2 2.1580(16) 2_677
Co2 O7 2.0851(16) .
Co2 O7 2.1225(18) 2_678
Co2 O11 2.0548(19) .
Co2 O19 2.1104(18) .
Co2 N2 2.148(2) 2_767
Co3 O3 2.2410(19) .
Co3 O4 2.1658(17) .
Co3 O8 2.0465(18) 2_667
Co3 O10 2.0102(16) .
Co3 O13 2.1107(17) .
Co3 N5 2.127(2) .
Co3 C20 2.498(2) .
Co4 O9 2.1224(17) .
Co4 O10 2.1178(17) 2_667
Co4 O10 2.0388(17) .
Co4 O14 2.0418(18) 2_667
Co4 O20 2.1359(19) .
Co4 N6 2.147(2) .
O1 Co1 2.0299(17) 2_677
O1 C13 1.270(3) .
O2 Co2 2.1581(16) 2_677
O2 C13 1.251(3) .
O3 C20 1.260(3) .
O4 C20 1.254(3) .
O5 Co1 2.1630(18) 1_554
O5 C28 1.272(3) .
O6 Co1 2.2932(17) 1_554
O6 C28 1.243(3) .
O7 Co2 2.1224(18) 2_678
O7 H7 0.8999(10) .
O8 Co3 2.0466(18) 2_667
O8 C21 1.271(3) .
O9 C21 1.248(3) .
O10 Co4 2.1178(17) 2_667
O10 H10 0.9000(10) .
O11 C36 1.252(3) .
O12 C36 1.246(3) .
O13 C29 1.260(3) .
O14 Co4 2.0419(18) 2_667
O14 C29 1.264(3) .
O15 N7 1.220(3) .
O16 N7 1.204(10) .
O16A N7 1.33(3) .
O17 N9 1.235(8) .
O17A N9 1.25(3) .
O18 N9 1.220(12) .
O18A N9 1.299(17) .
O18B N9 1.40(3) .
O19 H19A 0.9082 .
O19 H19B 0.9040 .
O20 H20A 0.9287 .
O20 H20B 0.9270 .
O21 H21A 0.8863 .
O21 H21B 0.8859 .
O22 N8 1.204(4) .
O23 N8 1.278(8) .
O23A N8 1.299(7) .
N1 Co1 2.125(2) 1_644
N1 N2 1.369(3) .
N1 C1 1.313(3) .
N2 Co2 2.148(2) 2_767
N2 C2 1.309(3) .
N3 C1 1.345(4) .
N3 C2 1.348(3) .
N3 C3 1.489(3) .
N4 C10 1.480(3) .
N4 C11 1.350(3) .
N4 C12 1.347(3) .
N5 N6 1.380(3) .
N5 C11 1.302(3) .
N6 C12 1.304(3) .
N7 C32 1.469(3) .
N8 C18 1.463(4) .
N9 C26 1.467(4) .
C1 H1 0.9400 .
C2 H2 0.9400 .
C3 H3A 0.9800 .
C3 H3B 0.9800 .
C3 C4 1.511(4) .
C4 C5 1.383(4) .
C4 C9 1.391(4) .
C5 H5 0.9400 .
C5 C6 1.384(4) .
C6 H6 0.9400 .
C6 C7 1.384(4) .
C7 C8 1.383(4) .
C7 C10 1.516(4) .
C8 H8 0.9400 .
C8 C9 1.376(4) .
C9 H9 0.9400 .
C10 H10A 0.9800 .
C10 H10B 0.9800 .
C11 H11 0.9400 .
C12 H12 0.9400 .
C13 C14 1.503(3) .
C14 C15 1.391(3) .
C14 C19 1.387(4) .
C15 H15 0.9400 .
C15 C16 1.395(4) .
C16 C17 1.375(4) .
C16 C20 1.500(3) .
C17 H17 0.9400 .
C17 C18 1.384(4) .
C18 C19 1.372(4) .
C19 H19 0.9400 .
C21 C22 1.501(4) .
C22 C23 1.400(3) .
C22 C27 1.383(4) .
C23 H23 0.9400 .
C23 C24 1.398(4) .
C24 C25 1.389(4) .
C24 C28 1.505(3) .
C25 H25 0.9400 .
C25 C26 1.388(4) .
C26 C27 1.379(4) .
C27 H27 0.9400 .
C29 C30 1.503(4) .
C30 C31 1.388(3) .
C30 C35 1.381(3) .
C31 H31 0.9400 .
C31 C32 1.380(4) .
C32 C33 1.383(4) .
C33 H33 0.9400 .
C33 C34 1.393(4) .
C34 C35 1.391(4) .
C34 C36 1.510(4) .
C35 H35 0.9400 .
loop_
_geom_hbond_atom_site_label_D
_geom_hbond_atom_site_label_H
_geom_hbond_atom_site_label_A
_geom_hbond_distance_DH
_geom_hbond_distance_HA
_geom_hbond_distance_DA
_geom_hbond_angle_DHA
_geom_hbond_site_symmetry_A
O19 H19A O5 0.91 1.91 2.717(3) 147.2 2_677
O20 H20B O17 0.93 2.11 2.921(8) 145.8 1_655
O20 H20B O17A 0.93 2.57 3.32(2) 137.6 1_655
O21 H21B O12 0.89 1.77 2.628(3) 161.4 .
C1 H1 O1 0.94 2.57 3.373(3) 144.0 1_545
C1 H1 O6 0.94 2.64 3.243(3) 122.3 2_666
C3 H3A O6 0.98 2.61 3.391(4) 136.4 2_666
C11 H11 O4 0.94 2.39 3.006(3) 123.0 2_767
C11 H11 O8 0.94 2.53 3.416(3) 157.0 1_655
loop_
_geom_torsion_atom_site_label_1
_geom_torsion_atom_site_label_2
_geom_torsion_atom_site_label_3
_geom_torsion_atom_site_label_4
_geom_torsion
_geom_torsion_site_symmetry_1
_geom_torsion_site_symmetry_4
Co1 O1 C13 O2 -2.9(3) 2_677 .
Co1 O1 C13 C14 177.93(15) 2_677 .
Co1 O5 C28 O6 -5.2(3) 1_554 .
Co1 O5 C28 C24 172.9(2) 1_554 .
Co1 O6 C28 O5 4.9(2) 1_554 .
Co1 O6 C28 C24 -173.1(2) 1_554 .
Co1 N1 N2 Co2 -6.9(2) 1_644 2_767
Co1 N1 N2 C2 167.35(17) 1_644 .
Co1 N1 C1 N3 -165.36(17) 1_644 .
Co2 O2 C13 O1 -57.8(3) 2_677 .
Co2 O2 C13 C14 121.4(2) 2_677 .
Co2 O11 C36 O12 49.5(5) . .
Co2 O11 C36 C34 -127.5(2) . .
Co2 N2 C2 N3 172.44(17) 2_767 .
Co3 O3 C20 O4 16.4(3) . .
Co3 O3 C20 C16 -160.3(2) . .
Co3 O4 C20 O3 -17.0(3) . .
Co3 O4 C20 C16 159.7(2) . .
Co3 O8 C21 O9 13.2(3) 2_667 .
Co3 O8 C21 C22 -167.95(16) 2_667 .
Co3 O13 C29 O14 -12.8(4) . .
Co3 O13 C29 C30 167.81(17) . .
Co3 N5 N6 Co4 18.1(2) . .
Co3 N5 N6 C12 -170.08(17) . .
Co3 N5 C11 N4 167.94(17) . .
Co4 O9 C21 O8 37.7(4) . .
Co4 O9 C21 C22 -141.13(19) . .
Co4 O14 C29 O13 -18.9(4) 2_667 .
Co4 O14 C29 C30 160.48(18) 2_667 .
Co4 N6 C12 N4 170.88(17) . .
O1 C13 C14 C15 170.4(2) . .
O1 C13 C14 C19 -6.4(3) . .
O2 C13 C14 C15 -8.8(4) . .
O2 C13 C14 C19 174.3(2) . .
O8 C21 C22 C23 174.4(2) . .
O8 C21 C22 C27 -6.6(4) . .
O9 C21 C22 C23 -6.7(4) . .
O9 C21 C22 C27 172.3(2) . .
O13 C29 C30 C31 12.3(4) . .
O13 C29 C30 C35 -169.9(2) . .
O14 C29 C30 C31 -167.2(2) . .
O14 C29 C30 C35 10.7(4) . .
O15 N7 C32 C31 160.6(3) . .
O15 N7 C32 C33 -18.3(4) . .
O16 N7 C32 C31 -11.5(6) . .
O16 N7 C32 C33 169.6(5) . .
O16A N7 C32 C31 -36.2(13) . .
O16A N7 C32 C33 144.8(13) . .
O17 N9 C26 C25 -176.8(4) . .
O17 N9 C26 C27 2.6(6) . .
O17A N9 C26 C25 152.8(10) . .
O17A N9 C26 C27 -27.8(11) . .
O18 N9 C26 C25 0.0(7) . .
O18 N9 C26 C27 179.4(6) . .
O18A N9 C26 C25 -33.6(8) . .
O18A N9 C26 C27 145.8(8) . .
O18B N9 C26 C25 28.9(13) . .
O18B N9 C26 C27 -151.7(12) . .
O22 N8 C18 C17 175.2(4) . .
O22 N8 C18 C19 -7.8(6) . .
O23 N8 C18 C17 21.4(8) . .
O23 N8 C18 C19 -161.6(7) . .
O23A N8 C18 C17 -32.4(7) . .
O23A N8 C18 C19 144.6(5) . .
N1 N2 C2 N3 -0.7(3) . .
N2 N1 C1 N3 -0.7(3) . .
N3 C3 C4 C5 87.2(3) . .
N3 C3 C4 C9 -92.5(3) . .
N5 N6 C12 N4 0.9(3) . .
N6 N5 C11 N4 -0.1(3) . .
N7 C32 C33 C34 177.7(2) . .
N8 C18 C19 C14 -178.7(3) . .
N9 C26 C27 C22 -179.1(3) . .
C1 N1 N2 Co2 -173.36(16) . 2_767
C1 N1 N2 C2 0.9(3) . .
C1 N3 C2 N2 0.2(3) . .
C1 N3 C3 C4 111.2(3) . .
C2 N3 C1 N1 0.3(3) . .
C2 N3 C3 C4 -68.7(4) . .
C3 N3 C1 N1 -179.6(2) . .
C3 N3 C2 N2 -179.9(2) . .
C3 C4 C5 C6 -179.4(3) . .
C3 C4 C9 C8 179.2(3) . .
C4 C5 C6 C7 0.3(5) . .
C5 C4 C9 C8 -0.5(4) . .
C5 C6 C7 C8 -0.7(4) . .
C5 C6 C7 C10 -177.3(3) . .
C6 C7 C8 C9 0.5(4) . .
C6 C7 C10 N4 93.0(3) . .
C7 C8 C9 C4 0.1(5) . .
C8 C7 C10 N4 -83.6(3) . .
C9 C4 C5 C6 0.3(4) . .
C10 N4 C11 N5 174.5(2) . .
C10 N4 C12 N6 -174.8(2) . .
C10 C7 C8 C9 177.0(3) . .
C11 N4 C10 C7 -93.4(3) . .
C11 N4 C12 N6 -0.9(3) . .
C11 N5 N6 Co4 -172.29(16) . .
C11 N5 N6 C12 -0.5(3) . .
C12 N4 C10 C7 79.3(3) . .
C12 N4 C11 N5 0.6(3) . .
C13 C14 C15 C16 -176.9(2) . .
C13 C14 C19 C18 178.1(3) . .
C14 C15 C16 C17 -0.5(4) . .
C14 C15 C16 C20 175.2(2) . .
C15 C14 C19 C18 1.1(4) . .
C15 C16 C17 C18 -0.1(4) . .
C15 C16 C20 Co3 -94.9(7) . .
C15 C16 C20 O3 -0.9(4) . .
C15 C16 C20 O4 -177.6(2) . .
C16 C17 C18 N8 178.1(3) . .
C16 C17 C18 C19 1.2(5) . .
C17 C16 C20 Co3 80.8(7) . .
C17 C16 C20 O3 174.9(3) . .
C17 C16 C20 O4 -1.9(4) . .
C17 C18 C19 C14 -1.8(5) . .
C19 C14 C15 C16 0.0(4) . .
C20 C16 C17 C18 -175.8(3) . .
C21 C22 C23 C24 -179.9(2) . .
C21 C22 C27 C26 -180.0(2) . .
C22 C23 C24 C25 -0.5(4) . .
C22 C23 C24 C28 -177.7(2) . .
C23 C22 C27 C26 -1.0(4) . .
C23 C24 C25 C26 -0.1(4) . .
C23 C24 C28 O5 13.0(4) . .
C23 C24 C28 O6 -168.9(2) . .
C24 C25 C26 N9 179.7(3) . .
C24 C25 C26 C27 0.3(5) . .
C25 C24 C28 O5 -164.1(2) . .
C25 C24 C28 O6 14.0(4) . .
C25 C26 C27 C22 0.3(5) . .
C27 C22 C23 C24 1.1(4) . .
C28 C24 C25 C26 177.0(2) . .
C29 C30 C31 C32 174.7(2) . .
C29 C30 C35 C34 -177.5(2) . .
C30 C31 C32 N7 -175.3(2) . .
C30 C31 C32 C33 3.6(4) . .
C31 C30 C35 C34 0.4(4) . .
C31 C32 C33 C34 -1.2(4) . .
C32 C33 C34 C35 -1.6(4) . .
C32 C33 C34 C36 176.8(3) . .
C33 C34 C35 C30 2.0(4) . .
C33 C34 C36 O11 2.2(4) . .
C33 C34 C36 O12 -175.1(3) . .
C35 C30 C31 C32 -3.1(4) . .
C35 C34 C36 O11 -179.3(3) . .
C35 C34 C36 O12 3.4(4) . .
C36 C34 C35 C30 -176.4(3) . .
