#------------------------------------------------------------------------------
#$Date: 2016-11-08 21:40:51 +0200 (Tue, 08 Nov 2016) $
#$Revision: 188131 $
#$URL: file:///home/coder/svn-repositories/cod/cif/7/04/05/7040513.cif $
#------------------------------------------------------------------------------
#
# This file is available in the Crystallography Open Database (COD),
# http://www.crystallography.net/
#
# All data on this site have been placed in the public domain by the
# contributors.
#
data_7040513
loop_
_publ_author_name
'Yan, Yang-Tian'
'Zhang, Wen-Yan'
'Wu, Yun-Long'
'Li, Jiang'
'Xi, Zheng-Ping'
'Wang, Yao-Yu'
'Hou, Lei'
_publ_section_title
;
 Four new 3D metal-organic frameworks constructed by the asymmetrical
 pentacarboxylate: gas sorption behaviour and magnetic properties.
;
_journal_issue                   39
_journal_name_full
'Dalton transactions (Cambridge, England : 2003)'
_journal_page_first              15473
_journal_page_last               15480
_journal_paper_doi               10.1039/c6dt02846b
_journal_volume                  45
_journal_year                    2016
_chemical_formula_moiety         'C23 H11 Co2 O11, C2 H8 N'
_chemical_formula_sum            'C25 H19 Co2 N O11'
_chemical_formula_weight         627.27
_space_group_crystal_system      monoclinic
_space_group_IT_number           14
_space_group_name_Hall           '-P 2ybc'
_space_group_name_H-M_alt        'P 1 21/c 1'
_symmetry_space_group_name_Hall  '-P 2ybc'
_symmetry_space_group_name_H-M   'P 1 21/c 1'
_atom_sites_solution_hydrogens   mixed
_audit_block_doi                 10.5517/ccdc.csd.cc1lj65h
_audit_creation_date             2016-08-23
_audit_creation_method
;
Olex2 1.2-beta
(compiled 2016.08.19 svn.r3327 for OlexSys, GUI svn.r5215)
;
_audit_update_record
;
2016-08-23 deposited with the CCDC.
2016-08-26 downloaded from the CCDC.
;
_cell_angle_alpha                90
_cell_angle_beta                 98.048(6)
_cell_angle_gamma                90
_cell_formula_units_Z            4
_cell_length_a                   10.230(3)
_cell_length_b                   9.468(3)
_cell_length_c                   28.006(9)
_cell_measurement_reflns_used    2575
_cell_measurement_temperature    296.15
_cell_measurement_theta_max      24.390
_cell_measurement_theta_min      2.945
_cell_volume                     2685.9(14)
_computing_molecular_graphics    'Olex2 (Dolomanov et al., 2009)'
_computing_publication_material  'Olex2 (Dolomanov et al., 2009)'
_computing_structure_refinement  'ShelXL (Sheldrick, 2015)'
_diffrn_ambient_temperature      296.15
_diffrn_measured_fraction_theta_full 0.996
_diffrn_measured_fraction_theta_max 0.970
_diffrn_measurement_device_type  'Bruker P4'
_diffrn_radiation_type           MoK\a
_diffrn_radiation_wavelength     0.71073
_diffrn_reflns_av_R_equivalents  0.0644
_diffrn_reflns_av_unetI/netI     0.0814
_diffrn_reflns_Laue_measured_fraction_full 0.996
_diffrn_reflns_Laue_measured_fraction_max 0.970
_diffrn_reflns_limit_h_max       12
_diffrn_reflns_limit_h_min       -12
_diffrn_reflns_limit_k_max       11
_diffrn_reflns_limit_k_min       -11
_diffrn_reflns_limit_l_max       34
_diffrn_reflns_limit_l_min       -24
_diffrn_reflns_number            13919
_diffrn_reflns_point_group_measured_fraction_full 0.996
_diffrn_reflns_point_group_measured_fraction_max 0.970
_diffrn_reflns_theta_full        25.242
_diffrn_reflns_theta_max         25.677
_diffrn_reflns_theta_min         1.469
_exptl_absorpt_coefficient_mu    1.295
_exptl_absorpt_correction_T_max  0.7457
_exptl_absorpt_correction_T_min  0.6421
_exptl_absorpt_correction_type   multi-scan
_exptl_absorpt_process_details
;
SADABS-2008/1 (Bruker,2008) was used for absorption correction.
wR2(int) was 0.0740 before and 0.0616 after correction.
The Ratio of minimum to maximum transmission is 0.8611.
The \l/2 correction factor is 0.0015.
;
_exptl_crystal_colour            colourless
_exptl_crystal_colour_primary    colourless
_exptl_crystal_density_diffrn    1.551
_exptl_crystal_description       block
_exptl_crystal_F_000             1272
_exptl_crystal_size_max          0.15
_exptl_crystal_size_mid          0.13
_exptl_crystal_size_min          0.11
_refine_diff_density_max         1.775
_refine_diff_density_min         -0.898
_refine_diff_density_rms         0.234
_refine_ls_extinction_method     none
_refine_ls_goodness_of_fit_ref   1.067
_refine_ls_hydrogen_treatment    constr
_refine_ls_matrix_type           full
_refine_ls_number_parameters     355
_refine_ls_number_reflns         5101
_refine_ls_number_restraints     15
_refine_ls_restrained_S_all      1.068
_refine_ls_R_factor_all          0.1186
_refine_ls_R_factor_gt           0.0941
_refine_ls_shift/su_max          0.001
_refine_ls_shift/su_mean         0.000
_refine_ls_structure_factor_coef Fsqd
_refine_ls_weighting_details
'w=1/[\s^2^(Fo^2^)+(0.1926P)^2^+25.5291P] where P=(Fo^2^+2Fc^2^)/3'
_refine_ls_weighting_scheme      calc
_refine_ls_wR_factor_gt          0.2758
_refine_ls_wR_factor_ref         0.3105
_reflns_Friedel_coverage         0.000
_reflns_number_gt                3992
_reflns_number_total             5101
_reflns_threshold_expression     'I > 2\s(I)'
_cod_data_source_file            c6dt02846b2.cif
_cod_data_source_block           3_sq
_cod_depositor_comments
;Adding full bibliography for 7040511--7040514.cif.

 Adding full bibliography for 7040511--7040514.cif.
;
_cod_original_cell_volume        2685.8(16)
_cod_database_code               7040513
_shelx_space_group_comment
;
The symmetry employed for this shelxl refinement is uniquely defined
by the following loop, which should always be used as a source of
symmetry information in preference to the above space-group names.
They are only intended as comments.
;
_shelx_estimated_absorpt_t_max   0.871
_shelx_estimated_absorpt_t_min   0.829
_olex2_refinement_description
;
1. Twinned data refinement
 Scales: 0.908(2) 0.092(2)
2. Fixed Uiso
 At 1.2 times of:
  All C(H) groups, All N(H,H) groups
 At 1.5 times of:
  All C(H,H,H) groups, All O(H,H) groups
3. Uiso/Uaniso restraints and constraints
Uanis(C12) \\sim Ueq: with sigma of 0.02 and sigma for terminal atoms of 0.04
4. Rigid body (RIGU) restrains
 N1, C24, C25
 with sigma for 1-2 distances of 0.004 and sigma for 1-3 distances of 0.004
 O11
 with sigma for 1-2 distances of 0.004 and sigma for 1-3 distances of 0.004
5.a Riding coordinates:
 O11(H11A,H11B)
5.b Secondary CH2 refined with riding coordinates:
 N1(H1A,H1B)
5.c Aromatic/amide H refined with riding coordinates:
 C3(H3), C5(H5), C7(H7), C11(H11), C12(H12), C14(H14), C17(H17), C19(H19),
 C21(H21)
5.d Idealised Me refined as rotating group:
 C24(H24A,H24B,H24C), C25(H25A,H25B,H25C)
;
_shelx_res_file
;
    3_sq.res created by SHELXL-2014/7

TITL Y in P2(1)/c
CELL 0.71073 10.2297 9.468 28.006 90 98.048 90
ZERR 4 0.0034 0.0033 0.0093 0 0.006 0
LATT 1
SYMM -X,0.5+Y,0.5-Z
SFAC C H Co N O
UNIT 100 76 8 4 44
RIGU N1 C24 C25
RIGU O11
ISOR 0.02 0.04 C12

L.S. 5 0 20
PLAN  15
SIZE 0.15 0.13 0.11
TEMP 23
BOND
MORE -1
BOND $H
CONF
ABIN
fmap 2
acta
SHEL 999 0.82
TWIN -1 0 0 0 -1 0 0.767 0 1 2
OMIT 4 1 7
REM <olex2.extras>
REM <HklSrc "%.\\3_sq.hkl">
REM </olex2.extras>

WGHT    0.192600   25.529100
BASF   0.09234
FVAR       0.09400
CO1   3    0.779730    1.383355    0.693520    11.00000    0.01520    0.02573 =
         0.01168    0.00362    0.00113   -0.00250
CO2   3    0.556440    1.439703    0.597202    11.00000    0.01120    0.02979 =
         0.01474    0.00180    0.00117   -0.00141
O1    5    0.532695    1.246306    0.626373    11.00000    0.02207    0.02557 =
         0.06755    0.01647   -0.00888   -0.00843
O11   5    0.578469    1.640886    0.564232    11.00000    0.04479    0.06228 =
         0.02537    0.01690    0.01230   -0.00169
AFIX   3
H11A  2    0.501509    1.651396    0.569382    11.00000   -1.50000
H11B  2    0.588579    1.633746    0.534742    11.00000   -1.50000
AFIX   0
O2    5    0.709901    1.186942    0.677798    11.00000    0.02114    0.02490 =
         0.03698    0.00323   -0.00397   -0.00786
O3    5    0.782500    0.652735    0.705899    11.00000    0.01867    0.03278 =
         0.03051    0.00022    0.00189    0.00131
O4    5    0.632564    0.518289    0.665981    11.00000    0.02242    0.02072 =
         0.02285   -0.00058    0.00249   -0.00161
O5    5    0.287741    0.877952    0.735040    11.00000    0.02653    0.06659 =
         0.02081   -0.01473    0.01024   -0.01231
O6    5    0.081225    0.848600    0.745233    11.00000    0.02155    0.05470 =
         0.01259   -0.00865    0.00240   -0.00268
O7    5   -0.410261    0.625943    0.464200    11.00000    0.01702    0.05955 =
         0.02970   -0.00356    0.00834   -0.00312
O8    5   -0.347940    0.538777    0.399218    11.00000    0.01275    0.03553 =
         0.01376   -0.00266    0.00420    0.00810
O9    5    0.100596    0.607772    0.358974    11.00000    0.02497    0.04840 =
         0.01069   -0.00716    0.00509   -0.01030
O10   5    0.262607    0.610769    0.421905    11.00000    0.01455    0.06229 =
         0.02799    0.00101    0.01163    0.00988
C1    1    0.603005    1.159007    0.651970    11.00000    0.02190    0.01960 =
         0.02390   -0.00175    0.00504   -0.00074
C2    1    0.551838    1.010083    0.653262    11.00000    0.01368    0.01922 =
         0.02272   -0.00143   -0.00379   -0.00302
C3    1    0.635742    0.898762    0.667850    11.00000    0.01138    0.02874 =
         0.03186    0.00000    0.00037   -0.00770
AFIX  43
H3    2    0.725522    0.914400    0.676960    11.00000   -1.20000
AFIX   0
C4    1    0.583665    0.762885    0.668682    11.00000    0.02244    0.02003 =
         0.01884    0.00118    0.00058    0.00033
C5    1    0.449149    0.741655    0.657864    11.00000    0.01974    0.02486 =
         0.01592    0.00101    0.00025   -0.00468
AFIX  43
H5    2    0.414879    0.651290    0.660086    11.00000   -1.20000
AFIX   0
C6    1    0.363940    0.853707    0.643656    11.00000    0.01649    0.02449 =
         0.02065   -0.00923    0.00518    0.00076
C7    1    0.415726    0.984630    0.640330    11.00000    0.01548    0.03358 =
         0.02485   -0.00359    0.00569    0.00756
AFIX  43
H7    2    0.360316    1.059099    0.629294    11.00000   -1.20000
AFIX   0
C8    1    0.673906    0.639490    0.681115    11.00000    0.01911    0.02387 =
         0.01689   -0.00045    0.00549    0.00585
C9    1    0.218965    0.824646    0.631393    11.00000    0.01471    0.03081 =
         0.01731   -0.01100    0.00225   -0.00295
C10   1    0.130748    0.825236    0.664884    11.00000    0.02183    0.02815 =
         0.01199   -0.00577    0.00101   -0.00482
C11   1   -0.001765    0.791513    0.648674    11.00000    0.01802    0.06282 =
         0.00824   -0.00891    0.00466   -0.00484
AFIX  43
H11   2   -0.061092    0.792628    0.670981    11.00000   -1.20000
AFIX   0
C12   1   -0.049724    0.756270    0.600794    11.00000    0.01322    0.06678 =
         0.01934   -0.01061    0.00573   -0.01112
AFIX  43
H12   2   -0.138011    0.733054    0.591639    11.00000   -1.20000
AFIX   0
C13   1    0.039209    0.757156    0.567361    11.00000    0.01557    0.03318 =
         0.01442    0.00145    0.00310   -0.00534
C14   1    0.169249    0.792760    0.583756    11.00000    0.01411    0.04071 =
         0.01532   -0.00345    0.00771   -0.00349
AFIX  43
H14   2    0.227805    0.795563    0.561191    11.00000   -1.20000
AFIX   0
C15   1    0.171223    0.852758    0.717994    11.00000    0.02029    0.03188 =
         0.01253   -0.00842    0.00014   -0.00514
C16   1   -0.005236    0.713003    0.516572    11.00000    0.01153    0.03316 =
         0.02891   -0.00197    0.00084    0.00176
C17   1   -0.137676    0.681944    0.500511    11.00000    0.01448    0.04285 =
         0.01941   -0.00612    0.00369   -0.00694
AFIX  43
H17   2   -0.200032    0.696521    0.521193    11.00000   -1.20000
AFIX   0
C18   1   -0.177928    0.630757    0.455250    11.00000    0.01766    0.02932 =
         0.01632   -0.00144    0.00073   -0.00589
C19   1   -0.087509    0.608654    0.423205    11.00000    0.01515    0.02610 =
         0.01528   -0.00220   -0.00288   -0.00293
AFIX  43
H19   2   -0.115661    0.572608    0.392601    11.00000   -1.20000
AFIX   0
C20   1    0.044406    0.640471    0.437014    11.00000    0.02114    0.03507 =
         0.01216    0.00113    0.00547   -0.01134
C21   1    0.084916    0.689002    0.484380    11.00000    0.00481    0.03613 =
         0.02485   -0.00577   -0.00020   -0.00358
AFIX  43
H21   2    0.174148    0.705466    0.494440    11.00000   -1.20000
AFIX   0
C22   1    0.146552    0.615877    0.404151    11.00000    0.02887    0.02501 =
         0.01782   -0.00265    0.00682   -0.01958
C23   1   -0.320861    0.595095    0.437937    11.00000    0.01344    0.02980 =
         0.02633    0.00719   -0.00372   -0.00042

N1    4    0.842489    0.841868    0.789133    11.00000    0.06853    0.05736 =
         0.03877   -0.01171    0.02267   -0.00802
AFIX  23
H1A   2    0.858542    0.807820    0.760908    11.00000   -1.20000
H1B   2    0.915134    0.830705    0.810323    11.00000   -1.20000
AFIX   0
C24   1    0.811994    0.989148    0.784146    11.00000    0.10232    0.06781 =
         0.05792   -0.01424    0.01047    0.00900
AFIX 137
H24A  2    0.781298    1.022756    0.812951    11.00000   -1.50000
H24B  2    0.744438    1.003032    0.757111    11.00000   -1.50000
H24C  2    0.889794    1.040428    0.779030    11.00000   -1.50000
AFIX   0
C25   1    0.736552    0.764299    0.804934    11.00000    0.12721    0.11640 =
         0.08646   -0.03455    0.05832   -0.05426
AFIX 137
H25A  2    0.656044    0.784141    0.784019    11.00000   -1.50000
H25B  2    0.727251    0.791636    0.837296    11.00000   -1.50000
H25C  2    0.755225    0.665034    0.804098    11.00000   -1.50000
AFIX   0
HKLF 4

REM  Y in P2(1)/c
REM R1 =  0.0941 for    3992 Fo > 4sig(Fo)  and  0.1186 for all    5101 data
REM    355 parameters refined using     15 restraints

END

WGHT      0.1926     25.5223

REM Highest difference peak  1.775,  deepest hole -0.898,  1-sigma level  0.234
Q1    1   0.5506  0.3865  0.6914  11.00000  0.05    1.77
Q2    1   0.9906  0.8791  0.8035  11.00000  0.05    1.69
Q3    1   0.4996  1.7230  0.5404  11.00000  0.05    1.54
Q4    1  -0.0954  0.5577  0.4022  11.00000  0.05    1.37
Q5    1   0.2110  0.5488  0.4000  11.00000  0.05    1.16
Q6    1   0.5636  0.8199  0.7644  11.00000  0.05    1.02
Q7    1   0.7529  0.8678  0.7994  11.00000  0.05    0.99
Q8    1   0.5505  0.6812  0.6990  11.00000  0.05    0.89
Q9    1   0.6886  0.8760  0.8046  11.00000  0.05    0.86
Q10   1   0.5338  0.8112  0.7978  11.00000  0.05    0.84
Q11   1  -0.2999  0.5678  0.4090  11.00000  0.05    0.84
Q12   1  -0.3115  0.5116  0.4002  11.00000  0.05    0.82
Q13   1   0.3079  0.9622  0.5893  11.00000  0.05    0.80
Q14   1   0.4539  0.8079  0.7118  11.00000  0.05    0.80
Q15   1   0.7867  1.3373  0.7005  11.00000  0.05    0.80
;
_shelx_res_checksum              63562
_shelx_fab_checksum              37701
_shelx_fab_file
;
    1    0    0    -12.52      0.00
    2    0    0     19.53      0.00
    3    0    0      0.35      0.00
    4    0    0     -7.14      0.00
    5    0    0      0.85      0.00
    6    0    0      2.32      0.00
    7    0    0     -1.38      0.00
    8    0    0     -5.13      0.00
    9    0    0     -4.60      0.00
   10    0    0     -6.15      0.00
    2    1    0     -8.86      0.00
    3    1    0      2.01      0.00
    4    1    0     -1.16      0.00
    5    1    0      2.64      0.00
    6    1    0     -1.13      0.00
    8    1    0      3.24      0.00
    9    1    0      1.62      0.00
   10    1    0      0.30      0.00
   11    1    0      0.86      0.00
    0    2    0     36.25      0.00
    1    2    0      3.00      0.00
    2    2    0      1.10      0.00
    3    2    0     -0.45      0.00
    4    2    0     -2.71      0.00
    5    2    0      1.61      0.00
    6    2    0      1.78      0.00
    7    2    0     -0.34      0.00
    8    2    0     -1.00      0.00
    9    2    0     -6.15      0.00
   10    2    0     -2.66      0.00
   11    2    0      0.19      0.00
   12    2    0     -0.25      0.00
    1    3    0     -4.15      0.00
    3    3    0      0.73      0.00
    4    3    0     -0.74      0.00
    5    3    0      3.39      0.00
    6    3    0     -1.50      0.00
    7    3    0     -5.76      0.00
    8    3    0      3.58      0.00
    9    3    0      2.49      0.00
   10    3    0     -1.13      0.00
   11    3    0      2.44      0.00
   12    3    0     -1.63      0.00
   13    3    0      0.44      0.00
    0    4    0     -5.15      0.00
    1    4    0      4.62      0.00
    2    4    0     -1.79      0.00
    3    4    0      2.24      0.00
    4    4    0      0.41      0.00
    5    4    0     -3.69      0.00
    6    4    0      0.71      0.00
    7    4    0      3.26      0.00
    8    4    0     -3.90      0.00
    9    4    0      1.01      0.00
   10    4    0     -0.81      0.00
   11    4    0      0.02      0.00
   12    4    0     -0.11      0.00
    1    5    0     -2.08      0.00
    2    5    0      1.35      0.00
    3    5    0      1.68      0.00
    6    5    0     -3.25      0.00
    7    5    0     -0.84      0.00
    8    5    0     -0.11      0.00
    9    5    0      1.39      0.00
   10    5    0     -1.41      0.00
   11    5    0      1.70      0.00
   12    5    0     -0.73      0.00
    0    6    0      7.53      0.00
    1    6    0      2.85      0.00
    2    6    0      3.34      0.00
    3    6    0      0.45      0.00
    4    6    0     -1.15      0.00
    5    6    0     -2.29      0.00
    6    6    0      1.29      0.00
    7    6    0      0.29      0.00
    8    6    0     -0.05      0.00
    9    6    0      0.98      0.00
   10    6    0     -2.22      0.00
   11    6    0     -1.24      0.00
    1    7    0     -0.97      0.00
    2    7    0      1.59      0.00
    3    7    0     -0.36      0.00
    4    7    0     -0.01      0.00
    5    7    0     -0.43      0.00
    6    7    0      0.51      0.00
    7    7    0     -0.18      0.00
    8    7    0      1.18      0.00
    9    7    0     -0.80      0.00
   10    7    0     -1.45      0.00
   11    7    0      2.70      0.00
    0    8    0     -1.80      0.00
    1    8    0      1.50      0.00
    2    8    0     -0.51      0.00
    3    8    0     -3.88      0.00
    4    8    0      0.43      0.00
    5    8    0      3.60      0.00
    6    8    0      1.93      0.00
    7    8    0     -0.94      0.00
    8    8    0      2.42      0.00
    9    8    0     -2.18      0.00
   10    8    0     -3.57      0.00
    1    9    0      0.75      0.00
    2    9    0     -0.94      0.00
    3    9    0      0.87      0.00
    4    9    0      0.49      0.00
    5    9    0      0.17      0.00
    6    9    0      0.07      0.00
    7    9    0     -0.55      0.00
    8    9    0     -2.84      0.00
    9    9    0     -1.29      0.00
    0   10    0     -0.21      0.00
    1   10    0      1.19      0.00
    2   10    0     -0.07      0.00
    3   10    0      0.23      0.00
    4   10    0      2.43      0.00
    5   10    0     -0.55      0.00
    6   10    0     -0.12      0.00
    7   10    0     -0.70      0.00
    8   10    0     -0.25      0.00
    1   11    0      1.47      0.00
    2   11    0     -0.21      0.00
    3   11    0      1.32      0.00
    4   11    0      0.56      0.00
    5   11    0      0.51      0.00
    6   11    0      1.39      0.00
    0   12    0     -1.01      0.00
    1   12    0      1.23      0.00
    2   12    0      1.70      0.00
    3   12    0      0.87      0.00
    4   12    0      3.20      0.00
  -11    1    1      0.87      0.00
  -10    1    1      4.99      0.00
   -9    1    1      5.83      0.00
   -8    1    1      2.42      0.00
   -7    1    1      0.48      0.00
   -6    1    1     -1.49      0.00
   -5    1    1     -0.86      0.00
   -4    1    1      6.01      0.00
   -3    1    1     -0.01      0.00
   -2    1    1    -14.96      0.00
    1    1    1      7.80      0.00
    2    1    1     -6.15      0.00
    3    1    1      2.44      0.00
    4    1    1      5.90      0.00
    5    1    1      0.38      0.00
    6    1    1     -0.51      0.00
    7    1    1      2.66      0.00
    8    1    1      3.86      0.00
    9    1    1      4.49      0.00
   10    1    1      3.91      0.00
   11    1    1     -0.25      0.00
  -12    2    1     -0.56      0.00
  -11    2    1      1.88      0.00
  -10    2    1     -0.93      0.00
   -9    2    1     -0.38      0.00
   -8    2    1      4.36      0.00
   -7    2    1     -2.20      0.00
   -6    2    1      0.61      0.00
   -5    2    1      4.01      0.00
   -4    2    1     -0.89      0.00
   -3    2    1      2.70      0.00
   -2    2    1     -5.20      0.00
   -1    2    1      9.45      0.00
    0    2    1     10.10      0.00
    1    2    1     12.33      0.00
    2    2    1     11.40      0.00
    3    2    1     -1.18      0.00
    4    2    1      1.10      0.00
    5    2    1     -4.06      0.00
    6    2    1      1.42      0.00
    7    2    1      5.43      0.00
    8    2    1     -6.16      0.00
    9    2    1     -4.63      0.00
   10    2    1     -0.60      0.00
   11    2    1     -2.12      0.00
   12    2    1      1.79      0.00
  -12    3    1      1.87      0.00
  -11    3    1     -0.61      0.00
  -10    3    1      0.57      0.00
   -9    3    1      1.85      0.00
   -8    3    1      2.47      0.00
   -7    3    1     -1.67      0.00
   -6    3    1     -1.12      0.00
   -5    3    1     -0.69      0.00
   -4    3    1     -0.04      0.00
   -3    3    1     -1.10      0.00
   -1    3    1     -5.10      0.00
    0    3    1     -1.11      0.00
    1    3    1     -8.09      0.00
    3    3    1     -0.47      0.00
    4    3    1      1.73      0.00
    5    3    1      2.58      0.00
    6    3    1     -0.87      0.00
    8    3    1      0.91      0.00
    9    3    1      4.18      0.00
   10    3    1      2.30      0.00
   11    3    1     -0.32      0.00
   12    3    1     -0.50      0.00
   13    3    1      0.60      0.00
  -12    4    1     -0.31      0.00
  -11    4    1      2.31      0.00
  -10    4    1     -1.16      0.00
   -9    4    1      1.24      0.00
   -8    4    1      1.25      0.00
   -7    4    1     -1.17      0.00
   -6    4    1     -0.34      0.00
   -5    4    1      4.15      0.00
   -4    4    1     -0.71      0.00
   -3    4    1      0.79      0.00
   -2    4    1     -1.55      0.00
   -1    4    1     -3.46      0.00
    0    4    1      0.25      0.00
    1    4    1      1.57      0.00
    2    4    1      0.91      0.00
    3    4    1     -3.47      0.00
    4    4    1      2.94      0.00
    5    4    1     -2.60      0.00
    6    4    1      3.87      0.00
    7    4    1      3.95      0.00
    8    4    1     -0.27      0.00
    9    4    1     -3.96      0.00
   10    4    1      1.31      0.00
   11    4    1     -2.01      0.00
   12    4    1      0.83      0.00
  -12    5    1     -0.66      0.00
  -11    5    1      1.10      0.00
  -10    5    1      0.24      0.00
   -9    5    1     -3.57      0.00
   -8    5    1      4.85      0.00
   -7    5    1     -1.56      0.00
   -6    5    1      0.31      0.00
   -4    5    1     -0.07      0.00
   -3    5    1     -1.66      0.00
   -2    5    1     -0.27      0.00
   -1    5    1     -1.31      0.00
    0    5    1     -1.46      0.00
    1    5    1     -3.39      0.00
    2    5    1     -1.79      0.00
    3    5    1     -0.91      0.00
    4    5    1      1.20      0.00
    5    5    1      5.34      0.00
    6    5    1     -1.15      0.00
    7    5    1     -3.69      0.00
    8    5    1      1.40      0.00
    9    5    1     -1.17      0.00
   10    5    1      0.94      0.00
   11    5    1      0.67      0.00
   12    5    1     -1.05      0.00
  -11    6    1      2.59      0.00
  -10    6    1      0.05      0.00
   -9    6    1      0.83      0.00
   -8    6    1      2.76      0.00
   -7    6    1      0.83      0.00
   -6    6    1     -0.13      0.00
   -5    6    1      0.33      0.00
   -4    6    1     -1.18      0.00
   -3    6    1      0.75      0.00
   -2    6    1      4.06      0.00
   -1    6    1     -1.77      0.00
    0    6    1      0.82      0.00
    1    6    1      2.45      0.00
    2    6    1     -1.06      0.00
    3    6    1      1.15      0.00
    4    6    1      2.16      0.00
    5    6    1     -2.18      0.00
    6    6    1      1.30      0.00
    7    6    1      0.78      0.00
    8    6    1     -0.28      0.00
    9    6    1      0.87      0.00
   10    6    1      2.06      0.00
   11    6    1     -2.17      0.00
  -11    7    1      1.02      0.00
  -10    7    1      3.53      0.00
   -9    7    1     -0.18      0.00
   -8    7    1     -2.90      0.00
   -7    7    1      0.81      0.00
   -6    7    1     -1.66      0.00
   -5    7    1     -1.24      0.00
   -4    7    1      0.27      0.00
   -3    7    1      2.19      0.00
   -2    7    1     -1.62      0.00
   -1    7    1     -1.70      0.00
    0    7    1     -3.37      0.00
    1    7    1     -0.26      0.00
    2    7    1     -0.83      0.00
    3    7    1      2.68      0.00
    4    7    1      1.55      0.00
    5    7    1     -1.47      0.00
    6    7    1     -3.22      0.00
    7    7    1      1.12      0.00
    8    7    1     -2.51      0.00
    9    7    1      0.06      0.00
   10    7    1      3.15      0.00
   11    7    1     -0.34      0.00
  -10    8    1     -1.50      0.00
   -9    8    1     -0.16      0.00
   -8    8    1     -0.60      0.00
   -7    8    1      1.17      0.00
   -6    8    1      2.28      0.00
   -5    8    1     -0.64      0.00
   -4    8    1      0.73      0.00
   -3    8    1      0.89      0.00
   -2    8    1     -0.31      0.00
   -1    8    1      2.34      0.00
    0    8    1      0.72      0.00
    1    8    1      1.53      0.00
    2    8    1      0.87      0.00
    3    8    1     -0.24      0.00
    4    8    1     -0.99      0.00
    5    8    1      0.05      0.00
    6    8    1     -0.46      0.00
    7    8    1      0.20      0.00
    8    8    1      1.40      0.00
    9    8    1      1.20      0.00
   10    8    1      0.97      0.00
   -9    9    1      2.61      0.00
   -8    9    1     -1.65      0.00
   -7    9    1     -0.58      0.00
   -6    9    1     -0.39      0.00
   -5    9    1     -2.26      0.00
   -4    9    1     -1.81      0.00
   -3    9    1      2.01      0.00
   -2    9    1      0.69      0.00
   -1    9    1     -2.47      0.00
    0    9    1      2.38      0.00
    1    9    1     -1.16      0.00
    2    9    1      0.59      0.00
    3    9    1      1.98      0.00
    4    9    1     -0.96      0.00
    5    9    1     -2.63      0.00
    6    9    1     -0.70      0.00
    7    9    1      0.70      0.00
    8    9    1     -1.37      0.00
    9    9    1      2.14      0.00
   -8   10    1     -2.19      0.00
   -7   10    1     -1.12      0.00
   -6   10    1      1.81      0.00
   -5   10    1      1.23      0.00
   -4   10    1      0.79      0.00
   -3   10    1      0.87      0.00
   -2   10    1     -1.79      0.00
   -1   10    1      0.37      0.00
    0   10    1     -0.13      0.00
    1   10    1     -1.91      0.00
    2   10    1     -0.93      0.00
    3   10    1     -2.09      0.00
    4   10    1     -0.28      0.00
    5   10    1      0.75      0.00
    6   10    1     -0.73      0.00
    7   10    1      1.21      0.00
    8   10    1      1.51      0.00
   -6   11    1      0.57      0.00
   -5   11    1      3.08      0.00
   -4   11    1     -2.68      0.00
   -3   11    1     -1.14      0.00
   -2   11    1     -0.27      0.00
   -1   11    1     -0.66      0.00
    0   11    1     -0.31      0.00
    1   11    1     -0.78      0.00
    2   11    1     -1.25      0.00
    3   11    1     -0.50      0.00
    4   11    1     -3.67      0.00
    5   11    1      2.31      0.00
    6   11    1     -0.20      0.00
   -4   12    1      0.83      0.00
   -3   12    1      1.33      0.00
   -2   12    1      0.16      0.00
   -1   12    1      0.56      0.00
    0   12    1      0.58      0.00
    1   12    1     -0.73      0.00
    2   12    1     -0.69      0.00
    3   12    1     -0.51      0.00
    4   12    1      0.15      0.00
  -11    0    2     -2.04      0.00
  -10    0    2     -6.53      0.00
   -9    0    2     -4.82      0.00
   -8    0    2     -2.96      0.00
   -7    0    2     -1.77      0.00
   -6    0    2     -2.04      0.00
   -5    0    2     -3.44      0.00
   -4    0    2     -9.77      0.00
   -3    0    2     -1.68      0.00
   -2    0    2     19.51      0.00
   -1    0    2    -39.49      0.00
    0    0    2     76.24      0.00
    1    0    2    -23.85      0.00
    2    0    2     -0.71      0.00
    3    0    2     -4.16      0.00
    4    0    2     -4.69      0.00
    5    0    2     -1.25      0.00
    6    0    2     -0.45      0.00
    7    0    2     -2.17      0.00
    8    0    2     -3.67      0.00
    9    0    2      0.15      0.00
   10    0    2     -1.78      0.00
   11    0    2      1.41      0.00
  -12    1    2     -0.45      0.00
  -11    1    2     -0.53      0.00
  -10    1    2      0.58      0.00
   -9    1    2      1.68      0.00
   -8    1    2     -1.93      0.00
   -7    1    2     -1.32      0.00
   -6    1    2     -0.30      0.00
   -5    1    2     -1.55      0.00
   -4    1    2      2.76      0.00
   -3    1    2     -3.72      0.00
   -2    1    2      5.20      0.00
   -1    1    2    -14.50      0.00
    1    1    2     -9.89      0.00
    2    1    2     -8.51      0.00
    3    1    2      2.46      0.00
    4    1    2     -1.32      0.00
    5    1    2      3.65      0.00
    6    1    2     -0.23      0.00
    7    1    2     -2.06      0.00
    8    1    2      4.74      0.00
    9    1    2      3.74      0.00
   10    1    2      0.55      0.00
   11    1    2      1.37      0.00
   12    1    2     -0.62      0.00
  -12    2    2     -3.04      0.00
  -11    2    2     -0.92      0.00
  -10    2    2     -1.73      0.00
   -9    2    2     -4.90      0.00
   -8    2    2     -0.66      0.00
   -7    2    2     -0.26      0.00
   -6    2    2     -1.32      0.00
   -5    2    2     -0.05      0.00
   -4    2    2     -3.34      0.00
   -3    2    2     -0.20      0.00
   -2    2    2      3.15      0.00
   -1    2    2     -5.55      0.00
    0    2    2     24.79      0.00
    1    2    2      2.78      0.00
    2    2    2     -2.23      0.00
    3    2    2     -0.95      0.00
    4    2    2     -2.56      0.00
    5    2    2     -2.44      0.00
    6    2    2     -0.41      0.00
    7    2    2     -2.77      0.00
    8    2    2     -0.10      0.00
    9    2    2     -4.53      0.00
   10    2    2     -2.03      0.00
   11    2    2      0.32      0.00
   12    2    2      1.29      0.00
  -13    3    2     -2.20      0.00
  -12    3    2     -0.26      0.00
  -11    3    2     -2.17      0.00
  -10    3    2      2.00      0.00
   -9    3    2      2.19      0.00
   -8    3    2     -2.95      0.00
   -7    3    2      0.39      0.00
   -6    3    2     -2.99      0.00
   -5    3    2     -4.56      0.00
   -4    3    2      0.44      0.00
   -3    3    2     -0.47      0.00
   -2    3    2      2.06      0.00
   -1    3    2     -5.64      0.00
    0    3    2     -6.75      0.00
    1    3    2     -7.53      0.00
    2    3    2     -3.04      0.00
    3    3    2      4.37      0.00
    4    3    2     -2.06      0.00
    5    3    2      3.60      0.00
    6    3    2     -1.03      0.00
    7    3    2     -4.51      0.00
    8    3    2      5.28      0.00
    9    3    2      6.36      0.00
   10    3    2      0.48      0.00
   11    3    2      2.56      0.00
   12    3    2     -0.90      0.00
   13    3    2      0.32      0.00
  -12    4    2     -0.84      0.00
  -11    4    2     -0.05      0.00
  -10    4    2     -0.03      0.00
   -9    4    2      3.39      0.00
   -8    4    2     -6.95      0.00
   -7    4    2      1.42      0.00
   -6    4    2      0.03      0.00
   -5    4    2     -1.63      0.00
   -4    4    2      0.99      0.00
   -3    4    2      1.59      0.00
   -2    4    2     -4.51      0.00
   -1    4    2      3.08      0.00
    2    4    2     -0.44      0.00
    3    4    2     -0.51      0.00
    5    4    2     -6.10      0.00
    6    4    2      1.09      0.00
    7    4    2      2.50      0.00
    8    4    2     -0.74      0.00
    9    4    2     -1.96      0.00
   10    4    2     -2.35      0.00
   11    4    2     -0.05      0.00
   12    4    2      0.96      0.00
  -12    5    2      0.24      0.00
  -11    5    2     -1.99      0.00
  -10    5    2     -0.76      0.00
   -9    5    2     -0.35      0.00
   -8    5    2     -0.80      0.00
   -7    5    2     -1.45      0.00
   -6    5    2      0.30      0.00
   -5    5    2     -2.40      0.00
   -4    5    2      0.68      0.00
   -3    5    2      0.14      0.00
   -2    5    2     -1.12      0.00
   -1    5    2      5.64      0.00
    0    5    2      1.30      0.00
    1    5    2      2.18      0.00
    2    5    2      0.60      0.00
    3    5    2      2.68      0.00
    4    5    2     -3.46      0.00
    5    5    2      4.27      0.00
    6    5    2     -2.53      0.00
    7    5    2      0.19      0.00
    8    5    2     -0.76      0.00
    9    5    2      2.77      0.00
   10    5    2     -1.16      0.00
   11    5    2      2.14      0.00
   12    5    2      0.52      0.00
  -12    6    2      0.74      0.00
  -11    6    2     -0.51      0.00
  -10    6    2     -0.82      0.00
   -9    6    2      3.19      0.00
   -8    6    2     -0.91      0.00
   -7    6    2     -0.89      0.00
   -6    6    2     -0.18      0.00
   -5    6    2     -1.36      0.00
   -4    6    2     -0.79      0.00
   -3    6    2     -0.71      0.00
   -2    6    2     -0.13      0.00
   -1    6    2     -2.72      0.00
    0    6    2      1.83      0.00
    1    6    2     -1.91      0.00
    2    6    2     -1.17      0.00
    3    6    2     -2.44      0.00
    4    6    2     -2.62      0.00
    5    6    2     -1.89      0.00
    6    6    2      3.40      0.00
    7    6    2      2.12      0.00
    8    6    2      2.02      0.00
    9    6    2      1.15      0.00
   10    6    2     -0.83      0.00
   11    6    2      0.25      0.00
  -11    7    2     -2.52      0.00
  -10    7    2      0.38      0.00
   -9    7    2     -0.93      0.00
   -8    7    2     -2.10      0.00
   -7    7    2     -0.38      0.00
   -6    7    2     -1.14      0.00
   -5    7    2      2.97      0.00
   -4    7    2      1.34      0.00
   -3    7    2     -0.26      0.00
   -2    7    2     -1.28      0.00
    0    7    2     -0.82      0.00
    1    7    2     -3.39      0.00
    2    7    2     -0.45      0.00
    3    7    2     -1.36      0.00
    4    7    2      1.19      0.00
    5    7    2      2.36      0.00
    6    7    2      1.33      0.00
    7    7    2     -0.65      0.00
    8    7    2      0.23      0.00
    9    7    2     -1.57      0.00
   10    7    2     -1.65      0.00
   11    7    2      2.31      0.00
  -10    8    2     -1.34      0.00
   -9    8    2      0.27      0.00
   -8    8    2      4.47      0.00
   -7    8    2      1.75      0.00
   -6    8    2      1.14      0.00
   -5    8    2      1.98      0.00
   -4    8    2      2.11      0.00
   -3    8    2     -3.02      0.00
   -2    8    2      0.59      0.00
   -1    8    2      3.56      0.00
    0    8    2     -0.88      0.00
    1    8    2      0.07      0.00
    2    8    2      0.41      0.00
    3    8    2     -2.45      0.00
    4    8    2     -0.75      0.00
    5    8    2      2.53      0.00
    6    8    2      2.19      0.00
    7    8    2     -1.23      0.00
    8    8    2      2.74      0.00
    9    8    2      0.31      0.00
   10    8    2     -1.37      0.00
   -9    9    2     -0.05      0.00
   -8    9    2      1.06      0.00
   -7    9    2     -1.57      0.00
   -6    9    2     -1.86      0.00
   -5    9    2     -1.14      0.00
   -4    9    2     -1.00      0.00
   -3    9    2     -0.89      0.00
   -2    9    2      1.86      0.00
   -1    9    2     -1.42      0.00
    0    9    2      0.70      0.00
    1    9    2      0.91      0.00
    2    9    2      1.17      0.00
    3    9    2      2.85      0.00
    4    9    2      1.16      0.00
    5    9    2     -0.74      0.00
    6    9    2      0.22      0.00
    7    9    2     -0.08      0.00
    8    9    2     -0.93      0.00
    9    9    2     -0.67      0.00
   -8   10    2      0.10      0.00
   -7   10    2      0.44      0.00
   -6   10    2      0.43      0.00
   -5   10    2     -0.56      0.00
   -4   10    2      1.41      0.00
   -3   10    2      0.35      0.00
   -2   10    2     -1.12      0.00
   -1   10    2      0.56      0.00
    0   10    2     -0.34      0.00
    1   10    2     -0.17      0.00
    2   10    2      0.00      0.00
    3   10    2     -0.78      0.00
    4   10    2      1.66      0.00
    5   10    2     -0.22      0.00
    6   10    2      0.76      0.00
    7   10    2      0.05      0.00
    8   10    2      1.10      0.00
   -6   11    2     -0.82      0.00
   -5   11    2     -0.64      0.00
   -4   11    2     -1.02      0.00
   -3   11    2     -1.44      0.00
   -2   11    2      1.39      0.00
   -1   11    2     -0.13      0.00
    0   11    2     -0.87      0.00
    1   11    2      1.47      0.00
    2   11    2      1.16      0.00
    3   11    2      1.55      0.00
    4   11    2      0.05      0.00
    5   11    2     -1.09      0.00
    6   11    2      1.37      0.00
   -4   12    2      2.30      0.00
   -3   12    2      0.36      0.00
   -2   12    2      0.42      0.00
   -1   12    2      0.32      0.00
    0   12    2     -1.20      0.00
    1   12    2      0.14      0.00
    2   12    2      0.37      0.00
    3   12    2     -0.72      0.00
    4   12    2      2.94      0.00
  -12    1    3      3.09      0.00
  -11    1    3      2.33      0.00
  -10    1    3      3.16      0.00
   -9    1    3      4.10      0.00
   -8    1    3      0.68      0.00
   -7    1    3      1.69      0.00
   -6    1    3      4.64      0.00
   -5    1    3      4.67      0.00
   -4    1    3      7.67      0.00
   -3    1    3      1.46      0.00
   -2    1    3    -15.27      0.00
   -1    1    3     33.73      0.00
    0    1    3    -38.25      0.00
    1    1    3     17.16      0.00
    2    1    3      4.13      0.00
    3    1    3     -0.02      0.00
    4    1    3     -1.63      0.00
    5    1    3      0.23      0.00
    6    1    3      0.14      0.00
    7    1    3      0.55      0.00
    8    1    3     -1.00      0.00
    9    1    3     -1.64      0.00
   10    1    3     -0.35      0.00
   11    1    3     -1.75      0.00
   12    1    3     -0.48      0.00
  -13    2    3      3.17      0.00
  -12    2    3      0.57      0.00
  -11    2    3      0.72      0.00
  -10    2    3     -1.87      0.00
   -9    2    3     -4.56      0.00
   -8    2    3      1.82      0.00
   -7    2    3      1.44      0.00
   -6    2    3      0.91      0.00
   -5    2    3      0.75      0.00
   -4    2    3     -5.25      0.00
   -3    2    3      1.68      0.00
   -2    2    3     -7.33      0.00
   -1    2    3     14.01      0.00
    0    2    3      5.21      0.00
    1    2    3      6.56      0.00
    2    2    3      1.80      0.00
    3    2    3     -5.26      0.00
    4    2    3      4.08      0.00
    5    2    3     -3.71      0.00
    6    2    3     -0.37      0.00
    7    2    3      3.24      0.00
    8    2    3     -6.49      0.00
    9    2    3     -4.46      0.00
   10    2    3      0.37      0.00
   11    2    3     -1.79      0.00
   12    2    3      0.16      0.00
   13    2    3     -0.45      0.00
  -13    3    3      1.27      0.00
  -12    3    3      2.92      0.00
  -11    3    3      0.09      0.00
  -10    3    3      0.05      0.00
   -9    3    3     -0.54      0.00
   -8    3    3      2.94      0.00
   -7    3    3     -0.99      0.00
   -6    3    3      1.32      0.00
   -5    3    3      0.67      0.00
   -4    3    3      0.82      0.00
   -3    3    3     -1.39      0.00
   -2    3    3      2.07      0.00
   -1    3    3     -5.73      0.00
    0    3    3     -2.04      0.00
    1    3    3     -9.26      0.00
    2    3    3      0.79      0.00
    3    3    3     -0.54      0.00
    4    3    3      0.92      0.00
    5    3    3      4.21      0.00
    6    3    3     -1.20      0.00
    7    3    3      1.42      0.00
    8    3    3     -1.82      0.00
    9    3    3      3.39      0.00
   10    3    3      2.28      0.00
   11    3    3     -0.15      0.00
   12    3    3     -1.65      0.00
  -12    4    3     -0.15      0.00
  -11    4    3      0.75      0.00
  -10    4    3     -1.00      0.00
   -9    4    3     -2.42      0.00
   -8    4    3     -0.16      0.00
   -7    4    3      1.39      0.00
   -6    4    3      2.10      0.00
   -5    4    3      3.34      0.00
   -4    4    3      0.18      0.00
   -3    4    3     -0.85      0.00
   -2    4    3      0.12      0.00
   -1    4    3     -1.58      0.00
    0    4    3      1.37      0.00
    1    4    3     -2.25      0.00
    2    4    3      0.42      0.00
    3    4    3     -5.33      0.00
    4    4    3      4.92      0.00
    5    4    3     -3.57      0.00
    6    4    3      0.49      0.00
    7    4    3     -0.78      0.00
    8    4    3     -1.87      0.00
    9    4    3     -6.05      0.00
   10    4    3     -0.20      0.00
   11    4    3     -2.08      0.00
   12    4    3     -0.55      0.00
  -12    5    3     -1.30      0.00
  -11    5    3      0.09      0.00
  -10    5    3     -0.01      0.00
   -9    5    3     -4.97      0.00
   -8    5    3      6.09      0.00
   -7    5    3      0.07      0.00
   -6    5    3     -0.40      0.00
   -5    5    3      0.18      0.00
   -4    5    3     -1.19      0.00
   -3    5    3     -0.84      0.00
   -2    5    3      2.56      0.00
    0    5    3      2.30      0.00
    1    5    3      1.16      0.00
    2    5    3      4.02      0.00
    3    5    3      4.25      0.00
    4    5    3      2.49      0.00
    5    5    3      3.85      0.00
    6    5    3     -3.14      0.00
    7    5    3     -3.40      0.00
    8    5    3     -0.46      0.00
    9    5    3      0.85      0.00
   10    5    3      1.01      0.00
   11    5    3      0.21      0.00
   12    5    3     -0.35      0.00
  -12    6    3     -0.43      0.00
  -11    6    3      1.89      0.00
  -10    6    3      0.78      0.00
   -9    6    3     -0.86      0.00
   -8    6    3      0.14      0.00
   -7    6    3     -0.84      0.00
   -6    6    3     -0.50      0.00
   -5    6    3     -2.39      0.00
   -4    6    3     -2.11      0.00
   -3    6    3     -1.91      0.00
   -2    6    3      0.60      0.00
   -1    6    3     -5.17      0.00
    0    6    3     -1.01      0.00
    1    6    3     -0.42      0.00
    2    6    3     -1.15      0.00
    3    6    3     -0.15      0.00
    4    6    3     -0.22      0.00
    5    6    3     -5.43      0.00
    6    6    3     -0.34      0.00
    7    6    3     -0.96      0.00
    8    6    3     -0.44      0.00
    9    6    3     -0.65      0.00
   10    6    3      1.02      0.00
   11    6    3     -2.27      0.00
  -11    7    3     -0.86      0.00
  -10    7    3      0.07      0.00
   -9    7    3     -2.84      0.00
   -8    7    3     -3.09      0.00
   -7    7    3      0.20      0.00
   -6    7    3      0.08      0.00
   -5    7    3      0.17      0.00
   -4    7    3     -0.40      0.00
   -3    7    3      2.52      0.00
   -2    7    3      0.78      0.00
    0    7    3      0.04      0.00
    1    7    3      3.54      0.00
    2    7    3      0.83      0.00
    3    7    3      2.41      0.00
    4    7    3      2.21      0.00
    5    7    3     -0.37      0.00
    6    7    3     -3.29      0.00
    7    7    3      0.23      0.00
    8    7    3     -2.88      0.00
    9    7    3     -2.16      0.00
   10    7    3      0.62      0.00
   11    7    3     -1.02      0.00
  -10    8    3     -0.67      0.00
   -9    8    3      1.34      0.00
   -8    8    3      0.39      0.00
   -7    8    3      1.44      0.00
   -6    8    3      0.09      0.00
   -5    8    3     -2.58      0.00
   -4    8    3     -1.54      0.00
   -3    8    3      0.20      0.00
   -2    8    3     -2.84      0.00
   -1    8    3      2.30      0.00
    0    8    3     -2.09      0.00
    1    8    3      0.57      0.00
    2    8    3     -0.21      0.00
    3    8    3     -1.81      0.00
    4    8    3     -2.28      0.00
    5    8    3     -0.67      0.00
    6    8    3     -0.71      0.00
    7    8    3      0.21      0.00
    8    8    3      0.36      0.00
    9    8    3      0.84      0.00
   10    8    3      0.41      0.00
   -9    9    3      0.58      0.00
   -8    9    3     -2.70      0.00
   -7    9    3     -2.68      0.00
   -6    9    3     -0.49      0.00
   -5    9    3     -0.42      0.00
   -4    9    3     -1.50      0.00
   -3    9    3      2.50      0.00
   -2    9    3      1.09      0.00
   -1    9    3     -2.08      0.00
    0    9    3      1.84      0.00
    1    9    3      0.46      0.00
    2    9    3      0.10      0.00
    3    9    3      1.46      0.00
    4    9    3      0.88      0.00
    5    9    3     -0.72      0.00
    6    9    3     -0.47      0.00
    7    9    3      0.22      0.00
    8    9    3     -2.63      0.00
    9    9    3     -0.56      0.00
   -8   10    3      0.21      0.00
   -7   10    3      0.64      0.00
   -6   10    3      1.56      0.00
   -5   10    3      0.89      0.00
   -4   10    3      1.46      0.00
   -3   10    3      1.88      0.00
   -2   10    3     -0.52      0.00
   -1   10    3      0.45      0.00
    0   10    3      0.48      0.00
    1   10    3     -1.34      0.00
    2   10    3     -1.56      0.00
    3   10    3     -2.63      0.00
    4   10    3     -0.89      0.00
    5   10    3      1.61      0.00
    6   10    3     -1.43      0.00
    7   10    3     -0.60      0.00
    8   10    3     -0.89      0.00
   -6   11    3     -0.91      0.00
   -5   11    3      1.77      0.00
   -4   11    3     -1.02      0.00
   -3   11    3     -0.79      0.00
   -2   11    3      1.51      0.00
   -1   11    3      1.14      0.00
    0   11    3      0.49      0.00
    1   11    3      1.76      0.00
    2   11    3      0.65      0.00
    3   11    3      2.22      0.00
    4   11    3     -2.17      0.00
    5   11    3      1.53      0.00
    6   11    3     -1.49      0.00
   -4   12    3      0.21      0.00
   -3   12    3      1.24      0.00
   -2   12    3     -0.72      0.00
   -1   12    3     -0.99      0.00
    0   12    3      0.59      0.00
    1   12    3     -0.05      0.00
    2   12    3     -1.03      0.00
    3   12    3     -0.62      0.00
    4   12    3      0.02      0.00
  -12    0    4     -2.74      0.00
  -11    0    4     -1.59      0.00
  -10    0    4     -1.87      0.00
   -9    0    4     -1.30      0.00
   -8    0    4     -0.27      0.00
   -7    0    4     -0.80      0.00
   -6    0    4     -4.31      0.00
   -5    0    4     -4.35      0.00
   -4    0    4     -6.05      0.00
   -3    0    4      0.62      0.00
   -2    0    4     25.39      0.00
   -1    0    4    -42.61      0.00
    0    0    4     34.37      0.00
    1    0    4    -21.75      0.00
    2    0    4     -1.44      0.00
    3    0    4      4.89      0.00
    4    0    4      7.62      0.00
    5    0    4      1.67      0.00
    6    0    4     -0.28      0.00
    7    0    4      2.48      0.00
    8    0    4      2.72      0.00
    9    0    4      4.70      0.00
   10    0    4      0.73      0.00
   11    0    4      2.31      0.00
   12    0    4     -0.29      0.00
  -12    1    4     -0.45      0.00
  -11    1    4      0.49      0.00
  -10    1    4      0.56      0.00
   -9    1    4      3.31      0.00
   -8    1    4      0.74      0.00
   -7    1    4     -1.59      0.00
   -6    1    4      1.73      0.00
   -5    1    4      1.60      0.00
   -4    1    4      6.06      0.00
   -3    1    4     -2.97      0.00
   -2    1    4      9.86      0.00
   -1    1    4     -9.96      0.00
    0    1    4      2.97      0.00
    1    1    4      0.84      0.00
    2    1    4      0.83      0.00
    3    1    4      3.81      0.00
    4    1    4     -5.98      0.00
    5    1    4      0.99      0.00
    6    1    4     -0.49      0.00
    7    1    4     -2.12      0.00
    8    1    4      2.68      0.00
    9    1    4      0.81      0.00
   10    1    4     -1.97      0.00
   11    1    4      0.66      0.00
   12    1    4      0.20      0.00
  -13    2    4     -0.76      0.00
  -12    2    4     -2.92      0.00
  -11    2    4     -0.76      0.00
  -10    2    4      0.86      0.00
   -9    2    4     -1.35      0.00
   -8    2    4      1.36      0.00
   -7    2    4      0.81      0.00
   -6    2    4     -3.65      0.00
   -5    2    4     -2.92      0.00
   -4    2    4     -3.61      0.00
   -3    2    4     -0.14      0.00
   -2    2    4      7.62      0.00
   -1    2    4     -7.42      0.00
    0    2    4      9.28      0.00
    1    2    4      1.04      0.00
    2    2    4     -1.93      0.00
    3    2    4      3.35      0.00
    4    2    4      4.82      0.00
    5    2    4     -0.76      0.00
    6    2    4      1.77      0.00
    7    2    4     -0.67      0.00
    8    2    4      4.32      0.00
    9    2    4      0.32      0.00
   10    2    4     -0.33      0.00
   11    2    4      0.10      0.00
   12    2    4      1.40      0.00
   13    2    4     -1.97      0.00
  -13    3    4     -0.62      0.00
  -12    3    4      0.57      0.00
  -11    3    4      0.11      0.00
  -10    3    4      1.64      0.00
   -9    3    4      4.21      0.00
   -8    3    4     -0.55      0.00
   -7    3    4     -1.08      0.00
   -6    3    4     -0.92      0.00
   -5    3    4      0.27      0.00
   -4    3    4      3.88      0.00
   -3    3    4      0.31      0.00
   -2    3    4      3.07      0.00
   -1    3    4     -6.07      0.00
    0    3    4     -0.86      0.00
    1    3    4      0.94      0.00
    2    3    4      0.51      0.00
    3    3    4      3.25      0.00
    4    3    4     -9.85      0.00
    5    3    4      0.31      0.00
    6    3    4      0.41      0.00
    7    3    4     -1.28      0.00
    8    3    4      3.57      0.00
    9    3    4      3.06      0.00
   10    3    4     -1.19      0.00
   11    3    4      0.84      0.00
   12    3    4      0.33      0.00
  -12    4    4      0.20      0.00
  -11    4    4      0.50      0.00
  -10    4    4     -0.20      0.00
   -9    4    4      5.62      0.00
   -8    4    4     -4.94      0.00
   -7    4    4      1.78      0.00
   -6    4    4      0.87      0.00
   -5    4    4      0.44      0.00
   -4    4    4      1.14      0.00
   -3    4    4      2.12      0.00
   -2    4    4     -2.23      0.00
   -1    4    4      3.87      0.00
    1    4    4      3.12      0.00
    2    4    4     -3.42      0.00
    3    4    4     -2.96      0.00
    4    4    4      0.22      0.00
    5    4    4     -2.18      0.00
    7    4    4      0.75      0.00
    8    4    4      1.44      0.00
    9    4    4     -2.07      0.00
   10    4    4     -1.82      0.00
   11    4    4      0.09      0.00
   12    4    4      0.09      0.00
  -12    5    4      0.19      0.00
  -11    5    4      0.23      0.00
  -10    5    4     -0.58      0.00
   -9    5    4      2.39      0.00
   -8    5    4      2.05      0.00
   -7    5    4     -0.87      0.00
   -6    5    4     -0.87      0.00
   -5    5    4     -0.71      0.00
   -4    5    4     -0.66      0.00
   -3    5    4      1.58      0.00
   -2    5    4     -2.13      0.00
   -1    5    4      4.44      0.00
    0    5    4     -1.66      0.00
    1    5    4      3.24      0.00
    2    5    4     -1.01      0.00
    3    5    4      2.57      0.00
    4    5    4     -4.00      0.00
    5    5    4      4.31      0.00
    6    5    4     -0.85      0.00
    7    5    4      3.33      0.00
    8    5    4     -0.12      0.00
    9    5    4      3.89      0.00
   10    5    4     -0.32      0.00
   11    5    4      1.35      0.00
   12    5    4      0.65      0.00
  -12    6    4      1.06      0.00
  -11    6    4      1.00      0.00
  -10    6    4      0.20      0.00
   -9    6    4      3.71      0.00
   -8    6    4     -1.20      0.00
   -7    6    4     -1.12      0.00
   -6    6    4      0.75      0.00
   -5    6    4      1.97      0.00
   -4    6    4      1.55      0.00
   -3    6    4      1.01      0.00
   -2    6    4     -0.60      0.00
   -1    6    4     -4.09      0.00
    0    6    4     -0.80      0.00
    1    6    4     -4.17      0.00
    2    6    4     -4.30      0.00
    3    6    4     -3.81      0.00
    4    6    4     -1.80      0.00
    5    6    4     -0.62      0.00
    6    6    4      3.41      0.00
    7    6    4      1.22      0.00
    8    6    4      0.69      0.00
    9    6    4     -0.03      0.00
   10    6    4     -0.11      0.00
   11    6    4     -0.19      0.00
  -11    7    4     -1.84      0.00
  -10    7    4     -0.06      0.00
   -9    7    4      0.32      0.00
   -8    7    4      0.52      0.00
   -7    7    4      1.60      0.00
   -6    7    4      0.48      0.00
   -5    7    4      4.00      0.00
   -4    7    4      2.47      0.00
   -3    7    4      0.74      0.00
   -2    7    4      2.92      0.00
   -1    7    4      1.28      0.00
    0    7    4      2.85      0.00
    1    7    4      0.22      0.00
    2    7    4      1.24      0.00
    3    7    4      0.41      0.00
    4    7    4      2.28      0.00
    5    7    4      2.45      0.00
    6    7    4      0.21      0.00
    7    7    4     -0.72      0.00
    8    7    4      0.57      0.00
    9    7    4     -0.12      0.00
   10    7    4     -0.80      0.00
  -10    8    4      0.71      0.00
   -9    8    4      0.81      0.00
   -8    8    4      2.14      0.00
   -7    8    4      1.31      0.00
   -6    8    4     -0.74      0.00
   -5    8    4     -1.74      0.00
   -4    8    4      0.94      0.00
   -3    8    4     -5.14      0.00
   -2    8    4     -2.79      0.00
   -1    8    4      0.21      0.00
    0    8    4     -2.14      0.00
    1    8    4     -2.44      0.00
    2    8    4      0.33      0.00
    3    8    4     -1.33      0.00
    4    8    4     -1.96      0.00
    5    8    4     -0.43      0.00
    6    8    4      1.09      0.00
    7    8    4     -0.35      0.00
    8    8    4      2.67      0.00
    9    8    4      2.46      0.00
   10    8    4      0.26      0.00
   -9    9    4     -2.35      0.00
   -8    9    4     -1.19      0.00
   -7    9    4     -2.17      0.00
   -6    9    4      0.62      0.00
   -5    9    4      0.89      0.00
   -4    9    4      0.52      0.00
   -3    9    4     -1.47      0.00
   -2    9    4      0.87      0.00
   -1    9    4     -2.52      0.00
    0    9    4      1.01      0.00
    1    9    4      0.01      0.00
    2    9    4     -0.48      0.00
    3    9    4      1.63      0.00
    4    9    4      1.08      0.00
    5    9    4     -1.12      0.00
    6    9    4      0.60      0.00
    7    9    4      0.33      0.00
    8    9    4      0.30      0.00
    9    9    4     -0.87      0.00
   -8   10    4      0.42      0.00
   -7   10    4      1.48      0.00
   -6   10    4      1.23      0.00
   -5   10    4     -0.66      0.00
   -4   10    4     -0.04      0.00
   -3   10    4     -0.47      0.00
   -2   10    4     -2.05      0.00
   -1   10    4     -1.29      0.00
    0   10    4     -0.87      0.00
    1   10    4     -2.71      0.00
    2   10    4     -1.14      0.00
    3   10    4     -2.08      0.00
    4   10    4     -0.33      0.00
    5   10    4     -0.59      0.00
    6   10    4      1.22      0.00
    7   10    4      0.33      0.00
   -6   11    4     -0.64      0.00
   -5   11    4      0.68      0.00
   -4   11    4     -1.36      0.00
   -3   11    4     -2.10      0.00
   -2   11    4     -0.25      0.00
   -1   11    4      0.55      0.00
    0   11    4     -0.27      0.00
    1   11    4      0.73      0.00
    2   11    4      1.18      0.00
    3   11    4      1.57      0.00
    4   11    4      1.18      0.00
    5   11    4     -1.12      0.00
    6   11    4      1.80      0.00
   -4   12    4      0.36      0.00
   -3   12    4      0.20      0.00
   -2   12    4     -0.31      0.00
   -1   12    4     -0.29      0.00
    0   12    4     -0.35      0.00
    1   12    4     -0.59      0.00
    2   12    4     -0.72      0.00
    3   12    4     -1.99      0.00
  -13    1    5      0.84      0.00
  -12    1    5      1.72      0.00
  -11    1    5      0.52      0.00
  -10    1    5     -1.42      0.00
   -9    1    5      0.64      0.00
   -8    1    5     -1.14      0.00
   -7    1    5     -1.75      0.00
   -6    1    5      1.81      0.00
   -5    1    5      1.05      0.00
   -4    1    5      2.23      0.00
   -3    1    5     -0.37      0.00
   -2    1    5    -22.01      0.00
   -1    1    5     22.47      0.00
    0    1    5    -17.99      0.00
    1    1    5      7.33      0.00
    2    1    5     -0.77      0.00
    3    1    5     -5.28      0.00
    4    1    5     -7.83      0.00
    5    1    5      0.32      0.00
    6    1    5      1.26      0.00
    7    1    5     -1.75      0.00
    8    1    5     -3.51      0.00
    9    1    5     -2.19      0.00
   10    1    5      1.77      0.00
   11    1    5      0.23      0.00
   12    1    5      0.29      0.00
  -13    2    5      1.61      0.00
  -12    2    5     -0.72      0.00
  -11    2    5     -0.54      0.00
  -10    2    5     -0.08      0.00
   -9    2    5     -3.55      0.00
   -8    2    5     -0.74      0.00
   -7    2    5      1.31      0.00
   -6    2    5     -2.23      0.00
   -5    2    5     -2.35      0.00
   -4    2    5     -6.57      0.00
   -2    2    5     -8.30      0.00
   -1    2    5     11.24      0.00
    0    2    5     -4.84      0.00
    1    2    5     -2.23      0.00
    2    2    5     -0.88      0.00
    3    2    5     -0.38      0.00
    4    2    5     14.46      0.00
    5    2    5      1.62      0.00
    6    2    5      0.30      0.00
    7    2    5      2.53      0.00
    8    2    5     -2.56      0.00
    9    2    5      0.87      0.00
   10    2    5      3.09      0.00
   11    2    5     -0.37      0.00
   12    2    5     -0.39      0.00
  -13    3    5     -1.70      0.00
  -12    3    5      0.31      0.00
  -11    3    5     -0.53      0.00
  -10    3    5     -0.68      0.00
   -9    3    5     -3.31      0.00
   -8    3    5      0.46      0.00
   -7    3    5     -2.30      0.00
   -6    3    5      1.35      0.00
   -5    3    5      2.09      0.00
   -4    3    5      1.90      0.00
   -3    3    5      0.06      0.00
   -2    3    5      0.13      0.00
    0    3    5      1.56      0.00
    1    3    5     -3.14      0.00
    2    3    5      3.61      0.00
    3    3    5     -0.31      0.00
    4    3    5     -4.66      0.00
    5    3    5     -0.24      0.00
    6    3    5     -5.67      0.00
    7    3    5      1.12      0.00
    8    3    5     -4.13      0.00
    9    3    5      0.15      0.00
   10    3    5      1.37      0.00
   11    3    5      0.55      0.00
   12    3    5     -0.30      0.00
  -12    4    5     -0.02      0.00
  -11    4    5     -1.02      0.00
  -10    4    5      0.61      0.00
   -9    4    5     -1.47      0.00
   -8    4    5     -0.60      0.00
   -7    4    5      2.25      0.00
   -6    4    5      1.00      0.00
   -5    4    5     -0.74      0.00
   -4    4    5     -0.59      0.00
   -3    4    5     -1.11      0.00
   -2    4    5      1.88      0.00
    0    4    5      3.30      0.00
    1    4    5     -3.27      0.00
    2    4    5      3.61      0.00
    3    4    5     -1.27      0.00
    4    4    5     11.05      0.00
    5    4    5      0.92      0.00
    6    4    5      0.93      0.00
    7    4    5     -1.88      0.00
    8    4    5      0.78      0.00
    9    4    5     -2.14      0.00
   10    4    5      1.32      0.00
   11    4    5     -0.02      0.00
   12    4    5     -0.79      0.00
  -12    5    5     -0.96      0.00
  -11    5    5     -0.74      0.00
  -10    5    5      0.27      0.00
   -9    5    5     -5.85      0.00
   -8    5    5      2.08      0.00
   -7    5    5     -0.98      0.00
   -6    5    5     -1.99      0.00
   -5    5    5     -2.95      0.00
   -4    5    5     -2.23      0.00
   -3    5    5     -3.40      0.00
   -2    5    5     -1.06      0.00
    0    5    5      0.35      0.00
    1    5    5      0.51      0.00
    2    5    5      4.96      0.00
    3    5    5      3.73      0.00
    4    5    5     -2.02      0.00
    5    5    5     -1.25      0.00
    6    5    5     -5.01      0.00
    7    5    5     -1.03      0.00
    8    5    5      0.12      0.00
    9    5    5      1.94      0.00
   10    5    5      0.24      0.00
   11    5    5      0.21      0.00
   12    5    5      1.54      0.00
  -12    6    5      0.89      0.00
  -11    6    5      0.98      0.00
  -10    6    5      1.16      0.00
   -9    6    5     -1.32      0.00
   -8    6    5     -1.25      0.00
   -7    6    5     -0.70      0.00
   -6    6    5      1.94      0.00
   -5    6    5     -0.52      0.00
   -4    6    5      1.64      0.00
   -3    6    5      0.39      0.00
   -2    6    5      1.89      0.00
   -1    6    5     -3.18      0.00
    0    6    5      0.97      0.00
    1    6    5     -1.63      0.00
    2    6    5     -1.29      0.00
    3    6    5     -0.20      0.00
    4    6    5      0.80      0.00
    5    6    5     -2.23      0.00
    6    6    5      2.27      0.00
    7    6    5     -1.02      0.00
    8    6    5     -0.37      0.00
    9    6    5     -2.07      0.00
   10    6    5      0.63      0.00
   11    6    5     -0.88      0.00
  -11    7    5     -0.88      0.00
  -10    7    5      0.18      0.00
   -9    7    5     -0.96      0.00
   -8    7    5      0.09      0.00
   -7    7    5      0.33      0.00
   -6    7    5     -1.08      0.00
   -5    7    5     -0.94      0.00
   -4    7    5     -2.21      0.00
   -3    7    5      0.98      0.00
   -2    7    5      1.96      0.00
   -1    7    5      2.19      0.00
    0    7    5      0.30      0.00
    1    7    5      3.96      0.00
    2    7    5      1.12      0.00
    3    7    5      1.99      0.00
    4    7    5      1.70      0.00
    5    7    5      0.87      0.00
    6    7    5     -1.87      0.00
    7    7    5      0.11      0.00
    8    7    5     -0.40      0.00
    9    7    5     -1.28      0.00
   10    7    5     -0.15      0.00
  -10    8    5      0.85      0.00
   -9    8    5      1.53      0.00
   -8    8    5      0.31      0.00
   -7    8    5      0.84      0.00
   -6    8    5     -1.51      0.00
   -5    8    5     -1.67      0.00
   -4    8    5     -1.33      0.00
   -3    8    5      2.40      0.00
   -2    8    5     -2.24      0.00
   -1    8    5      4.18      0.00
    0    8    5     -2.03      0.00
    1    8    5      0.70      0.00
    2    8    5      1.99      0.00
    3    8    5      0.10      0.00
    4    8    5     -0.88      0.00
    5    8    5      0.38      0.00
    6    8    5      0.11      0.00
    7    8    5      0.40      0.00
    8    8    5     -0.24      0.00
    9    8    5      0.09      0.00
   10    8    5      0.32      0.00
   -9    9    5      0.71      0.00
   -8    9    5     -0.10      0.00
   -7    9    5     -1.48      0.00
   -6    9    5     -0.01      0.00
   -5    9    5      1.83      0.00
   -4    9    5     -0.39      0.00
   -3    9    5      4.59      0.00
   -2    9    5      3.09      0.00
   -1    9    5      1.08      0.00
    0    9    5      2.02      0.00
    1    9    5      1.93      0.00
    2    9    5      0.08      0.00
    3    9    5      0.31      0.00
    4    9    5      1.18      0.00
    5    9    5     -0.03      0.00
    6    9    5     -0.93      0.00
    7    9    5     -0.68      0.00
    8    9    5     -2.48      0.00
    9    9    5     -1.34      0.00
   -8   10    5      1.27      0.00
   -7   10    5      1.15      0.00
   -6   10    5      0.45      0.00
   -5   10    5     -1.04      0.00
   -4   10    5      0.72      0.00
   -3   10    5      1.63      0.00
   -2   10    5      1.38      0.00
   -1   10    5      0.29      0.00
    0   10    5     -0.45      0.00
    1   10    5     -0.49      0.00
    2   10    5      0.33      0.00
    3   10    5     -0.27      0.00
    4   10    5     -1.11      0.00
    5   10    5      1.54      0.00
    6   10    5     -1.46      0.00
    7   10    5      0.11      0.00
   -6   11    5     -0.93      0.00
   -5   11    5      0.85      0.00
   -4   11    5      0.25      0.00
   -3   11    5     -1.98      0.00
   -2   11    5      0.01      0.00
   -1   11    5      0.40      0.00
    0   11    5     -1.43      0.00
    1   11    5      1.78      0.00
    2   11    5      0.00      0.00
    3   11    5      2.14      0.00
    4   11    5     -0.94      0.00
    5   11    5      1.02      0.00
    6   11    5     -1.63      0.00
   -3   12    5      1.54      0.00
   -2   12    5      0.44      0.00
   -1   12    5     -1.24      0.00
    0   12    5     -0.85      0.00
    1   12    5     -0.13      0.00
    2   12    5     -1.07      0.00
    3   12    5     -1.12      0.00
  -13    0    6     -1.20      0.00
  -12    0    6     -0.84      0.00
  -11    0    6     -0.15      0.00
  -10    0    6      1.13      0.00
   -9    0    6     -0.84      0.00
   -8    0    6     -1.98      0.00
   -7    0    6      2.20      0.00
   -6    0    6      0.96      0.00
   -5    0    6      2.48      0.00
   -4    0    6     -0.96      0.00
   -2    0    6     24.66      0.00
   -1    0    6    -22.77      0.00
    0    0    6     17.99      0.00
    1    0    6     -6.58      0.00
    2    0    6      2.20      0.00
    3    0    6      1.71      0.00
    4    0    6      3.48      0.00
    5    0    6     -3.38      0.00
    6    0    6     -5.38      0.00
    7    0    6      2.24      0.00
    8    0    6      2.32      0.00
    9    0    6      0.72      0.00
   10    0    6     -4.96      0.00
   11    0    6     -0.93      0.00
   12    0    6     -1.45      0.00
  -13    1    6     -0.77      0.00
  -12    1    6      0.70      0.00
  -11    1    6      0.54      0.00
  -10    1    6     -1.42      0.00
   -9    1    6      1.15      0.00
   -8    1    6      1.73      0.00
   -7    1    6     -1.51      0.00
   -6    1    6      2.03      0.00
   -5    1    6      0.40      0.00
   -3    1    6     -7.86      0.00
   -2    1    6      6.59      0.00
   -1    1    6    -11.05      0.00
    0    1    6      3.89      0.00
    1    1    6      0.34      0.00
    2    1    6     -1.56      0.00
    3    1    6     -0.50      0.00
    4    1    6    -10.21      0.00
    5    1    6     -0.02      0.00
    6    1    6      0.78      0.00
    7    1    6     -0.58      0.00
    8    1    6      1.71      0.00
    9    1    6     -0.41      0.00
   10    1    6     -1.84      0.00
   11    1    6      1.12      0.00
   12    1    6      0.13      0.00
   13    1    6     -0.46      0.00
  -13    2    6      1.47      0.00
  -12    2    6     -0.14      0.00
  -11    2    6     -0.55      0.00
  -10    2    6      1.18      0.00
   -9    2    6     -0.95      0.00
   -8    2    6     -0.35      0.00
   -7    2    6      1.76      0.00
   -6    2    6     -1.34      0.00
   -5    2    6     -0.91      0.00
   -4    2    6     -1.30      0.00
   -3    2    6     -2.33      0.00
   -2    2    6      8.00      0.00
   -1    2    6     -4.26      0.00
    0    2    6      1.44      0.00
    1    2    6      0.85      0.00
    2    2    6     -3.09      0.00
    3    2    6      0.62      0.00
    4    2    6      5.35      0.00
    5    2    6     -1.63      0.00
    6    2    6      1.77      0.00
    7    2    6     -0.69      0.00
    8    2    6      3.07      0.00
    9    2    6      0.79      0.00
   10    2    6     -2.94      0.00
   11    2    6     -1.98      0.00
   12    2    6      0.43      0.00
  -13    3    6      0.31      0.00
  -12    3    6      0.36      0.00
  -11    3    6      0.64      0.00
  -10    3    6     -0.85      0.00
   -9    3    6      0.88      0.00
   -8    3    6      0.29      0.00
   -7    3    6     -1.34      0.00
   -6    3    6      0.99      0.00
   -5    3    6      2.32      0.00
   -4    3    6      3.61      0.00
   -3    3    6     -3.09      0.00
   -2    3    6      1.83      0.00
   -1    3    6     -6.38      0.00
    0    3    6      0.08      0.00
    1    3    6      2.12      0.00
    2    3    6     -2.99      0.00
    3    3    6     -1.31      0.00
    4    3    6    -15.02      0.00
    5    3    6     -2.21      0.00
    6    3    6      0.86      0.00
    7    3    6     -0.08      0.00
    8    3    6      0.37      0.00
    9    3    6     -1.24      0.00
   10    3    6     -1.56      0.00
   11    3    6      0.32      0.00
   12    3    6      1.10      0.00
  -12    4    6      0.63      0.00
  -11    4    6      0.30      0.00
  -10    4    6     -1.20      0.00
   -9    4    6      5.97      0.00
   -8    4    6     -1.06      0.00
   -7    4    6      1.73      0.00
   -6    4    6     -0.24      0.00
   -5    4    6     -1.55      0.00
   -4    4    6     -1.15      0.00
   -3    4    6      1.16      0.00
   -2    4    6     -0.55      0.00
   -1    4    6      2.63      0.00
    0    4    6     -1.24      0.00
    1    4    6      1.01      0.00
    2    4    6     -3.76      0.00
    3    4    6     -1.48      0.00
    4    4    6      5.96      0.00
    5    4    6      2.81      0.00
    6    4    6      7.28      0.00
    7    4    6     -1.08      0.00
    8    4    6      1.77      0.00
    9    4    6     -0.58      0.00
   10    4    6     -0.75      0.00
   11    4    6     -0.01      0.00
   12    4    6     -1.47      0.00
  -12    5    6     -2.13      0.00
  -11    5    6      0.25      0.00
  -10    5    6     -2.22      0.00
   -9    5    6     -0.51      0.00
   -8    5    6      0.42      0.00
   -7    5    6     -1.88      0.00
   -6    5    6     -1.55      0.00
   -5    5    6      1.52      0.00
   -4    5    6     -1.73      0.00
   -3    5    6      1.26      0.00
   -2    5    6     -3.23      0.00
   -1    5    6      3.17      0.00
    0    5    6     -3.22      0.00
    1    5    6      3.78      0.00
    2    5    6     -1.42      0.00
    3    5    6      1.02      0.00
    4    5    6     -6.36      0.00
    5    5    6     -0.80      0.00
    6    5    6     -3.54      0.00
    7    5    6      2.36      0.00
    8    5    6     -1.78      0.00
    9    5    6      2.26      0.00
   10    5    6     -1.16      0.00
   11    5    6      0.05      0.00
  -12    6    6     -0.50      0.00
  -11    6    6      0.87      0.00
  -10    6    6     -0.59      0.00
   -9    6    6      2.41      0.00
   -8    6    6      0.67      0.00
   -7    6    6      0.47      0.00
   -6    6    6      2.77      0.00
   -5    6    6      3.84      0.00
   -4    6    6      1.68      0.00
   -3    6    6      3.25      0.00
   -2    6    6      0.84      0.00
   -1    6    6     -1.48      0.00
    0    6    6      0.29      0.00
    1    6    6     -1.63      0.00
    2    6    6     -3.04      0.00
    3    6    6     -2.48      0.00
    4    6    6      1.18      0.00
    5    6    6      1.35      0.00
    6    6    6      3.18      0.00
    7    6    6      0.74      0.00
    8    6    6     -0.77      0.00
    9    6    6     -1.24      0.00
   10    6    6      0.98      0.00
   11    6    6     -0.22      0.00
  -11    7    6     -1.49      0.00
  -10    7    6     -1.46      0.00
   -9    7    6     -0.67      0.00
   -8    7    6     -0.44      0.00
   -7    7    6      0.10      0.00
   -6    7    6     -1.56      0.00
   -5    7    6     -0.40      0.00
   -4    7    6     -1.86      0.00
   -3    7    6     -4.71      0.00
   -2    7    6     -0.77      0.00
   -1    7    6     -3.19      0.00
    0    7    6     -0.26      0.00
    1    7    6      0.08      0.00
    2    7    6      0.00      0.00
    3    7    6     -0.80      0.00
    4    7    6      0.35      0.00
    5    7    6      0.04      0.00
    6    7    6     -1.35      0.00
    7    7    6      0.10      0.00
    8    7    6      1.56      0.00
    9    7    6      2.08      0.00
   10    7    6     -0.22      0.00
  -10    8    6      0.10      0.00
   -9    8    6     -0.90      0.00
   -8    8    6     -1.39      0.00
   -7    8    6      1.25      0.00
   -6    8    6      2.13      0.00
   -5    8    6     -0.39      0.00
   -4    8    6      3.69      0.00
   -3    8    6     -3.00      0.00
   -2    8    6     -2.42      0.00
   -1    8    6     -0.90      0.00
    0    8    6     -0.81      0.00
    1    8    6     -2.48      0.00
    2    8    6      0.22      0.00
    3    8    6     -0.46      0.00
    4    8    6     -0.82      0.00
    5    8    6     -0.70      0.00
    6    8    6      1.10      0.00
    7    8    6      0.56      0.00
    8    8    6      0.19      0.00
    9    8    6      1.05      0.00
   -9    9    6     -1.28      0.00
   -8    9    6     -0.56      0.00
   -7    9    6     -1.57      0.00
   -6    9    6      1.00      0.00
   -5    9    6     -0.33      0.00
   -4    9    6      0.20      0.00
   -3    9    6     -2.04      0.00
   -2    9    6     -0.16      0.00
   -1    9    6     -2.80      0.00
    0    9    6      1.50      0.00
    1    9    6      0.13      0.00
    2    9    6     -2.14      0.00
    3    9    6     -1.02      0.00
    4    9    6      0.70      0.00
    5    9    6     -0.63      0.00
    6    9    6      0.90      0.00
    7    9    6     -0.26      0.00
    8    9    6     -0.07      0.00
   -8   10    6     -0.03      0.00
   -7   10    6      0.87      0.00
   -6   10    6      0.86      0.00
   -5   10    6     -0.81      0.00
   -4   10    6     -0.43      0.00
   -3   10    6     -0.08      0.00
   -2   10    6     -0.03      0.00
   -1   10    6     -0.23      0.00
    0   10    6      2.16      0.00
    1   10    6     -0.65      0.00
    2   10    6      1.71      0.00
    3   10    6      0.76      0.00
    4   10    6      0.32      0.00
    5   10    6      0.52      0.00
    6   10    6      1.81      0.00
    7   10    6     -0.07      0.00
   -6   11    6     -1.46      0.00
   -5   11    6      1.04      0.00
   -4   11    6     -1.68      0.00
   -3   11    6     -0.94      0.00
   -2   11    6     -1.38      0.00
   -1   11    6      1.03      0.00
    0   11    6      2.14      0.00
    1   11    6      1.00      0.00
    2   11    6      0.43      0.00
    3   11    6     -0.11      0.00
    4   11    6      0.89      0.00
    5   11    6     -1.47      0.00
    6   11    6      0.91      0.00
   -3   12    6      2.89      0.00
   -2   12    6      2.17      0.00
   -1   12    6      1.06      0.00
    0   12    6      1.51      0.00
    3   12    6     -1.59      0.00
  -13    1    7      0.16      0.00
  -12    1    7      0.08      0.00
  -11    1    7      1.38      0.00
  -10    1    7     -0.17      0.00
   -9    1    7      3.59      0.00
   -8    1    7      4.98      0.00
   -7    1    7     -0.85      0.00
   -6    1    7     -0.52      0.00
   -5    1    7     -2.87      0.00
   -4    1    7      0.72      0.00
   -3    1    7      6.66      0.00
   -2    1    7    -13.11      0.00
   -1    1    7     12.79      0.00
    0    1    7     -5.73      0.00
    1    1    7      2.36      0.00
    2    1    7      1.50      0.00
    3    1    7      3.33      0.00
    5    1    7      3.58      0.00
    6    1    7      3.39      0.00
    7    1    7     -2.21      0.00
    8    1    7     -2.26      0.00
    9    1    7     -1.04      0.00
   10    1    7      5.01      0.00
   11    1    7      1.24      0.00
   12    1    7      0.19      0.00
  -13    2    7      0.11      0.00
  -12    2    7     -1.29      0.00
  -11    2    7     -0.29      0.00
  -10    2    7      1.56      0.00
   -9    2    7     -0.62      0.00
   -8    2    7     -2.50      0.00
   -7    2    7      0.67      0.00
   -6    2    7     -1.90      0.00
   -5    2    7     -0.11      0.00
   -4    2    7     -3.66      0.00
   -3    2    7      9.04      0.00
   -2    2    7     -5.87      0.00
   -1    2    7     11.33      0.00
    0    2    7     -2.53      0.00
    1    2    7      0.48      0.00
    2    2    7      2.51      0.00
    3    2    7      0.08      0.00
    4    2    7     11.51      0.00
    5    2    7     -2.27      0.00
    6    2    7     -3.21      0.00
    7    2    7     -0.40      0.00
    8    2    7     -1.99      0.00
    9    2    7      0.82      0.00
   10    2    7      0.31      0.00
   11    2    7     -2.35      0.00
   12    2    7     -0.93      0.00
  -12    3    7     -0.40      0.00
  -11    3    7      1.32      0.00
  -10    3    7      1.91      0.00
   -9    3    7     -1.38      0.00
   -8    3    7      2.50      0.00
   -7    3    7     -0.50      0.00
   -6    3    7      1.49      0.00
   -5    3    7      2.74      0.00
   -4    3    7      0.87      0.00
   -3    3    7      0.51      0.00
   -2    3    7     -1.33      0.00
   -1    3    7     -2.12      0.00
    0    3    7      0.83      0.00
    1    3    7     -2.62      0.00
    2    3    7      2.35      0.00
    3    3    7      0.39      0.00
    4    3    7     -6.02      0.00
    5    3    7     -0.07      0.00
    6    3    7     -5.67      0.00
    7    3    7      2.84      0.00
    8    3    7     -1.34      0.00
    9    3    7     -0.83      0.00
   10    3    7      2.54      0.00
   11    3    7      1.31      0.00
   12    3    7     -0.25      0.00
  -12    4    7      2.22      0.00
  -11    4    7     -1.32      0.00
  -10    4    7      0.79      0.00
   -9    4    7      0.47      0.00
   -8    4    7     -1.35      0.00
   -7    4    7      0.81      0.00
   -6    4    7     -1.04      0.00
   -5    4    7     -4.02      0.00
   -4    4    7     -1.46      0.00
   -3    4    7     -1.04      0.00
   -2    4    7      0.04      0.00
   -1    4    7     -1.97      0.00
    0    4    7      1.22      0.00
    1    4    7     -4.63      0.00
    2    4    7      2.97      0.00
    3    4    7     -1.99      0.00
    4    4    7      8.70      0.00
    5    4    7      1.28      0.00
    6    4    7      0.19      0.00
    7    4    7     -2.21      0.00
    8    4    7      1.72      0.00
    9    4    7     -0.49      0.00
   10    4    7      0.62      0.00
   11    4    7     -0.25      0.00
   12    4    7     -1.22      0.00
  -12    5    7      0.67      0.00
  -11    5    7     -0.28      0.00
  -10    5    7      1.88      0.00
   -9    5    7     -3.39      0.00
   -8    5    7     -1.22      0.00
   -7    5    7     -0.53      0.00
   -6    5    7     -0.24      0.00
   -5    5    7      0.14      0.00
   -4    5    7      2.48      0.00
   -3    5    7     -1.37      0.00
   -2    5    7     -0.19      0.00
   -1    5    7      0.34      0.00
    0    5    7      1.61      0.00
    1    5    7     -1.40      0.00
    2    5    7      2.41      0.00
    3    5    7      1.44      0.00
    4    5    7     -5.13      0.00
    5    5    7     -2.87      0.00
    6    5    7     -5.02      0.00
    7    5    7     -0.25      0.00
    8    5    7     -0.88      0.00
    9    5    7      1.00      0.00
   10    5    7     -1.07      0.00
   11    5    7     -0.27      0.00
  -12    6    7      1.84      0.00
  -11    6    7      0.69      0.00
  -10    6    7      1.85      0.00
   -9    6    7      1.63      0.00
   -8    6    7      1.19      0.00
   -7    6    7     -0.13      0.00
   -6    6    7      1.20      0.00
   -5    6    7     -2.60      0.00
   -4    6    7      1.13      0.00
   -3    6    7      0.85      0.00
   -2    6    7      2.37      0.00
   -1    6    7     -2.34      0.00
    0    6    7      1.74      0.00
    1    6    7     -2.41      0.00
    2    6    7     -1.53      0.00
    3    6    7      0.51      0.00
    4    6    7      1.98      0.00
    5    6    7      0.82      0.00
    6    6    7      3.45      0.00
    7    6    7     -1.56      0.00
    8    6    7     -0.55      0.00
    9    6    7     -2.98      0.00
   10    6    7      0.70      0.00
   11    6    7     -0.55      0.00
  -11    7    7     -1.07      0.00
  -10    7    7      0.32      0.00
   -9    7    7      0.01      0.00
   -8    7    7      0.48      0.00
   -7    7    7     -1.15      0.00
   -6    7    7     -3.88      0.00
   -5    7    7     -1.57      0.00
   -4    7    7     -2.13      0.00
   -3    7    7     -1.35      0.00
   -2    7    7      1.28      0.00
   -1    7    7      1.80      0.00
    0    7    7      0.14      0.00
    1    7    7      3.78      0.00
    2    7    7      1.27      0.00
    3    7    7      1.79      0.00
    4    7    7     -0.40      0.00
    5    7    7     -0.08      0.00
    6    7    7     -1.76      0.00
    7    7    7     -0.93      0.00
    8    7    7      1.52      0.00
    9    7    7      0.73      0.00
   10    7    7     -0.71      0.00
  -10    8    7      0.75      0.00
   -9    8    7      0.16      0.00
   -8    8    7      0.18      0.00
   -7    8    7      1.36      0.00
   -6    8    7     -0.20      0.00
   -5    8    7      2.59      0.00
   -4    8    7      0.80      0.00
   -3    8    7      4.73      0.00
   -2    8    7     -0.92      0.00
   -1    8    7      4.85      0.00
    0    8    7     -1.88      0.00
    1    8    7     -1.60      0.00
    2    8    7      0.51      0.00
    3    8    7     -0.09      0.00
    4    8    7     -1.12      0.00
    5    8    7     -0.48      0.00
    6    8    7     -0.70      0.00
    7    8    7     -0.58      0.00
    8    8    7     -0.90      0.00
    9    8    7     -1.42      0.00
   -9    9    7      0.33      0.00
   -8    9    7      0.59      0.00
   -7    9    7     -1.43      0.00
   -6    9    7     -2.29      0.00
   -5    9    7      0.79      0.00
   -4    9    7     -2.90      0.00
   -3    9    7      2.06      0.00
   -2    9    7     -0.65      0.00
   -1    9    7     -0.62      0.00
    0    9    7     -1.61      0.00
    1    9    7     -0.49      0.00
    2    9    7     -1.53      0.00
    3    9    7     -1.74      0.00
    4    9    7      0.01      0.00
    5    9    7     -0.41      0.00
    6    9    7     -0.53      0.00
    7    9    7      0.51      0.00
    8    9    7      0.51      0.00
   -8   10    7     -0.51      0.00
   -7   10    7      0.37      0.00
   -6   10    7      1.60      0.00
   -5   10    7      0.34      0.00
   -4   10    7      1.51      0.00
   -3   10    7     -0.06      0.00
   -2   10    7      1.16      0.00
   -1   10    7     -0.93      0.00
    0   10    7     -2.61      0.00
    1   10    7     -1.80      0.00
    2   10    7     -0.21      0.00
    3   10    7      1.45      0.00
    4   10    7     -1.06      0.00
    5   10    7      0.91      0.00
    6   10    7     -1.38      0.00
    7   10    7      0.95      0.00
   -6   11    7     -0.56      0.00
   -5   11    7     -0.37      0.00
   -4   11    7      0.63      0.00
   -3   11    7     -3.11      0.00
   -2   11    7     -1.86      0.00
   -1   11    7     -0.57      0.00
    0   11    7     -3.15      0.00
    1   11    7      1.00      0.00
    2   11    7     -1.91      0.00
    3   11    7      0.24      0.00
    4   11    7     -0.51      0.00
    5   11    7      0.22      0.00
   -3   12    7      0.49      0.00
   -2   12    7      1.25      0.00
   -1   12    7     -0.07      0.00
    3   12    7      0.26      0.00
  -13    0    8     -0.17      0.00
  -12    0    8      0.56      0.00
  -11    0    8     -1.86      0.00
  -10    0    8     -1.16      0.00
   -9    0    8     -4.61      0.00
   -8    0    8     -8.91      0.00
   -7    0    8     -0.11      0.00
   -6    0    8      0.80      0.00
   -5    0    8      5.12      0.00
   -4    0    8     -0.61      0.00
   -3    0    8     -9.35      0.00
   -2    0    8     10.03      0.00
   -1    0    8    -13.66      0.00
    0    0    8      3.73      0.00
    1    0    8     -4.52      0.00
    2    0    8     -1.19      0.00
    3    0    8     -5.41      0.00
    4    0    8     -2.42      0.00
    5    0    8      0.02      0.00
    6    0    8     -2.87      0.00
    7    0    8      5.01      0.00
    8    0    8      3.73      0.00
    9    0    8      3.20      0.00
   10    0    8     -3.91      0.00
   11    0    8      1.31      0.00
   12    0    8     -0.10      0.00
  -13    1    8     -0.01      0.00
  -12    1    8      1.05      0.00
  -11    1    8      0.03      0.00
  -10    1    8     -1.66      0.00
   -9    1    8      0.17      0.00
   -8    1    8      3.07      0.00
   -7    1    8     -0.17      0.00
   -6    1    8      1.70      0.00
   -5    1    8     -0.56      0.00
   -4    1    8      3.01      0.00
   -2    1    8      7.31      0.00
   -1    1    8     -7.80      0.00
    0    1    8      3.26      0.00
    1    1    8     -0.37      0.00
    2    1    8     -1.15      0.00
    3    1    8      2.56      0.00
    4    1    8     -4.24      0.00
    5    1    8      3.67      0.00
    6    1    8      2.08      0.00
    7    1    8     -0.39      0.00
    8    1    8      0.32      0.00
    9    1    8     -0.40      0.00
   10    1    8     -0.51      0.00
   11    1    8      2.42      0.00
   12    1    8      0.42      0.00
  -13    2    8      0.16      0.00
  -12    2    8      0.77      0.00
  -11    2    8     -2.12      0.00
  -10    2    8     -0.95      0.00
   -9    2    8     -2.45      0.00
   -8    2    8     -5.46      0.00
   -7    2    8     -0.36      0.00
   -6    2    8     -0.56      0.00
   -5    2    8      0.57      0.00
   -4    2    8      0.86      0.00
   -3    2    8     -3.77      0.00
   -2    2    8      5.37      0.00
   -1    2    8     -2.02      0.00
    0    2    8      0.74      0.00
    1    2    8      3.22      0.00
    2    2    8     -0.95      0.00
    3    2    8     -1.92      0.00
    4    2    8      3.35      0.00
    5    2    8     -1.45      0.00
    6    2    8      2.36      0.00
    7    2    8      0.13      0.00
    8    2    8      0.19      0.00
    9    2    8      2.57      0.00
   10    2    8     -3.73      0.00
   11    2    8     -1.46      0.00
   12    2    8      1.43      0.00
  -12    3    8     -0.55      0.00
  -11    3    8      1.03      0.00
  -10    3    8      0.70      0.00
   -9    3    8      0.85      0.00
   -8    3    8      3.87      0.00
   -7    3    8      1.56      0.00
   -6    3    8      1.70      0.00
   -5    3    8      1.58      0.00
   -4    3    8      3.10      0.00
   -3    3    8     -4.12      0.00
   -2    3    8      3.97      0.00
   -1    3    8     -1.73      0.00
    0    3    8      1.13      0.00
    1    3    8      2.19      0.00
    2    3    8     -1.78      0.00
    3    3    8      3.34      0.00
    4    3    8     -5.83      0.00
    5    3    8      2.66      0.00
    6    3    8      3.04      0.00
    7    3    8      0.95      0.00
    8    3    8      0.03      0.00
    9    3    8     -0.67      0.00
   10    3    8      0.89      0.00
   11    3    8      1.52      0.00
   12    3    8      0.60      0.00
  -12    4    8     -0.35      0.00
  -11    4    8     -1.13      0.00
  -10    4    8     -3.78      0.00
   -9    4    8      1.83      0.00
   -8    4    8     -1.75      0.00
   -7    4    8     -0.40      0.00
   -6    4    8     -1.04      0.00
   -5    4    8     -3.11      0.00
   -4    4    8     -1.89      0.00
   -3    4    8      1.23      0.00
   -2    4    8      0.95      0.00
   -1    4    8      1.95      0.00
    0    4    8     -0.14      0.00
    1    4    8      4.05      0.00
    2    4    8      0.82      0.00
    3    4    8     -0.11      0.00
    4    4    8      6.05      0.00
    5    4    8      0.39      0.00
    6    4    8      5.38      0.00
    7    4    8     -2.30      0.00
    8    4    8      1.26      0.00
    9    4    8      0.59      0.00
   10    4    8     -1.17      0.00
   11    4    8     -0.34      0.00
   12    4    8     -0.84      0.00
  -11    5    8      1.63      0.00
  -10    5    8      0.26      0.00
   -9    5    8     -0.89      0.00
   -8    5    8      0.58      0.00
   -7    5    8      0.80      0.00
   -6    5    8      1.53      0.00
   -5    5    8      6.29      0.00
   -4    5    8      1.07      0.00
   -3    5    8      2.41      0.00
   -2    5    8     -1.22      0.00
   -1    5    8      5.63      0.00
    0    5    8     -1.30      0.00
    1    5    8      3.17      0.00
    2    5    8     -1.16      0.00
    3    5    8      0.88      0.00
    4    5    8     -3.82      0.00
    5    5    8     -1.14      0.00
    6    5    8     -2.36      0.00
    7    5    8      2.52      0.00
    8    5    8     -1.40      0.00
    9    5    8      2.35      0.00
   10    5    8     -1.00      0.00
   11    5    8      0.30      0.00
  -11    6    8      1.36      0.00
  -10    6    8     -1.30      0.00
   -9    6    8     -0.30      0.00
   -8    6    8      1.12      0.00
   -7    6    8     -0.51      0.00
   -6    6    8      0.91      0.00
   -5    6    8     -0.46      0.00
   -4    6    8     -4.59      0.00
   -3    6    8      0.90      0.00
   -2    6    8     -1.71      0.00
   -1    6    8     -2.63      0.00
    0    6    8     -2.93      0.00
    1    6    8     -1.72      0.00
    2    6    8     -1.57      0.00
    3    6    8     -1.25      0.00
    4    6    8      2.88      0.00
    5    6    8      1.47      0.00
    6    6    8      2.24      0.00
    7    6    8      1.31      0.00
    8    6    8      0.32      0.00
    9    6    8     -1.48      0.00
   10    6    8      1.67      0.00
   11    6    8      0.07      0.00
  -11    7    8      0.15      0.00
  -10    7    8     -0.84      0.00
   -9    7    8     -0.81      0.00
   -8    7    8     -1.28      0.00
   -7    7    8      0.30      0.00
   -6    7    8      0.40      0.00
   -5    7    8      1.14      0.00
   -4    7    8      1.27      0.00
   -3    7    8     -2.18      0.00
   -2    7    8      1.67      0.00
   -1    7    8     -0.47      0.00
    0    7    8      1.41      0.00
    1    7    8      3.25      0.00
    2    7    8      2.17      0.00
    3    7    8      0.02      0.00
    4    7    8      0.14      0.00
    5    7    8     -0.34      0.00
    6    7    8     -1.43      0.00
    7    7    8      0.25      0.00
    8    7    8      0.53      0.00
    9    7    8      2.24      0.00
   10    7    8     -0.74      0.00
  -10    8    8      0.23      0.00
   -9    8    8      0.01      0.00
   -8    8    8     -1.09      0.00
   -7    8    8      1.12      0.00
   -6    8    8      3.12      0.00
   -5    8    8     -2.71      0.00
   -4    8    8      1.86      0.00
   -3    8    8     -1.88      0.00
   -2    8    8     -0.19      0.00
   -1    8    8     -0.51      0.00
    0    8    8      0.46      0.00
    1    8    8     -2.04      0.00
    2    8    8      0.06      0.00
    3    8    8      0.23      0.00
    4    8    8      1.22      0.00
    5    8    8      0.11      0.00
    6    8    8      0.28      0.00
    7    8    8     -0.30      0.00
    8    8    8     -3.07      0.00
    9    8    8     -1.49      0.00
   -9    9    8      1.02      0.00
   -8    9    8      1.19      0.00
   -7    9    8     -0.60      0.00
   -6    9    8     -0.61      0.00
   -5    9    8     -3.58      0.00
   -4    9    8     -1.07      0.00
   -3    9    8     -1.51      0.00
   -2    9    8      0.39      0.00
   -1    9    8     -0.92      0.00
    0    9    8      3.23      0.00
    1    9    8      3.52      0.00
    2    9    8      2.17      0.00
    3    9    8      0.02      0.00
    4    9    8      1.70      0.00
    5    9    8      0.70      0.00
    6    9    8      1.56      0.00
    7    9    8      0.28      0.00
    8    9    8      0.47      0.00
   -8   10    8      0.07      0.00
   -7   10    8      0.76      0.00
   -6   10    8      1.26      0.00
   -5   10    8     -0.25      0.00
   -4   10    8      0.00      0.00
   -3   10    8      0.08      0.00
   -2   10    8      1.43      0.00
   -1   10    8      0.02      0.00
    0   10    8      2.66      0.00
    1   10    8     -0.71      0.00
    2   10    8      1.71      0.00
    3   10    8      1.13      0.00
    4   10    8     -0.62      0.00
    5   10    8      0.28      0.00
    6   10    8      0.99      0.00
    7   10    8     -1.51      0.00
   -6   11    8     -1.94      0.00
   -5   11    8      0.63      0.00
   -4   11    8     -2.12      0.00
   -3   11    8      1.28      0.00
   -2   11    8     -1.03      0.00
   -1   11    8      0.32      0.00
    0   11    8      2.60      0.00
    1   11    8      0.78      0.00
    2   11    8      0.17      0.00
    3   11    8     -1.39      0.00
    4   11    8      0.11      0.00
    5   11    8     -0.99      0.00
  -13    1    9     -0.47      0.00
  -12    1    9     -1.71      0.00
  -11    1    9      1.85      0.00
  -10    1    9      0.13      0.00
   -9    1    9      2.77      0.00
   -8    1    9      7.50      0.00
   -7    1    9     -0.35      0.00
   -6    1    9     -0.23      0.00
   -5    1    9     -4.55      0.00
   -4    1    9     -1.36      0.00
   -3    1    9      5.82      0.00
   -2    1    9     -7.13      0.00
   -1    1    9      5.71      0.00
    0    1    9     -1.14      0.00
    1    1    9      0.53      0.00
    2    1    9     -0.75      0.00
    3    1    9      1.85      0.00
    4    1    9     -1.09      0.00
    5    1    9     -3.52      0.00
    6    1    9     -0.21      0.00
    7    1    9     -3.21      0.00
    8    1    9     -0.31      0.00
    9    1    9     -4.48      0.00
   10    1    9      2.68      0.00
   11    1    9     -1.33      0.00
   12    1    9     -0.69      0.00
  -13    2    9     -0.19      0.00
  -12    2    9     -0.76      0.00
  -11    2    9      0.38      0.00
  -10    2    9      0.07      0.00
   -9    2    9     -0.68      0.00
   -8    2    9     -4.78      0.00
   -7    2    9     -1.85      0.00
   -6    2    9     -1.50      0.00
   -5    2    9      0.82      0.00
   -4    2    9     -4.40      0.00
   -3    2    9      5.80      0.00
   -2    2    9     -9.07      0.00
   -1    2    9      3.65      0.00
    0    2    9     -4.28      0.00
    1    2    9     -1.15      0.00
    2    2    9     -0.09      0.00
    3    2    9     -4.87      0.00
    4    2    9      2.57      0.00
    5    2    9     -4.55      0.00
    6    2    9     -1.10      0.00
    7    2    9      2.06      0.00
    8    2    9      1.37      0.00
    9    2    9      1.93      0.00
   10    2    9      0.65      0.00
   11    2    9     -1.90      0.00
   12    2    9      0.03      0.00
  -12    3    9     -1.40      0.00
  -11    3    9      1.17      0.00
  -10    3    9      2.16      0.00
   -9    3    9     -1.13      0.00
   -8    3    9      4.61      0.00
   -7    3    9      0.69      0.00
   -6    3    9      0.22      0.00
   -5    3    9      2.51      0.00
   -4    3    9     -0.39      0.00
   -3    3    9     -0.14      0.00
   -2    3    9     -3.07      0.00
   -1    3    9     -1.64      0.00
    0    3    9     -1.70      0.00
    2    3    9     -2.46      0.00
    3    3    9      0.18      0.00
    4    3    9     -5.22      0.00
    5    3    9      1.39      0.00
    6    3    9     -5.30      0.00
    7    3    9      1.53      0.00
    8    3    9      0.53      0.00
    9    3    9     -3.13      0.00
   10    3    9      2.94      0.00
   11    3    9      1.77      0.00
   12    3    9     -0.40      0.00
  -12    4    9      2.28      0.00
  -11    4    9     -2.09      0.00
  -10    4    9     -1.97      0.00
   -9    4    9     -0.28      0.00
   -8    4    9     -2.72      0.00
   -7    4    9     -1.62      0.00
   -6    4    9     -1.13      0.00
   -5    4    9     -3.46      0.00
   -4    4    9     -1.38      0.00
   -3    4    9      1.45      0.00
   -2    4    9     -0.05      0.00
   -1    4    9     -3.55      0.00
    0    4    9      1.08      0.00
    1    4    9     -1.09      0.00
    2    4    9      3.79      0.00
    3    4    9     -2.35      0.00
    4    4    9      2.81      0.00
    5    4    9      0.12      0.00
    6    4    9     -0.17      0.00
    7    4    9     -1.01      0.00
    8    4    9      1.53      0.00
    9    4    9     -1.16      0.00
   10    4    9     -0.08      0.00
   11    4    9     -0.55      0.00
  -11    5    9     -0.50      0.00
  -10    5    9      3.39      0.00
   -9    5    9      1.89      0.00
   -8    5    9      0.48      0.00
   -7    5    9      1.85      0.00
   -6    5    9      0.64      0.00
   -5    5    9      1.56      0.00
   -4    5    9      4.61      0.00
   -3    5    9     -1.46      0.00
   -2    5    9     -0.39      0.00
   -1    5    9     -0.67      0.00
    0    5    9      3.28      0.00
    1    5    9     -2.82      0.00
    2    5    9     -0.97      0.00
    3    5    9      0.35      0.00
    4    5    9     -4.19      0.00
    5    5    9      0.39      0.00
    6    5    9     -2.07      0.00
    7    5    9      0.70      0.00
    8    5    9     -1.97      0.00
    9    5    9      0.81      0.00
   10    5    9     -0.19      0.00
   11    5    9      0.09      0.00
  -11    6    9     -1.03      0.00
  -10    6    9     -1.07      0.00
   -9    6    9      1.00      0.00
   -8    6    9      1.57      0.00
   -7    6    9     -1.19      0.00
   -6    6    9     -0.45      0.00
   -5    6    9     -4.91      0.00
   -4    6    9     -1.79      0.00
   -3    6    9     -1.08      0.00
   -2    6    9      0.45      0.00
   -1    6    9     -4.33      0.00
    0    6    9      0.92      0.00
    1    6    9     -1.19      0.00
    2    6    9     -0.29      0.00
    3    6    9      1.59      0.00
    4    6    9      1.50      0.00
    5    6    9      1.07      0.00
    6    6    9      3.13      0.00
    7    6    9     -0.06      0.00
    8    6    9      1.73      0.00
    9    6    9     -1.43      0.00
   10    6    9      2.01      0.00
   11    6    9     -0.18      0.00
  -11    7    9     -0.99      0.00
  -10    7    9      0.42      0.00
   -9    7    9      0.29      0.00
   -8    7    9      0.63      0.00
   -7    7    9      0.79      0.00
   -6    7    9     -0.98      0.00
   -5    7    9      4.85      0.00
   -4    7    9      5.71      0.00
   -3    7    9      1.30      0.00
   -2    7    9      2.37      0.00
   -1    7    9      2.53      0.00
    0    7    9      1.07      0.00
    1    7    9      3.54      0.00
    2    7    9     -0.65      0.00
    3    7    9     -0.81      0.00
    4    7    9     -3.67      0.00
    5    7    9     -1.36      0.00
    6    7    9     -0.72      0.00
    7    7    9     -0.61      0.00
    8    7    9      1.82      0.00
    9    7    9      1.95      0.00
   10    7    9     -0.99      0.00
  -10    8    9      1.03      0.00
   -9    8    9     -0.74      0.00
   -8    8    9     -0.33      0.00
   -7    8    9      0.29      0.00
   -6    8    9     -1.27      0.00
   -5    8    9      2.28      0.00
   -4    8    9     -1.72      0.00
   -3    8    9      1.63      0.00
   -2    8    9     -3.14      0.00
   -1    8    9      1.21      0.00
    0    8    9     -3.53      0.00
    1    8    9     -4.47      0.00
    2    8    9     -3.47      0.00
    3    8    9     -0.91      0.00
    4    8    9     -0.54      0.00
    5    8    9     -0.02      0.00
    6    8    9      0.28      0.00
    7    8    9      0.30      0.00
    8    8    9      0.52      0.00
    9    8    9     -1.31      0.00
   -9    9    9     -0.09      0.00
   -8    9    9     -0.02      0.00
   -7    9    9      0.02      0.00
   -6    9    9     -1.34      0.00
   -5    9    9      4.33      0.00
   -4    9    9      0.39      0.00
   -3    9    9      4.13      0.00
   -2    9    9     -0.74      0.00
   -1    9    9      0.91      0.00
    0    9    9     -0.19      0.00
    1    9    9      0.98      0.00
    2    9    9      0.16      0.00
    3    9    9     -1.47      0.00
    4    9    9     -0.72      0.00
    5    9    9     -1.33      0.00
    6    9    9     -0.31      0.00
    7    9    9      1.24      0.00
    8    9    9      2.57      0.00
   -8   10    9     -1.34      0.00
   -7   10    9     -0.66      0.00
   -6   10    9      2.28      0.00
   -5   10    9      1.18      0.00
   -4   10    9      1.78      0.00
   -3   10    9     -1.37      0.00
   -2   10    9      0.91      0.00
   -1   10    9     -0.65      0.00
    0   10    9     -1.99      0.00
    1   10    9     -2.01      0.00
    2   10    9     -2.57      0.00
    3   10    9      1.32      0.00
    4   10    9     -0.97      0.00
    5   10    9      0.17      0.00
    6   10    9     -1.65      0.00
    7   10    9     -0.19      0.00
   -6   11    9      0.12      0.00
   -5   11    9     -0.84      0.00
   -4   11    9      1.86      0.00
   -3   11    9     -1.43      0.00
   -2   11    9     -0.15      0.00
   -1   11    9      1.15      0.00
    0   11    9     -1.56      0.00
    1   11    9      3.05      0.00
    2   11    9     -0.77      0.00
    3   11    9      0.79      0.00
    4   11    9      0.88      0.00
    5   11    9      0.35      0.00
  -13    0   10      1.44      0.00
  -12    0   10      2.38      0.00
  -11    0   10     -1.98      0.00
  -10    0   10      0.20      0.00
   -9    0   10     -1.19      0.00
   -8    0   10     -7.01      0.00
   -7    0   10      1.80      0.00
   -6    0   10      0.02      0.00
   -5    0   10      6.33      0.00
   -4    0   10      2.20      0.00
   -3    0   10     -2.58      0.00
   -2    0   10      7.86      0.00
   -1    0   10     -3.42      0.00
    2    0   10      2.07      0.00
    3    0   10      1.46      0.00
    4    0   10      0.23      0.00
    5    0   10      8.08      0.00
    6    0   10     -1.88      0.00
    7    0   10     -0.13      0.00
    8    0   10     -3.23      0.00
    9    0   10      3.62      0.00
   10    0   10     -2.41      0.00
   11    0   10      2.68      0.00
   12    0   10     -0.23      0.00
  -13    1   10     -0.36      0.00
  -12    1   10      0.72      0.00
  -11    1   10     -0.41      0.00
  -10    1   10     -0.28      0.00
   -9    1   10      0.56      0.00
   -8    1   10      2.99      0.00
   -7    1   10      0.56      0.00
   -6    1   10      0.45      0.00
   -5    1   10     -1.51      0.00
   -4    1   10      2.12      0.00
   -3    1   10     -4.20      0.00
   -2    1   10      7.09      0.00
   -1    1   10     -3.23      0.00
    0    1   10      4.15      0.00
    1    1   10      1.24      0.00
    2    1   10      0.23      0.00
    3    1   10      3.51      0.00
    4    1   10     -1.02      0.00
    5    1   10      2.67      0.00
    6    1   10     -0.48      0.00
    7    1   10     -2.05      0.00
    8    1   10     -1.73      0.00
    9    1   10     -1.57      0.00
   10    1   10     -2.31      0.00
   11    1   10      0.81      0.00
   12    1   10     -0.42      0.00
  -13    2   10      0.05      0.00
  -12    2   10      2.93      0.00
  -11    2   10     -0.82      0.00
  -10    2   10      0.46      0.00
   -9    2   10      1.31      0.00
   -8    2   10     -5.24      0.00
   -7    2   10      0.10      0.00
   -6    2   10     -0.14      0.00
   -5    2   10      0.05      0.00
   -4    2   10      0.52      0.00
   -3    2   10     -2.72      0.00
   -2    2   10      4.88      0.00
   -1    2   10     -1.31      0.00
    0    2   10      0.42      0.00
    1    2   10      1.69      0.00
    2    2   10      1.74      0.00
    3    2   10     -0.08      0.00
    4    2   10      4.04      0.00
    5    2   10      1.53      0.00
    6    2   10      3.34      0.00
    7    2   10      0.50      0.00
    8    2   10     -3.60      0.00
    9    2   10      5.53      0.00
   10    2   10     -2.20      0.00
   11    2   10     -0.86      0.00
   12    2   10      0.21      0.00
  -12    3   10     -1.62      0.00
  -11    3   10     -0.58      0.00
  -10    3   10      0.87      0.00
   -9    3   10     -0.81      0.00
   -8    3   10      2.50      0.00
   -7    3   10      1.68      0.00
   -6    3   10     -0.32      0.00
   -5    3   10     -0.57      0.00
   -4    3   10      3.81      0.00
   -3    3   10     -4.75      0.00
   -2    3   10      4.15      0.00
   -1    3   10      1.68      0.00
    0    3   10      1.37      0.00
    1    3   10      0.41      0.00
    2    3   10     -2.35      0.00
    3    3   10      2.47      0.00
    4    3   10     -1.50      0.00
    5    3   10      0.64      0.00
    6    3   10     -0.92      0.00
    7    3   10     -2.07      0.00
    8    3   10     -1.78      0.00
    9    3   10     -0.86      0.00
   10    3   10     -0.40      0.00
   11    3   10      0.43      0.00
   12    3   10     -0.98      0.00
  -12    4   10      0.79      0.00
  -11    4   10      0.56      0.00
  -10    4   10     -2.76      0.00
   -9    4   10     -0.10      0.00
   -8    4   10     -3.72      0.00
   -7    4   10     -1.85      0.00
   -6    4   10      0.22      0.00
   -5    4   10     -2.59      0.00
   -4    4   10     -1.84      0.00
   -3    4   10      1.23      0.00
   -2    4   10      1.68      0.00
   -1    4   10      2.24      0.00
    0    4   10     -1.50      0.00
    1    4   10      3.10      0.00
    2    4   10      2.67      0.00
    3    4   10     -1.20      0.00
    4    4   10      4.25      0.00
    5    4   10     -2.39      0.00
    6    4   10      3.62      0.00
    7    4   10     -1.79      0.00
    8    4   10      1.02      0.00
    9    4   10      1.58      0.00
   10    4   10     -1.94      0.00
   11    4   10     -1.30      0.00
  -11    5   10      1.08      0.00
  -10    5   10      1.72      0.00
   -9    5   10     -0.95      0.00
   -8    5   10     -1.20      0.00
   -7    5   10      0.32      0.00
   -6    5   10     -1.39      0.00
   -5    5   10      2.84      0.00
   -4    5   10     -0.01      0.00
   -3    5   10     -0.73      0.00
   -2    5   10     -3.02      0.00
   -1    5   10      3.95      0.00
    0    5   10     -2.68      0.00
    1    5   10     -2.08      0.00
    2    5   10     -3.87      0.00
    3    5   10     -1.07      0.00
    4    5   10     -1.40      0.00
    5    5   10     -1.27      0.00
    6    5   10     -2.36      0.00
    7    5   10     -0.35      0.00
    8    5   10     -2.83      0.00
    9    5   10      1.47      0.00
   10    5   10     -1.63      0.00
   11    5   10      0.75      0.00
  -11    6   10      0.80      0.00
  -10    6   10     -2.19      0.00
   -9    6   10     -2.84      0.00
   -8    6   10     -0.34      0.00
   -7    6   10     -2.21      0.00
   -6    6   10      0.22      0.00
   -5    6   10     -1.86      0.00
   -4    6   10     -7.42      0.00
   -3    6   10      1.44      0.00
   -2    6   10     -0.53      0.00
   -1    6   10      0.16      0.00
    0    6   10     -2.03      0.00
    1    6   10     -0.10      0.00
    2    6   10      2.20      0.00
    3    6   10      1.93      0.00
    4    6   10      4.46      0.00
    5    6   10      0.83      0.00
    6    6   10     -0.16      0.00
    7    6   10     -0.53      0.00
    8    6   10      0.93      0.00
    9    6   10     -2.19      0.00
   10    6   10      0.51      0.00
  -11    7   10     -0.17      0.00
  -10    7   10     -0.23      0.00
   -9    7   10     -0.11      0.00
   -8    7   10     -1.21      0.00
   -7    7   10      0.02      0.00
   -6    7   10     -0.21      0.00
   -5    7   10     -0.29      0.00
   -4    7   10      1.27      0.00
   -3    7   10     -1.50      0.00
   -2    7   10      1.24      0.00
   -1    7   10      0.38      0.00
    0    7   10      0.36      0.00
    1    7   10      1.73      0.00
    2    7   10      1.72      0.00
    3    7   10     -0.62      0.00
    4    7   10     -0.36      0.00
    5    7   10     -0.18      0.00
    6    7   10     -1.61      0.00
    7    7   10     -1.24      0.00
    8    7   10     -2.05      0.00
    9    7   10      0.46      0.00
   10    7   10     -1.77      0.00
  -10    8   10     -0.30      0.00
   -9    8   10      0.89      0.00
   -8    8   10      0.08      0.00
   -7    8   10     -0.66      0.00
   -6    8   10      1.20      0.00
   -5    8   10     -7.57      0.00
   -4    8   10     -4.53      0.00
   -3    8   10     -5.02      0.00
   -2    8   10     -0.94      0.00
   -1    8   10     -2.11      0.00
    0    8   10     -0.52      0.00
    1    8   10     -1.99      0.00
    2    8   10      0.98      0.00
    3    8   10      2.65      0.00
    4    8   10      4.70      0.00
    5    8   10      3.00      0.00
    6    8   10      1.16      0.00
    7    8   10      0.61      0.00
    8    8   10     -2.34      0.00
    9    8   10     -1.14      0.00
   -9    9   10     -0.05      0.00
   -8    9   10      0.61      0.00
   -7    9   10      0.53      0.00
   -6    9   10      0.25      0.00
   -5    9   10     -1.91      0.00
   -4    9   10      1.51      0.00
   -3    9   10      0.70      0.00
   -2    9   10      0.71      0.00
   -1    9   10     -0.17      0.00
    0    9   10      1.71      0.00
    1    9   10      2.10      0.00
    2    9   10      3.97      0.00
    3    9   10     -1.17      0.00
    4    9   10     -0.12      0.00
    5    9   10     -0.51      0.00
    6    9   10     -0.04      0.00
    7    9   10      0.10      0.00
    8    9   10      0.14      0.00
   -8   10   10     -0.27      0.00
   -7   10   10     -0.72      0.00
   -6   10   10     -0.12      0.00
   -5   10   10     -2.07      0.00
   -4   10   10     -2.07      0.00
   -3   10   10     -2.17      0.00
   -2   10   10      0.05      0.00
   -1   10   10     -1.29      0.00
    0   10   10      0.67      0.00
    1   10   10     -2.58      0.00
    2   10   10      0.24      0.00
    3   10   10      0.76      0.00
    4   10   10     -0.09      0.00
    5   10   10      1.66      0.00
    6   10   10      1.46      0.00
   -6   11   10     -2.07      0.00
   -5   11   10      0.64      0.00
   -4   11   10     -2.02      0.00
   -3   11   10      2.41      0.00
   -2   11   10     -0.29      0.00
   -1   11   10     -0.13      0.00
    0   11   10      1.88      0.00
    1   11   10      0.85      0.00
    2   11   10      1.63      0.00
    3   11   10     -0.35      0.00
    4   11   10      0.12      0.00
    5   11   10     -0.66      0.00
  -13    1   11     -1.16      0.00
  -12    1   11     -2.68      0.00
  -11    1   11      1.96      0.00
  -10    1   11     -0.81      0.00
   -9    1   11     -0.75      0.00
   -8    1   11      5.23      0.00
   -7    1   11     -1.44      0.00
   -6    1   11      1.31      0.00
   -5    1   11     -3.29      0.00
   -4    1   11     -0.57      0.00
   -3    1   11      1.36      0.00
   -2    1   11     -6.53      0.00
   -1    1   11      1.22      0.00
    0    1   11      0.08      0.00
    1    1   11      3.23      0.00
    2    1   11     -0.81      0.00
    3    1   11     -2.14      0.00
    4    1   11     -0.34      0.00
    5    1   11     -6.10      0.00
    6    1   11      1.49      0.00
    7    1   11      2.39      0.00
    8    1   11      7.71      0.00
    9    1   11     -4.11      0.00
   10    1   11      1.92      0.00
   11    1   11     -1.29      0.00
   12    1   11      0.60      0.00
  -13    2   11     -0.10      0.00
  -12    2   11      0.16      0.00
  -11    2   11      1.66      0.00
  -10    2   11     -0.47      0.00
   -9    2   11      0.55      0.00
   -8    2   11     -1.55      0.00
   -7    2   11     -0.60      0.00
   -6    2   11      1.31      0.00
   -5    2   11      2.77      0.00
   -4    2   11     -3.21      0.00
   -3    2   11      6.32      0.00
   -2    2   11     -5.89      0.00
   -1    2   11      1.10      0.00
    0    2   11     -3.80      0.00
    1    2   11     -1.35      0.00
    2    2   11      0.61      0.00
    3    2   11     -1.80      0.00
    4    2   11      1.01      0.00
    5    2   11     -2.02      0.00
    6    2   11      1.02      0.00
    7    2   11      1.02      0.00
    8    2   11      0.38      0.00
    9    2   11      0.66      0.00
   10    2   11      2.36      0.00
   11    2   11      0.10      0.00
   12    2   11      0.91      0.00
  -13    3   11      0.92      0.00
  -12    3   11     -2.52      0.00
  -11    3   11     -0.17      0.00
  -10    3   11      1.08      0.00
   -9    3   11     -2.63      0.00
   -8    3   11      5.47      0.00
   -7    3   11      1.26      0.00
   -6    3   11     -0.65      0.00
   -5    3   11      2.91      0.00
   -4    3   11      1.28      0.00
   -3    3   11      1.46      0.00
   -2    3   11     -2.29      0.00
   -1    3   11      0.13      0.00
    0    3   11      1.21      0.00
    1    3   11      0.80      0.00
    2    3   11     -1.69      0.00
    3    3   11      2.12      0.00
    4    3   11     -4.01      0.00
    5    3   11      1.89      0.00
    6    3   11     -4.14      0.00
    7    3   11      1.06      0.00
    8    3   11      3.06      0.00
    9    3   11     -5.09      0.00
   10    3   11      1.05      0.00
   11    3   11      1.17      0.00
  -12    4   11      3.44      0.00
  -11    4   11      1.11      0.00
  -10    4   11      0.48      0.00
   -9    4   11      2.61      0.00
   -8    4   11      1.74      0.00
   -7    4   11      0.00      0.00
   -6    4   11      1.89      0.00
   -5    4   11     -0.31      0.00
   -4    4   11     -3.86      0.00
   -3    4   11      2.05      0.00
   -2    4   11     -0.18      0.00
   -1    4   11     -3.90      0.00
    0    4   11      0.24      0.00
    1    4   11      1.41      0.00
    2    4   11      4.13      0.00
    3    4   11     -0.03      0.00
    4    4   11      0.59      0.00
    5    4   11      2.16      0.00
    6    4   11      1.93      0.00
    7    4   11      1.80      0.00
    8    4   11      2.19      0.00
    9    4   11     -1.06      0.00
   10    4   11      1.10      0.00
   11    4   11     -0.95      0.00
  -11    5   11     -1.37      0.00
  -10    5   11      2.01      0.00
   -9    5   11      2.52      0.00
   -8    5   11      1.50      0.00
   -7    5   11      2.52      0.00
   -6    5   11     -0.59      0.00
   -5    5   11      0.31      0.00
   -4    5   11      4.89      0.00
   -3    5   11     -1.41      0.00
   -2    5   11     -0.33      0.00
   -1    5   11     -2.85      0.00
    0    5   11      3.49      0.00
    1    5   11     -1.41      0.00
    2    5   11     -2.08      0.00
    3    5   11     -0.31      0.00
    4    5   11     -4.43      0.00
    5    5   11      0.56      0.00
    6    5   11     -0.98      0.00
    7    5   11      2.06      0.00
    8    5   11     -1.76      0.00
    9    5   11      1.14      0.00
   10    5   11      1.32      0.00
   11    5   11      0.77      0.00
  -11    6   11      0.87      0.00
  -10    6   11     -1.29      0.00
   -9    6   11      0.25      0.00
   -8    6   11      1.91      0.00
   -7    6   11     -0.39      0.00
   -6    6   11      3.20      0.00
   -5    6   11      0.81      0.00
   -4    6   11      1.41      0.00
   -3    6   11      1.89      0.00
   -2    6   11      3.19      0.00
   -1    6   11     -1.91      0.00
    0    6   11      2.72      0.00
    1    6   11      1.62      0.00
    2    6   11      0.51      0.00
    3    6   11      0.77      0.00
    4    6   11     -1.01      0.00
    5    6   11     -1.06      0.00
    6    6   11      1.08      0.00
    7    6   11      0.47      0.00
    8    6   11      2.18      0.00
    9    6   11     -0.89      0.00
   10    6   11      1.85      0.00
  -11    7   11      0.36      0.00
  -10    7   11      1.03      0.00
   -9    7   11     -0.24      0.00
   -8    7   11     -0.33      0.00
   -7    7   11      0.54      0.00
   -6    7   11     -2.65      0.00
   -5    7   11      3.01      0.00
   -4    7   11      6.19      0.00
   -3    7   11      0.14      0.00
   -2    7   11      0.51      0.00
   -1    7   11      0.83      0.00
    0    7   11     -0.83      0.00
    1    7   11      1.73      0.00
    2    7   11     -2.91      0.00
    3    7   11     -3.35      0.00
    4    7   11     -5.52      0.00
    5    7   11     -2.92      0.00
    6    7   11     -0.42      0.00
    7    7   11     -0.27      0.00
    8    7   11      0.01      0.00
    9    7   11      1.10      0.00
   10    7   11     -0.92      0.00
  -10    8   11      1.42      0.00
   -9    8   11     -0.18      0.00
   -8    8   11      0.24      0.00
   -7    8   11      0.56      0.00
   -6    8   11     -0.35      0.00
   -5    8   11      2.80      0.00
   -4    8   11     -1.59      0.00
   -3    8   11      1.30      0.00
   -2    8   11     -1.02      0.00
   -1    8   11      1.75      0.00
    0    8   11     -0.65      0.00
    1    8   11     -0.36      0.00
    2    8   11     -2.80      0.00
    3    8   11      0.75      0.00
    4    8   11      0.42      0.00
    5    8   11     -0.45      0.00
    6    8   11      0.16      0.00
    7    8   11      0.03      0.00
    8    8   11      0.86      0.00
    9    8   11     -0.95      0.00
   -9    9   11     -0.94      0.00
   -8    9   11     -1.26      0.00
   -7    9   11      1.20      0.00
   -6    9   11     -1.33      0.00
   -5    9   11      4.93      0.00
   -4    9   11      1.69      0.00
   -3    9   11      4.63      0.00
   -2    9   11     -1.17      0.00
   -1    9   11      1.05      0.00
    0    9   11      0.45      0.00
    1    9   11      0.79      0.00
    2    9   11     -0.11      0.00
    3    9   11     -2.55      0.00
    4    9   11     -2.90      0.00
    5    9   11     -3.82      0.00
    6    9   11     -1.55      0.00
    7    9   11     -0.06      0.00
    8    9   11      1.89      0.00
   -7   10   11     -0.61      0.00
   -6   10   11      1.44      0.00
   -5   10   11     -0.97      0.00
   -4   10   11     -0.94      0.00
   -3   10   11     -2.73      0.00
   -2   10   11      0.45      0.00
   -1   10   11     -0.81      0.00
    0   10   11     -0.52      0.00
    1   10   11     -0.30      0.00
    2   10   11     -3.10      0.00
    3   10   11      1.86      0.00
    4   10   11      0.42      0.00
    5   10   11      1.30      0.00
    6   10   11      0.85      0.00
   -5   11   11     -0.34      0.00
   -4   11   11      2.75      0.00
   -3   11   11     -0.66      0.00
   -2   11   11      0.51      0.00
   -1   11   11      0.49      0.00
    0   11   11     -2.56      0.00
    1   11   11      1.97      0.00
    2   11   11     -2.18      0.00
    4   11   11     -0.64      0.00
  -13    0   12      1.44      0.00
  -12    0   12      2.13      0.00
  -11    0   12     -2.85      0.00
  -10    0   12      1.22      0.00
   -9    0   12      1.08      0.00
   -8    0   12     -4.72      0.00
   -7    0   12      1.87      0.00
   -6    0   12     -2.92      0.00
   -5    0   12      3.59      0.00
   -4    0   12     -0.93      0.00
   -3    0   12      0.24      0.00
   -1    0   12      0.04      0.00
    0    0   12      0.22      0.00
    1    0   12     -5.37      0.00
    3    0   12      4.37      0.00
    4    0   12     -3.44      0.00
    5    0   12      8.37      0.00
    6    0   12     -2.27      0.00
    7    0   12     -3.55      0.00
    8    0   12     -8.51      0.00
    9    0   12      3.33      0.00
   10    0   12     -1.66      0.00
   11    0   12      1.94      0.00
  -13    1   12     -0.59      0.00
  -12    1   12      0.40      0.00
  -11    1   12     -0.77      0.00
  -10    1   12      0.53      0.00
   -9    1   12      0.76      0.00
   -8    1   12      0.77      0.00
   -7    1   12      0.02      0.00
   -6    1   12     -0.80      0.00
   -5    1   12     -1.81      0.00
   -4    1   12      0.45      0.00
   -3    1   12     -4.60      0.00
   -2    1   12      3.37      0.00
   -1    1   12     -2.56      0.00
    0    1   12      3.01      0.00
    1    1   12      1.53      0.00
    2    1   12     -0.35      0.00
    3    1   12      1.00      0.00
    4    1   12     -0.42      0.00
    5    1   12      2.29      0.00
    6    1   12      0.66      0.00
    7    1   12      1.38      0.00
    8    1   12      1.48      0.00
    9    1   12      1.08      0.00
   10    1   12     -1.93      0.00
   11    1   12      0.12      0.00
   12    1   12     -0.67      0.00
  -13    2   12     -0.87      0.00
  -12    2   12      2.17      0.00
  -11    2   12     -1.76      0.00
  -10    2   12     -0.91      0.00
   -9    2   12      1.89      0.00
   -8    2   12     -5.45      0.00
   -7    2   12     -0.40      0.00
   -6    2   12     -0.06      0.00
   -5    2   12      0.71      0.00
   -4    2   12      0.18      0.00
   -3    2   12     -0.91      0.00
   -2    2   12      5.37      0.00
    0    2   12     -0.25      0.00
    1    2   12     -3.58      0.00
    2    2   12      0.16      0.00
    3    2   12     -0.67      0.00
    4    2   12      1.24      0.00
    5    2   12      0.23      0.00
    6    2   12      0.79      0.00
    8    2   12     -8.32      0.00
    9    2   12      5.97      0.00
   10    2   12      0.17      0.00
   11    2   12      0.61      0.00
   12    2   12      0.00      0.00
  -12    3   12     -2.72      0.00
  -11    3   12     -2.34      0.00
  -10    3   12     -0.41      0.00
   -9    3   12     -2.49      0.00
   -8    3   12     -1.68      0.00
   -7    3   12      0.47      0.00
   -6    3   12     -1.68      0.00
   -5    3   12     -1.71      0.00
   -4    3   12      6.90      0.00
   -3    3   12     -4.07      0.00
   -2    3   12      3.35      0.00
   -1    3   12      2.73      0.00
    0    3   12      2.49      0.00
    1    3   12      1.13      0.00
    2    3   12     -1.52      0.00
    3    3   12     -0.41      0.00
    4    3   12      0.25      0.00
    5    3   12     -0.37      0.00
    6    3   12     -0.79      0.00
    7    3   12      0.06      0.00
    8    3   12      0.46      0.00
    9    3   12      0.85      0.00
   10    3   12     -1.88      0.00
   11    3   12     -0.33      0.00
  -12    4   12     -0.18      0.00
  -11    4   12      1.01      0.00
  -10    4   12     -1.35      0.00
   -9    4   12      1.11      0.00
   -8    4   12     -3.71      0.00
   -7    4   12     -1.74      0.00
   -6    4   12      1.39      0.00
   -5    4   12     -1.51      0.00
   -4    4   12     -2.70      0.00
   -3    4   12     -0.85      0.00
   -2    4   12     -0.51      0.00
   -1    4   12      2.11      0.00
    0    4   12     -3.66      0.00
    1    4   12     -1.90      0.00
    2    4   12      1.88      0.00
    3    4   12     -2.21      0.00
    4    4   12      4.56      0.00
    5    4   12     -1.43      0.00
    6    4   12      2.95      0.00
    7    4   12     -2.43      0.00
    8    4   12     -0.76      0.00
    9    4   12      1.91      0.00
   10    4   12     -0.63      0.00
   11    4   12     -0.36      0.00
  -12    5   12     -2.38      0.00
  -11    5   12     -1.98      0.00
  -10    5   12     -0.36      0.00
   -9    5   12     -0.96      0.00
   -8    5   12     -2.51      0.00
   -7    5   12      1.48      0.00
   -6    5   12     -2.25      0.00
   -5    5   12     -0.27      0.00
   -4    5   12      2.73      0.00
   -3    5   12      0.35      0.00
   -2    5   12     -1.61      0.00
   -1    5   12      3.89      0.00
    0    5   12     -0.64      0.00
    1    5   12     -1.39      0.00
    2    5   12     -1.28      0.00
    3    5   12      0.32      0.00
    4    5   12      1.67      0.00
    5    5   12     -0.27      0.00
    6    5   12     -0.70      0.00
    7    5   12     -0.38      0.00
    8    5   12     -1.44      0.00
    9    5   12      1.76      0.00
   10    5   12     -1.80      0.00
   11    5   12      1.76      0.00
  -11    6   12      1.03      0.00
  -10    6   12     -0.65      0.00
   -9    6   12     -0.20      0.00
   -8    6   12      0.94      0.00
   -7    6   12     -1.18      0.00
   -6    6   12      2.34      0.00
   -5    6   12      1.25      0.00
   -4    6   12     -6.35      0.00
   -3    6   12      1.29      0.00
   -2    6   12     -1.32      0.00
   -1    6   12      0.41      0.00
    0    6   12     -0.82      0.00
    1    6   12     -0.98      0.00
    2    6   12      1.70      0.00
    3    6   12      2.14      0.00
    4    6   12      4.38      0.00
    5    6   12      2.72      0.00
    6    6   12      0.86      0.00
    7    6   12     -1.04      0.00
    8    6   12      2.15      0.00
    9    6   12     -1.21      0.00
   10    6   12     -0.61      0.00
  -11    7   12     -0.12      0.00
  -10    7   12      0.75      0.00
   -9    7   12      1.40      0.00
   -8    7   12      0.41      0.00
   -7    7   12      0.60      0.00
   -6    7   12     -1.68      0.00
   -5    7   12     -3.09      0.00
   -4    7   12     -1.03      0.00
   -3    7   12     -2.10      0.00
   -2    7   12     -0.93      0.00
   -1    7   12     -0.91      0.00
    0    7   12     -1.35      0.00
    1    7   12     -0.90      0.00
    2    7   12      1.61      0.00
    3    7   12      0.40      0.00
    4    7   12      1.53      0.00
    5    7   12      2.76      0.00
    6    7   12      1.39      0.00
    7    7   12      0.92      0.00
    8    7   12     -0.05      0.00
    9    7   12      1.22      0.00
  -10    8   12     -0.01      0.00
   -9    8   12      1.52      0.00
   -8    8   12      1.38      0.00
   -7    8   12     -0.53      0.00
   -6    8   12      4.11      0.00
   -5    8   12     -1.88      0.00
   -4    8   12     -0.48      0.00
   -3    8   12     -1.26      0.00
   -2    8   12      2.06      0.00
   -1    8   12     -0.70      0.00
    0    8   12      0.41      0.00
    1    8   12     -0.91      0.00
    2    8   12      0.52      0.00
    3    8   12      1.66      0.00
    4    8   12      3.35      0.00
    5    8   12      2.72      0.00
    6    8   12      0.14      0.00
    7    8   12      0.10      0.00
    8    8   12     -1.37      0.00
   -9    9   12     -1.43      0.00
   -8    9   12     -1.16      0.00
   -7    9   12     -0.27      0.00
   -6    9   12     -0.84      0.00
   -5    9   12     -1.39      0.00
   -4    9   12      2.47      0.00
   -3    9   12      0.95      0.00
   -2    9   12     -0.28      0.00
   -1    9   12      0.14      0.00
    0    9   12      0.53      0.00
    1    9   12     -1.16      0.00
    2    9   12      3.70      0.00
    3    9   12     -1.96      0.00
    4    9   12     -0.14      0.00
    5    9   12      0.26      0.00
    6    9   12     -0.86      0.00
    7    9   12      0.11      0.00
   -7   10   12     -1.02      0.00
   -6   10   12      0.28      0.00
   -5   10   12     -1.25      0.00
   -4   10   12     -1.07      0.00
   -3   10   12     -0.87      0.00
   -2   10   12      1.01      0.00
   -1   10   12      0.24      0.00
    0   10   12      1.63      0.00
    1   10   12     -0.94      0.00
    2   10   12      1.85      0.00
    3   10   12      1.91      0.00
    4   10   12      1.53      0.00
    5   10   12      2.63      0.00
    6   10   12      1.09      0.00
   -5   11   12      2.05      0.00
   -4   11   12     -0.25      0.00
   -3   11   12      2.54      0.00
   -2   11   12     -0.28      0.00
   -1   11   12      0.00      0.00
    0   11   12      0.70      0.00
    1   11   12      0.29      0.00
    4   11   12      0.01      0.00
  -12    1   13     -1.47      0.00
  -11    1   13      2.67      0.00
  -10    1   13     -1.05      0.00
   -9    1   13     -1.63      0.00
   -8    1   13      3.82      0.00
   -7    1   13     -1.21      0.00
   -5    1   13     -3.98      0.00
   -4    1   13     -0.16      0.00
   -3    1   13     -1.06      0.00
   -2    1   13     -4.98      0.00
    0    1   13     -1.51      0.00
    1    1   13      3.70      0.00
    2    1   13      1.16      0.00
    3    1   13     -3.32      0.00
    4    1   13      3.60      0.00
    5    1   13     -4.65      0.00
    6    1   13      0.16      0.00
    7    1   13      0.56      0.00
    8    1   13      7.86      0.00
    9    1   13     -5.09      0.00
   10    1   13      0.13      0.00
   11    1   13     -1.50      0.00
  -12    2   13      1.02      0.00
  -11    2   13      2.23      0.00
  -10    2   13     -0.55      0.00
   -9    2   13      0.22      0.00
   -8    2   13      0.96      0.00
   -7    2   13     -0.83      0.00
   -6    2   13      0.79      0.00
   -5    2   13      1.46      0.00
   -4    2   13     -4.62      0.00
   -3    2   13      5.17      0.00
   -2    2   13     -3.61      0.00
   -1    2   13      0.68      0.00
    0    2   13     -2.94      0.00
    1    2   13     -2.36      0.00
    2    2   13      0.07      0.00
    3    2   13      0.46      0.00
    4    2   13     -0.42      0.00
    5    2   13     -2.26      0.00
    6    2   13     -0.30      0.00
    7    2   13     -2.25      0.00
    8    2   13     -2.29      0.00
    9    2   13     -1.64      0.00
   10    2   13      2.20      0.00
   11    2   13      0.55      0.00
  -12    3   13     -0.65      0.00
  -11    3   13      0.92      0.00
  -10    3   13      2.33      0.00
   -9    3   13     -2.25      0.00
   -8    3   13      5.28      0.00
   -7    3   13      0.87      0.00
   -6    3   13     -2.36      0.00
   -5    3   13     -0.95      0.00
   -4    3   13     -1.44      0.00
   -3    3   13     -0.35      0.00
   -2    3   13     -2.76      0.00
   -1    3   13     -1.83      0.00
    0    3   13      0.59      0.00
    1    3   13      4.27      0.00
    2    3   13     -2.38      0.00
    3    3   13      2.87      0.00
    4    3   13     -2.54      0.00
    5    3   13      3.09      0.00
    6    3   13     -1.29      0.00
    7    3   13      2.49      0.00
    8    3   13      5.94      0.00
    9    3   13     -4.03      0.00
   10    3   13     -1.16      0.00
   11    3   13     -0.86      0.00
  -12    4   13      3.23      0.00
  -11    4   13      1.53      0.00
  -10    4   13      1.13      0.00
   -9    4   13      0.92      0.00
   -8    4   13      2.51      0.00
   -7    4   13     -2.08      0.00
   -6    4   13      0.61      0.00
   -5    4   13      1.80      0.00
   -4    4   13     -7.56      0.00
   -3    4   13      0.95      0.00
   -2    4   13     -0.88      0.00
   -1    4   13     -3.10      0.00
    0    4   13     -1.30      0.00
    1    4   13     -0.05      0.00
    2    4   13      1.22      0.00
    3    4   13      0.29      0.00
    4    4   13     -1.77      0.00
    5    4   13      1.03      0.00
    6    4   13     -0.60      0.00
    7    4   13     -0.71      0.00
    8    4   13     -0.46      0.00
    9    4   13     -1.45      0.00
   10    4   13      2.85      0.00
   11    4   13     -0.24      0.00
  -12    5   13      1.56      0.00
  -11    5   13     -2.46      0.00
  -10    5   13     -0.59      0.00
   -9    5   13     -1.83      0.00
   -8    5   13     -1.11      0.00
   -7    5   13      0.89      0.00
   -6    5   13     -1.55      0.00
   -5    5   13     -1.01      0.00
   -4    5   13      5.27      0.00
   -3    5   13      1.19      0.00
   -2    5   13      3.59      0.00
   -1    5   13     -0.68      0.00
    0    5   13      3.51      0.00
    1    5   13      1.56      0.00
    2    5   13     -0.89      0.00
    3    5   13      0.10      0.00
    4    5   13     -4.30      0.00
    5    5   13     -2.12      0.00
    6    5   13     -2.92      0.00
    7    5   13      1.62      0.00
    8    5   13     -2.02      0.00
    9    5   13     -0.44      0.00
   10    5   13      0.63      0.00
  -11    6   13      1.15      0.00
  -10    6   13     -1.23      0.00
   -9    6   13     -1.60      0.00
   -8    6   13     -0.02      0.00
   -7    6   13     -3.57      0.00
   -6    6   13      1.03      0.00
   -5    6   13      1.03      0.00
   -4    6   13     -1.23      0.00
   -3    6   13     -1.16      0.00
   -2    6   13      0.81      0.00
   -1    6   13     -2.31      0.00
    0    6   13      1.43      0.00
    1    6   13      0.83      0.00
    2    6   13     -0.64      0.00
    3    6   13     -0.12      0.00
    4    6   13     -1.48      0.00
    5    6   13     -1.40      0.00
    6    6   13     -0.62      0.00
    7    6   13     -1.17      0.00
    8    6   13     -0.70      0.00
    9    6   13     -1.69      0.00
   10    6   13      1.00      0.00
  -10    7   13     -0.08      0.00
   -9    7   13     -2.13      0.00
   -8    7   13     -0.87      0.00
   -7    7   13      1.22      0.00
   -6    7   13     -3.20      0.00
   -5    7   13     -1.40      0.00
   -4    7   13      2.64      0.00
   -3    7   13     -1.35      0.00
   -2    7   13      0.36      0.00
   -1    7   13      1.84      0.00
    0    7   13     -0.84      0.00
    1    7   13      2.29      0.00
    2    7   13      0.12      0.00
    3    7   13     -0.29      0.00
    4    7   13     -1.79      0.00
    5    7   13     -2.69      0.00
    6    7   13     -0.28      0.00
    7    7   13      0.69      0.00
    8    7   13     -0.59      0.00
    9    7   13      0.14      0.00
  -10    8   13     -0.44      0.00
   -9    8   13     -0.94      0.00
   -8    8   13     -0.43      0.00
   -7    8   13      0.21      0.00
   -6    8   13      0.82      0.00
   -5    8   13      3.15      0.00
   -4    8   13     -0.68      0.00
   -3    8   13      0.41      0.00
   -2    8   13     -0.41      0.00
   -1    8   13      1.06      0.00
    0    8   13     -0.92      0.00
    1    8   13      2.06      0.00
    2    8   13     -2.93      0.00
    3    8   13      0.42      0.00
    4    8   13     -1.00      0.00
    5    8   13     -2.44      0.00
    6    8   13     -0.76      0.00
    7    8   13     -0.66      0.00
    8    8   13     -0.05      0.00
   -8    9   13     -1.33      0.00
   -7    9   13      1.92      0.00
   -6    9   13     -2.87      0.00
   -5    9   13      0.39      0.00
   -4    9   13     -2.43      0.00
   -3    9   13      0.84      0.00
   -2    9   13     -3.10      0.00
   -1    9   13      0.10      0.00
    0    9   13      0.48      0.00
    1    9   13      0.15      0.00
    2    9   13      0.32      0.00
    3    9   13     -0.57      0.00
    4    9   13     -0.55      0.00
    5    9   13     -1.51      0.00
    6    9   13      1.07      0.00
    7    9   13      1.33      0.00
   -7   10   13     -0.27      0.00
   -6   10   13      1.66      0.00
   -5   10   13     -0.58      0.00
   -4   10   13     -1.41      0.00
   -3   10   13     -1.29      0.00
   -2   10   13      1.49      0.00
   -1   10   13     -1.15      0.00
    0   10   13     -0.42      0.00
    1   10   13      0.36      0.00
    2   10   13     -3.04      0.00
    3   10   13      0.99      0.00
    4   10   13     -0.93      0.00
    5   10   13     -0.55      0.00
    6   10   13      1.25      0.00
   -5   11   13     -1.04      0.00
   -3   11   13     -1.61      0.00
   -2   11   13      0.36      0.00
   -1   11   13      0.43      0.00
    0   11   13     -2.41      0.00
    1   11   13      1.41      0.00
    4   11   13     -0.97      0.00
  -12    0   14      0.86      0.00
  -11    0   14     -3.03      0.00
  -10    0   14      3.07      0.00
   -9    0   14      2.80      0.00
   -8    0   14     -2.08      0.00
   -7    0   14      2.68      0.00
   -5    0   14      6.03      0.00
   -4    0   14      0.49      0.00
   -3    0   14      2.92      0.00
   -2    0   14      2.27      0.00
   -1    0   14      2.25      0.00
    0    0   14      2.34      0.00
    1    0   14     -1.57      0.00
    2    0   14     -2.11      0.00
    3    0   14      6.31      0.00
    4    0   14     -6.74      0.00
    5    0   14      5.88      0.00
    6    0   14      0.98      0.00
    7    0   14      1.72      0.00
    8    0   14     -4.74      0.00
    9    0   14      4.28      0.00
   10    0   14     -0.70      0.00
   11    0   14      0.79      0.00
  -12    1   14     -0.35      0.00
  -11    1   14     -1.68      0.00
  -10    1   14     -0.61      0.00
   -9    1   14      0.22      0.00
   -8    1   14     -1.35      0.00
   -7    1   14      0.02      0.00
   -6    1   14      0.02      0.00
   -5    1   14      0.46      0.00
   -4    1   14      1.71      0.00
   -3    1   14     -2.33      0.00
   -2    1   14      2.85      0.00
   -1    1   14     -1.72      0.00
    0    1   14      1.78      0.00
    1    1   14      1.79      0.00
    2    1   14     -0.03      0.00
    3    1   14      0.19      0.00
    4    1   14     -0.30      0.00
    5    1   14      1.31      0.00
    6    1   14     -0.76      0.00
    7    1   14      0.21      0.00
    8    1   14      0.69      0.00
    9    1   14      0.99      0.00
   10    1   14     -1.36      0.00
   11    1   14      0.35      0.00
  -12    2   14      0.84      0.00
  -11    2   14     -1.57      0.00
  -10    2   14     -0.83      0.00
   -9    2   14      1.84      0.00
   -8    2   14     -3.87      0.00
   -7    2   14     -0.11      0.00
   -6    2   14      1.02      0.00
   -5    2   14      4.31      0.00
   -4    2   14      3.11      0.00
   -3    2   14      1.53      0.00
   -2    2   14      4.35      0.00
   -1    2   14      1.33      0.00
    0    2   14      1.83      0.00
    1    2   14     -3.59      0.00
    2    2   14      1.32      0.00
    3    2   14     -0.29      0.00
    4    2   14     -1.56      0.00
    5    2   14     -2.21      0.00
    6    2   14     -0.02      0.00
    7    2   14      0.03      0.00
    8    2   14     -7.41      0.00
    9    2   14      4.26      0.00
   10    2   14      0.51      0.00
   11    2   14      0.61      0.00
  -12    3   14     -2.66      0.00
  -11    3   14     -1.40      0.00
  -10    3   14      0.02      0.00
   -9    3   14     -0.18      0.00
   -8    3   14     -1.85      0.00
   -7    3   14      1.99      0.00
   -6    3   14     -0.12      0.00
   -5    3   14     -3.42      0.00
   -4    3   14      7.09      0.00
   -3    3   14     -4.99      0.00
   -2    3   14      1.24      0.00
   -1    3   14     -0.25      0.00
    0    3   14      0.21      0.00
    1    3   14      0.71      0.00
    2    3   14     -0.66      0.00
    3    3   14     -1.38      0.00
    4    3   14      1.94      0.00
    5    3   14      0.91      0.00
    6    3   14      0.85      0.00
    7    3   14      2.03      0.00
    8    3   14      1.68      0.00
    9    3   14      0.97      0.00
   10    3   14     -2.79      0.00
   11    3   14     -1.02      0.00
  -12    4   14     -0.44      0.00
  -11    4   14      1.64      0.00
  -10    4   14     -0.34      0.00
   -9    4   14      3.03      0.00
   -8    4   14     -0.97      0.00
   -7    4   14      0.23      0.00
   -6    4   14      2.32      0.00
   -5    4   14      1.51      0.00
   -4    4   14     -0.47      0.00
   -3    4   14     -0.37      0.00
   -2    4   14     -2.43      0.00
   -1    4   14      1.69      0.00
    0    4   14     -2.18      0.00
    1    4   14     -3.39      0.00
    2    4   14      3.04      0.00
    3    4   14     -2.71      0.00
    4    4   14      2.50      0.00
    5    4   14     -1.91      0.00
    6    4   14      1.77      0.00
    7    4   14     -2.24      0.00
    8    4   14     -1.11      0.00
    9    4   14      1.97      0.00
   10    4   14      0.92      0.00
   11    4   14      0.69      0.00
  -11    5   14     -0.60      0.00
  -10    5   14     -0.10      0.00
   -9    5   14      1.92      0.00
   -8    5   14     -1.70      0.00
   -7    5   14      4.24      0.00
   -6    5   14      0.06      0.00
   -5    5   14     -2.91      0.00
   -4    5   14      4.09      0.00
   -3    5   14      0.77      0.00
   -2    5   14     -0.92      0.00
   -1    5   14      1.85      0.00
    0    5   14     -1.00      0.00
    1    5   14     -1.48      0.00
    2    5   14     -1.16      0.00
    3    5   14     -1.31      0.00
    4    5   14      0.68      0.00
    5    5   14     -0.86      0.00
    6    5   14      0.96      0.00
    7    5   14      1.80      0.00
    8    5   14      1.58      0.00
    9    5   14      1.59      0.00
   10    5   14     -2.71      0.00
  -11    6   14      2.68      0.00
  -10    6   14      1.04      0.00
   -9    6   14      3.76      0.00
   -8    6   14      2.58      0.00
   -7    6   14     -1.34      0.00
   -6    6   14      0.88      0.00
   -5    6   14      1.75      0.00
   -4    6   14     -5.22      0.00
   -3    6   14      0.22      0.00
   -2    6   14     -3.49      0.00
   -1    6   14     -2.90      0.00
    0    6   14     -0.62      0.00
    1    6   14     -1.85      0.00
    2    6   14     -0.86      0.00
    3    6   14      0.27      0.00
    4    6   14      1.16      0.00
    5    6   14      3.73      0.00
    6    6   14      2.37      0.00
    7    6   14     -0.80      0.00
    8    6   14      2.35      0.00
    9    6   14      0.91      0.00
   10    6   14     -0.52      0.00
  -10    7   14      0.62      0.00
   -9    7   14      1.26      0.00
   -8    7   14      0.81      0.00
   -7    7   14      1.72      0.00
   -6    7   14     -0.29      0.00
   -5    7   14     -1.38      0.00
   -4    7   14      0.58      0.00
   -3    7   14      1.52      0.00
   -2    7   14      1.51      0.00
   -1    7   14      0.20      0.00
    0    7   14     -0.32      0.00
    1    7   14     -1.92      0.00
    2    7   14      0.58      0.00
    3    7   14     -0.94      0.00
    4    7   14     -0.35      0.00
    5    7   14      0.67      0.00
    6    7   14     -0.29      0.00
    7    7   14     -0.12      0.00
    8    7   14      0.73      0.00
    9    7   14      0.88      0.00
   -9    8   14      0.63      0.00
   -8    8   14      0.14      0.00
   -7    8   14     -3.28      0.00
   -6    8   14      1.53      0.00
   -5    8   14      0.15      0.00
   -4    8   14      1.58      0.00
   -3    8   14      0.10      0.00
   -2    8   14      1.85      0.00
   -1    8   14     -1.70      0.00
    0    8   14     -0.88      0.00
    1    8   14     -0.68      0.00
    2    8   14     -1.05      0.00
    3    8   14     -0.74      0.00
    4    8   14      0.07      0.00
    5    8   14      1.52      0.00
    6    8   14     -0.89      0.00
    7    8   14     -1.03      0.00
    8    8   14     -1.36      0.00
   -8    9   14     -0.54      0.00
   -7    9   14      0.41      0.00
   -6    9   14     -1.54      0.00
   -5    9   14     -2.32      0.00
   -4    9   14      1.11      0.00
   -3    9   14     -0.36      0.00
   -2    9   14     -1.41      0.00
   -1    9   14      0.30      0.00
    0    9   14      1.55      0.00
    1    9   14     -1.82      0.00
    2    9   14      3.83      0.00
    3    9   14     -0.88      0.00
    4    9   14      1.80      0.00
    5    9   14      2.52      0.00
    6    9   14     -0.48      0.00
    7    9   14      0.41      0.00
   -6   10   14      1.47      0.00
   -5   10   14      0.79      0.00
   -4   10   14      0.68      0.00
   -3   10   14      0.61      0.00
   -2   10   14      0.76      0.00
   -1   10   14     -0.83      0.00
    0   10   14     -0.13      0.00
    1   10   14     -1.66      0.00
    2   10   14      1.05      0.00
    3   10   14     -0.20      0.00
    4   10   14     -0.48      0.00
    5   10   14      0.10      0.00
   -3   11   14      0.75      0.00
   -2   11   14     -1.78      0.00
   -1   11   14      0.03      0.00
    0   11   14      0.05      0.00
  -12    1   15      0.04      0.00
  -11    1   15      2.61      0.00
  -10    1   15     -1.92      0.00
   -9    1   15     -1.93      0.00
   -8    1   15      2.08      0.00
   -7    1   15     -1.05      0.00
   -6    1   15      0.68      0.00
   -5    1   15     -5.91      0.00
   -4    1   15     -2.04      0.00
   -3    1   15     -2.64      0.00
   -2    1   15     -0.99      0.00
   -1    1   15     -0.76      0.00
    0    1   15     -1.15      0.00
    1    1   15      1.27      0.00
    2    1   15      1.34      0.00
    4    1   15      5.58      0.00
    5    1   15     -0.61      0.00
    6    1   15      0.43      0.00
    7    1   15     -2.09      0.00
    8    1   15      4.79      0.00
    9    1   15     -2.91      0.00
   10    1   15      1.23      0.00
   11    1   15      0.61      0.00
  -12    2   15      1.07      0.00
  -11    2   15      2.00      0.00
  -10    2   15      0.74      0.00
   -9    2   15      0.61      0.00
   -8    2   15      2.89      0.00
   -7    2   15     -0.20      0.00
   -6    2   15      0.38      0.00
   -5    2   15      1.54      0.00
   -4    2   15     -3.77      0.00
   -3    2   15      4.85      0.00
   -2    2   15     -2.36      0.00
   -1    2   15      2.27      0.00
    0    2   15      0.51      0.00
    1    2   15     -1.10      0.00
    2    2   15      0.22      0.00
    3    2   15      0.60      0.00
    4    2   15     -0.56      0.00
    5    2   15     -1.55      0.00
    6    2   15      1.61      0.00
    7    2   15     -0.01      0.00
    8    2   15     -0.48      0.00
    9    2   15     -0.59      0.00
   10    2   15      1.37      0.00
   11    2   15     -0.25      0.00
  -12    3   15     -0.86      0.00
  -11    3   15     -0.73      0.00
  -10    3   15      0.62      0.00
   -9    3   15     -2.53      0.00
   -8    3   15      2.26      0.00
   -7    3   15     -0.14      0.00
   -6    3   15     -1.16      0.00
   -5    3   15     -1.98      0.00
   -4    3   15     -2.22      0.00
   -3    3   15      0.07      0.00
   -2    3   15      0.79      0.00
   -1    3   15     -0.50      0.00
    0    3   15      0.01      0.00
    1    3   15      5.16      0.00
    2    3   15     -4.08      0.00
    3    3   15      3.47      0.00
    4    3   15      0.64      0.00
    5    3   15      5.17      0.00
    6    3   15      0.08      0.00
    7    3   15      0.20      0.00
    8    3   15      3.18      0.00
    9    3   15     -2.31      0.00
   10    3   15     -0.85      0.00
   11    3   15     -0.02      0.00
  -12    4   15      1.86      0.00
  -11    4   15     -0.75      0.00
  -10    4   15      0.30      0.00
   -9    4   15     -2.49      0.00
   -8    4   15      1.74      0.00
   -7    4   15     -3.37      0.00
   -6    4   15     -0.92      0.00
   -5    4   15      6.58      0.00
   -4    4   15     -4.58      0.00
   -3    4   15      3.77      0.00
   -2    4   15      1.22      0.00
   -1    4   15      1.01      0.00
    0    4   15      1.67      0.00
    1    4   15      1.85      0.00
    2    4   15      1.85      0.00
    3    4   15      1.84      0.00
    4    4   15     -1.87      0.00
    5    4   15      0.02      0.00
    6    4   15     -2.55      0.00
    7    4   15     -2.86      0.00
    8    4   15     -2.70      0.00
    9    4   15     -1.33      0.00
   10    4   15      2.88      0.00
  -11    5   15     -3.21      0.00
  -10    5   15     -0.40      0.00
   -9    5   15     -3.44      0.00
   -8    5   15     -2.87      0.00
   -7    5   15      0.13      0.00
   -6    5   15     -0.60      0.00
   -5    5   15     -1.94      0.00
   -4    5   15      3.00      0.00
   -3    5   15     -0.30      0.00
   -2    5   15      3.60      0.00
   -1    5   15      1.50      0.00
    0    5   15      1.38      0.00
    1    5   15      1.22      0.00
    2    5   15     -0.61      0.00
    3    5   15      1.18      0.00
    4    5   15      0.38      0.00
    5    5   15     -0.02      0.00
    6    5   15     -1.56      0.00
    7    5   15      1.49      0.00
    8    5   15     -1.61      0.00
    9    5   15     -2.19      0.00
   10    5   15     -0.42      0.00
  -11    6   15      0.92      0.00
  -10    6   15      0.23      0.00
   -9    6   15     -1.04      0.00
   -8    6   15      1.77      0.00
   -7    6   15     -2.59      0.00
   -6    6   15      0.72      0.00
   -5    6   15      2.68      0.00
   -4    6   15     -0.86      0.00
   -3    6   15     -1.67      0.00
   -2    6   15     -0.55      0.00
   -1    6   15     -1.15      0.00
    0    6   15      2.18      0.00
    1    6   15      2.12      0.00
    2    6   15      1.65      0.00
    3    6   15      2.32      0.00
    4    6   15      1.11      0.00
    5    6   15      1.01      0.00
    6    6   15      0.64      0.00
    7    6   15     -0.69      0.00
    8    6   15     -1.65      0.00
    9    6   15     -0.72      0.00
  -10    7   15      0.25      0.00
   -9    7   15     -2.97      0.00
   -8    7   15     -0.93      0.00
   -7    7   15      2.93      0.00
   -6    7   15      1.05      0.00
   -5    7   15      0.12      0.00
   -4    7   15      2.25      0.00
   -3    7   15     -1.02      0.00
   -2    7   15      0.83      0.00
   -1    7   15      3.32      0.00
    0    7   15      0.03      0.00
    1    7   15      0.62      0.00
    2    7   15      0.52      0.00
    3    7   15     -0.57      0.00
    4    7   15     -0.07      0.00
    5    7   15     -3.80      0.00
    6    7   15     -1.43      0.00
    7    7   15      0.52      0.00
    8    7   15     -0.57      0.00
    9    7   15     -1.31      0.00
   -9    8   15     -0.01      0.00
   -8    8   15     -0.17      0.00
   -7    8   15     -0.47      0.00
   -6    8   15      0.31      0.00
   -5    8   15      1.72      0.00
   -4    8   15     -0.20      0.00
   -3    8   15     -0.39      0.00
   -2    8   15     -0.64      0.00
   -1    8   15      1.22      0.00
    0    8   15     -1.72      0.00
    1    8   15      3.03      0.00
    2    8   15     -1.93      0.00
    3    8   15      1.23      0.00
    4    8   15     -0.13      0.00
    5    8   15     -0.95      0.00
    6    8   15      1.16      0.00
    7    8   15      1.04      0.00
    8    8   15      0.16      0.00
   -8    9   15     -0.57      0.00
   -7    9   15      2.98      0.00
   -6    9   15     -0.72      0.00
   -5    9   15      0.52      0.00
   -4    9   15     -1.79      0.00
   -3    9   15      1.00      0.00
   -2    9   15     -1.88      0.00
   -1    9   15      1.19      0.00
    0    9   15      1.86      0.00
    1    9   15     -0.12      0.00
    2    9   15     -0.14      0.00
    3    9   15      0.05      0.00
    4    9   15      0.35      0.00
    5    9   15     -0.84      0.00
    6    9   15      1.03      0.00
    7    9   15      0.64      0.00
   -6   10   15      0.97      0.00
   -5   10   15      0.98      0.00
   -4   10   15     -0.22      0.00
   -3   10   15      1.19      0.00
   -2   10   15      3.16      0.00
   -1   10   15     -0.48      0.00
    0   10   15     -0.54      0.00
    1   10   15      0.01      0.00
    2   10   15     -1.72      0.00
    3   10   15      1.18      0.00
    4   10   15     -1.00      0.00
    5   10   15     -1.64      0.00
   -3   11   15     -1.47      0.00
   -2   11   15      0.61      0.00
   -1   11   15      1.71      0.00
  -12    0   16     -0.70      0.00
  -11    0   16     -4.09      0.00
  -10    0   16      1.62      0.00
   -9    0   16      0.72      0.00
   -8    0   16     -3.53      0.00
   -7    0   16     -0.43      0.00
   -6    0   16     -2.36      0.00
   -5    0   16      4.69      0.00
   -4    0   16      0.55      0.00
   -3    0   16      3.77      0.00
   -2    0   16     -2.49      0.00
   -1    0   16      0.59      0.00
    0    0   16     -1.36      0.00
    1    0   16      0.62      0.00
    2    0   16     -2.72      0.00
    3    0   16      8.16      0.00
    4    0   16     -5.89      0.00
    5    0   16      0.87      0.00
    6    0   16     -2.34      0.00
    7    0   16      1.03      0.00
    8    0   16     -3.02      0.00
    9    0   16      1.28      0.00
   10    0   16     -1.46      0.00
   11    0   16     -0.85      0.00
  -12    1   16      0.56      0.00
  -11    1   16     -0.70      0.00
  -10    1   16     -1.18      0.00
   -9    1   16     -0.22      0.00
   -8    1   16     -2.74      0.00
   -7    1   16     -1.18      0.00
   -6    1   16     -0.95      0.00
   -5    1   16     -0.03      0.00
   -4    1   16      0.10      0.00
   -3    1   16     -2.47      0.00
   -2    1   16      1.88      0.00
   -1    1   16     -1.97      0.00
    0    1   16     -0.41      0.00
    1    1   16      0.82      0.00
    2    1   16     -0.32      0.00
    3    1   16      0.52      0.00
    4    1   16     -0.79      0.00
    5    1   16      0.86      0.00
    6    1   16     -1.74      0.00
    7    1   16     -1.08      0.00
    8    1   16      0.21      0.00
    9    1   16      0.63      0.00
   10    1   16     -0.11      0.00
   11    1   16      1.25      0.00
  -12    2   16     -0.04      0.00
  -11    2   16     -0.57      0.00
  -10    2   16      0.66      0.00
   -9    2   16      1.35      0.00
   -8    2   16     -1.48      0.00
   -7    2   16     -0.27      0.00
   -6    2   16     -1.13      0.00
   -5    2   16      2.22      0.00
   -4    2   16      1.48      0.00
   -3    2   16     -0.24      0.00
   -2    2   16     -1.02      0.00
   -1    2   16     -1.34      0.00
    0    2   16     -0.16      0.00
    1    2   16     -4.31      0.00
    2    2   16      1.79      0.00
    3    2   16      0.27      0.00
    4    2   16     -2.32      0.00
    5    2   16     -3.87      0.00
    6    2   16     -0.78      0.00
    7    2   16      2.41      0.00
    8    2   16     -2.49      0.00
    9    2   16      2.11      0.00
   10    2   16     -0.47      0.00
   11    2   16     -1.04      0.00
  -12    3   16     -1.34      0.00
  -11    3   16      0.49      0.00
  -10    3   16     -0.08      0.00
   -9    3   16      0.94      0.00
   -8    3   16     -1.75      0.00
   -7    3   16      1.58      0.00
   -6    3   16      1.17      0.00
   -5    3   16     -5.53      0.00
   -4    3   16      4.03      0.00
   -3    3   16     -5.78      0.00
   -2    3   16      1.01      0.00
   -1    3   16     -1.75      0.00
    0    3   16     -2.03      0.00
    1    3   16     -0.31      0.00
    2    3   16     -0.85      0.00
    3    3   16     -1.04      0.00
    4    3   16      1.88      0.00
    5    3   16      1.23      0.00
    6    3   16      0.57      0.00
    7    3   16      1.74      0.00
    8    3   16      2.26      0.00
    9    3   16      1.14      0.00
   10    3   16     -0.61      0.00
   11    3   16      0.49      0.00
  -11    4   16      1.97      0.00
  -10    4   16     -0.40      0.00
   -9    4   16      1.69      0.00
   -8    4   16      0.85      0.00
   -7    4   16      0.71      0.00
   -6    4   16     -0.34      0.00
   -5    4   16      0.61      0.00
   -4    4   16     -0.58      0.00
   -3    4   16     -0.05      0.00
   -2    4   16     -3.30      0.00
   -1    4   16     -0.53      0.00
    0    4   16     -0.82      0.00
    1    4   16     -3.56      0.00
    2    4   16      3.39      0.00
    3    4   16     -3.46      0.00
    4    4   16     -1.99      0.00
    5    4   16     -4.51      0.00
    6    4   16     -0.14      0.00
    7    4   16     -0.39      0.00
    8    4   16      0.85      0.00
    9    4   16      2.15      0.00
   10    4   16      1.16      0.00
  -11    5   16      0.17      0.00
  -10    5   16     -0.85      0.00
   -9    5   16      3.25      0.00
   -8    5   16     -2.63      0.00
   -7    5   16      3.08      0.00
   -6    5   16      0.73      0.00
   -5    5   16     -6.35      0.00
   -4    5   16      1.62      0.00
   -3    5   16     -0.31      0.00
   -2    5   16     -0.15      0.00
   -1    5   16      0.62      0.00
    0    5   16     -1.99      0.00
    1    5   16     -2.46      0.00
    2    5   16     -2.00      0.00
    3    5   16     -1.76      0.00
    4    5   16      1.42      0.00
    5    5   16      0.34      0.00
    6    5   16      2.09      0.00
    7    5   16      2.72      0.00
    8    5   16      3.06      0.00
    9    5   16      1.09      0.00
   10    5   16     -1.67      0.00
  -10    6   16     -1.73      0.00
   -9    6   16      2.97      0.00
   -8    6   16      2.52      0.00
   -7    6   16     -1.72      0.00
   -6    6   16     -1.25      0.00
   -5    6   16      0.65      0.00
   -4    6   16     -3.32      0.00
   -3    6   16      2.13      0.00
   -2    6   16     -1.04      0.00
   -1    6   16     -3.57      0.00
    0    6   16      0.14      0.00
    1    6   16      0.75      0.00
    2    6   16     -0.33      0.00
    3    6   16      1.58      0.00
    4    6   16     -1.75      0.00
    5    6   16      2.12      0.00
    6    6   16      0.87      0.00
    7    6   16     -1.25      0.00
    8    6   16      0.91      0.00
    9    6   16      2.66      0.00
  -10    7   16     -1.05      0.00
   -9    7   16     -0.08      0.00
   -8    7   16     -0.98      0.00
   -7    7   16      0.06      0.00
   -6    7   16     -1.01      0.00
   -5    7   16     -1.55      0.00
   -4    7   16     -1.08      0.00
   -3    7   16      0.90      0.00
   -2    7   16      1.78      0.00
   -1    7   16     -0.60      0.00
    0    7   16     -0.15      0.00
    1    7   16     -2.20      0.00
    2    7   16     -0.30      0.00
    3    7   16     -1.03      0.00
    4    7   16     -0.29      0.00
    5    7   16     -0.01      0.00
    6    7   16     -1.05      0.00
    7    7   16     -0.94      0.00
    8    7   16      1.04      0.00
   -9    8   16      1.08      0.00
   -8    8   16      1.27      0.00
   -7    8   16     -2.50      0.00
   -6    8   16     -1.58      0.00
   -5    8   16     -1.78      0.00
   -4    8   16     -0.07      0.00
   -3    8   16     -0.81      0.00
   -2    8   16      1.25      0.00
   -1    8   16     -1.19      0.00
    0    8   16     -1.52      0.00
    1    8   16      1.58      0.00
    2    8   16      0.94      0.00
    3    8   16      1.30      0.00
    4    8   16      0.72      0.00
    5    8   16      2.81      0.00
    6    8   16      0.80      0.00
    7    8   16      0.08      0.00
   -7    9   16      1.86      0.00
   -6    9   16      0.20      0.00
   -5    9   16     -1.33      0.00
   -4    9   16      0.57      0.00
   -3    9   16     -1.48      0.00
   -2    9   16     -2.30      0.00
   -1    9   16     -1.20      0.00
    0    9   16      1.44      0.00
    1    9   16     -1.92      0.00
    2    9   16      1.83      0.00
    3    9   16     -2.05      0.00
    4    9   16     -0.08      0.00
    5    9   16      0.74      0.00
    6    9   16     -1.69      0.00
   -6   10   16      0.70      0.00
   -5   10   16      0.11      0.00
   -4   10   16     -0.49      0.00
   -3   10   16     -0.25      0.00
   -2   10   16      0.63      0.00
   -1   10   16     -0.83      0.00
    0   10   16     -0.32      0.00
    1   10   16     -1.24      0.00
    2   10   16      1.16      0.00
    3   10   16     -0.81      0.00
    5   10   16     -0.68      0.00
   -4   11   16     -1.00      0.00
   -3   11   16     -0.61      0.00
   -2   11   16     -2.64      0.00
   -1   11   16      0.25      0.00
  -12    1   17      0.54      0.00
  -11    1   17      2.38      0.00
  -10    1   17     -0.91      0.00
   -9    1   17      0.17      0.00
   -8    1   17      3.05      0.00
   -7    1   17      1.88      0.00
   -6    1   17      3.31      0.00
   -5    1   17     -1.48      0.00
   -4    1   17      0.62      0.00
   -3    1   17     -2.17      0.00
   -1    1   17     -0.12      0.00
    0    1   17      1.78      0.00
    1    1   17      0.46      0.00
    2    1   17      0.88      0.00
    3    1   17     -6.93      0.00
    4    1   17      1.60      0.00
    5    1   17      0.27      0.00
    6    1   17      2.46      0.00
    7    1   17     -1.60      0.00
    8    1   17      0.99      0.00
    9    1   17     -1.67      0.00
   10    1   17      0.01      0.00
   11    1   17      0.26      0.00
  -12    2   17     -0.90      0.00
  -11    2   17     -0.52      0.00
  -10    2   17     -0.05      0.00
   -9    2   17     -0.52      0.00
   -8    2   17      1.60      0.00
   -7    2   17     -0.15      0.00
   -6    2   17     -0.22      0.00
   -5    2   17      1.81      0.00
   -4    2   17     -1.12      0.00
   -2    2   17     -2.34      0.00
   -1    2   17      1.60      0.00
    0    2   17      1.66      0.00
    1    2   17     -0.81      0.00
    2    2   17      0.79      0.00
    4    2   17      0.94      0.00
    5    2   17     -1.35      0.00
    6    2   17      1.56      0.00
    7    2   17     -0.31      0.00
    8    2   17     -1.97      0.00
    9    2   17     -1.16      0.00
   10    2   17     -0.83      0.00
   11    2   17     -1.54      0.00
  -11    3   17     -0.26      0.00
  -10    3   17     -0.35      0.00
   -9    3   17     -0.53      0.00
   -8    3   17     -0.56      0.00
   -7    3   17     -1.54      0.00
   -6    3   17      1.26      0.00
   -5    3   17      0.38      0.00
   -4    3   17     -0.61      0.00
   -3    3   17      0.59      0.00
   -2    3   17      1.76      0.00
   -1    3   17      0.26      0.00
    0    3   17     -0.55      0.00
    1    3   17      5.64      0.00
    2    3   17     -4.37      0.00
    3    3   17      2.34      0.00
    4    3   17      0.88      0.00
    5    3   17      4.12      0.00
    6    3   17      0.11      0.00
    7    3   17     -2.09      0.00
    8    3   17     -1.33      0.00
    9    3   17     -1.62      0.00
   10    3   17     -0.99      0.00
  -11    4   17     -1.35      0.00
  -10    4   17      1.12      0.00
   -9    4   17     -3.30      0.00
   -8    4   17      1.51      0.00
   -7    4   17     -2.43      0.00
   -6    4   17     -3.42      0.00
   -5    4   17      6.58      0.00
   -4    4   17     -3.36      0.00
   -3    4   17      1.73      0.00
   -2    4   17     -1.53      0.00
   -1    4   17     -0.31      0.00
    0    4   17      0.96      0.00
    1    4   17      1.37      0.00
    2    4   17      1.01      0.00
    3    4   17      0.67      0.00
    4    4   17     -2.88      0.00
    5    4   17     -0.93      0.00
    6    4   17     -2.21      0.00
    7    4   17     -2.21      0.00
    8    4   17     -3.37      0.00
    9    4   17     -1.16      0.00
   10    4   17      0.37      0.00
  -11    5   17     -1.34      0.00
  -10    5   17      2.77      0.00
   -9    5   17     -0.18      0.00
   -8    5   17     -2.32      0.00
   -7    5   17      0.85      0.00
   -6    5   17      1.68      0.00
   -5    5   17     -0.11      0.00
   -4    5   17      3.10      0.00
   -3    5   17     -1.47      0.00
   -2    5   17      0.88      0.00
   -1    5   17      2.63      0.00
    0    5   17      0.21      0.00
    1    5   17     -0.37      0.00
    2    5   17     -0.87      0.00
    3    5   17     -0.73      0.00
    4    5   17      2.49      0.00
    5    5   17      1.57      0.00
    6    5   17      0.43      0.00
    7    5   17      0.90      0.00
    8    5   17     -0.56      0.00
    9    5   17     -2.95      0.00
  -10    6   17      0.21      0.00
   -9    6   17     -2.71      0.00
   -8    6   17      1.43      0.00
   -7    6   17     -1.41      0.00
   -6    6   17      0.53      0.00
   -5    6   17      3.43      0.00
   -4    6   17      0.46      0.00
   -3    6   17     -1.07      0.00
   -2    6   17     -2.15      0.00
   -1    6   17     -1.51      0.00
    0    6   17      1.20      0.00
    1    6   17      1.17      0.00
    2    6   17      0.93      0.00
    3    6   17      0.08      0.00
    4    6   17     -2.22      0.00
    5    6   17     -1.76      0.00
    6    6   17     -0.91      0.00
    7    6   17     -1.33      0.00
    8    6   17     -2.32      0.00
    9    6   17     -0.38      0.00
  -10    7   17      1.59      0.00
   -9    7   17     -2.34      0.00
   -8    7   17     -1.98      0.00
   -7    7   17      0.94      0.00
   -6    7   17      1.81      0.00
   -5    7   17      1.45      0.00
   -4    7   17      2.24      0.00
   -3    7   17     -0.91      0.00
   -2    7   17     -0.24      0.00
   -1    7   17      1.85      0.00
    0    7   17      0.97      0.00
    1    7   17     -2.29      0.00
    2    7   17     -0.83      0.00
    3    7   17     -2.74      0.00
    4    7   17      0.95      0.00
    5    7   17     -2.43      0.00
    6    7   17     -0.17      0.00
    7    7   17      1.01      0.00
    8    7   17      0.11      0.00
   -9    8   17     -0.76      0.00
   -8    8   17     -0.22      0.00
   -7    8   17     -0.62      0.00
   -6    8   17     -0.07      0.00
   -5    8   17      0.68      0.00
   -4    8   17      1.07      0.00
   -3    8   17      0.95      0.00
   -2    8   17      0.00      0.00
   -1    8   17      2.23      0.00
    0    8   17     -1.94      0.00
    1    8   17      2.19      0.00
    2    8   17     -1.08      0.00
    3    8   17      1.23      0.00
    4    8   17      0.31      0.00
    5    8   17      0.17      0.00
    6    8   17      1.35      0.00
    7    8   17      1.30      0.00
   -7    9   17      1.57      0.00
   -6    9   17      0.70      0.00
   -5    9   17      1.89      0.00
   -4    9   17      0.36      0.00
   -3    9   17      2.13      0.00
   -2    9   17     -1.72      0.00
   -1    9   17     -0.35      0.00
    0    9   17      0.96      0.00
    1    9   17     -1.20      0.00
    2    9   17     -1.18      0.00
    3    9   17     -0.33      0.00
    4    9   17      0.32      0.00
    5    9   17     -0.51      0.00
    6    9   17      0.17      0.00
   -5   10   17      0.50      0.00
   -4   10   17     -0.79      0.00
   -3   10   17      1.57      0.00
   -2   10   17      3.15      0.00
   -1   10   17      0.54      0.00
    0   10   17     -0.04      0.00
    1   10   17     -0.30      0.00
    2   10   17      0.21      0.00
   -3   11   17     -0.55      0.00
   -2   11   17     -0.57      0.00
   -1   11   17      0.33      0.00
  -12    0   18      1.12      0.00
  -11    0   18     -1.62      0.00
  -10    0   18      1.21      0.00
   -9    0   18      0.43      0.00
   -8    0   18     -3.82      0.00
   -7    0   18     -2.68      0.00
   -6    0   18     -3.96      0.00
   -5    0   18     -0.45      0.00
   -4    0   18     -3.20      0.00
   -3    0   18      3.72      0.00
   -2    0   18     -3.13      0.00
   -1    0   18      2.97      0.00
    0    0   18     -2.53      0.00
    1    0   18      2.23      0.00
    2    0   18     -1.96      0.00
    3    0   18      9.69      0.00
    4    0   18      0.46      0.00
    5    0   18      2.25      0.00
    6    0   18     -3.35      0.00
    7    0   18      0.61      0.00
    8    0   18      1.01      0.00
    9    0   18      1.95      0.00
   10    0   18      1.85      0.00
  -12    1   18      1.08      0.00
  -11    1   18      0.59      0.00
  -10    1   18     -0.28      0.00
   -9    1   18      1.56      0.00
   -8    1   18      0.01      0.00
   -7    1   18      0.79      0.00
   -6    1   18      0.43      0.00
   -5    1   18      1.08      0.00
   -4    1   18     -0.55      0.00
   -3    1   18     -2.15      0.00
   -2    1   18      1.48      0.00
   -1    1   18     -0.82      0.00
    0    1   18     -0.92      0.00
    1    1   18      0.35      0.00
    2    1   18     -1.52      0.00
    3    1   18     -0.11      0.00
    4    1   18     -2.85      0.00
    5    1   18      0.67      0.00
    6    1   18     -1.00      0.00
    7    1   18     -0.14      0.00
    8    1   18      1.65      0.00
    9    1   18      0.64      0.00
   10    1   18      0.17      0.00
  -11    2   18     -0.59      0.00
  -10    2   18      1.03      0.00
   -9    2   18     -0.50      0.00
   -8    2   18      0.12      0.00
   -7    2   18      0.55      0.00
   -6    2   18     -1.99      0.00
   -5    2   18     -0.51      0.00
   -4    2   18      0.20      0.00
   -3    2   18      0.76      0.00
   -2    2   18      0.29      0.00
    0    2   18      1.27      0.00
    1    2   18     -3.43      0.00
    2    2   18      2.63      0.00
    3    2   18      2.83      0.00
    4    2   18      1.77      0.00
    5    2   18     -0.56      0.00
    6    2   18     -0.78      0.00
    7    2   18      1.99      0.00
    8    2   18      1.42      0.00
    9    2   18      1.61      0.00
   10    2   18      1.29      0.00
  -11    3   18      0.91      0.00
  -10    3   18     -0.56      0.00
   -9    3   18      1.16      0.00
   -8    3   18      0.09      0.00
   -7    3   18      1.17      0.00
   -6    3   18      3.40      0.00
   -5    3   18     -3.44      0.00
   -4    3   18      2.63      0.00
   -3    3   18     -3.57      0.00
   -2    3   18      2.40      0.00
   -1    3   18     -0.47      0.00
    0    3   18     -1.78      0.00
    1    3   18     -0.04      0.00
    2    3   18     -1.29      0.00
    4    3   18      0.09      0.00
    5    3   18      0.38      0.00
    6    3   18     -0.51      0.00
    7    3   18      0.84      0.00
    8    3   18      2.89      0.00
    9    3   18      0.68      0.00
   10    3   18      0.87      0.00
  -11    4   18     -0.07      0.00
  -10    4   18     -0.85      0.00
   -9    4   18     -1.30      0.00
   -8    4   18      2.19      0.00
   -7    4   18      1.67      0.00
   -6    4   18     -1.92      0.00
   -5    4   18     -0.83      0.00
   -4    4   18     -1.33      0.00
   -3    4   18      0.81      0.00
   -2    4   18      0.10      0.00
   -1    4   18      0.09      0.00
    0    4   18      1.11      0.00
    1    4   18     -2.57      0.00
    2    4   18      3.18      0.00
    3    4   18     -0.07      0.00
    4    4   18     -0.05      0.00
    5    4   18     -1.53      0.00
    6    4   18      0.31      0.00
    7    4   18      0.85      0.00
    8    4   18      1.15      0.00
    9    4   18      1.50      0.00
   10    4   18      1.53      0.00
  -10    5   18     -0.86      0.00
   -9    5   18      4.88      0.00
   -8    5   18     -1.37      0.00
   -7    5   18      1.96      0.00
   -6    5   18      2.33      0.00
   -5    5   18     -4.99      0.00
   -4    5   18      1.40      0.00
   -3    5   18      1.25      0.00
   -2    5   18      2.06      0.00
   -1    5   18      1.51      0.00
    0    5   18     -0.67      0.00
    1    5   18     -1.43      0.00
    2    5   18     -0.50      0.00
    3    5   18      0.17      0.00
    4    5   18      3.67      0.00
    5    5   18      1.59      0.00
    6    5   18      1.31      0.00
    7    5   18      1.34      0.00
    8    5   18      2.70      0.00
    9    5   18      0.38      0.00
  -10    6   18     -3.10      0.00
   -9    6   18      1.17      0.00
   -8    6   18      2.51      0.00
   -7    6   18     -1.27      0.00
   -6    6   18     -1.61      0.00
   -5    6   18     -1.47      0.00
   -4    6   18     -4.63      0.00
   -3    6   18      0.52      0.00
   -2    6   18     -0.15      0.00
   -1    6   18     -3.16      0.00
    0    6   18     -0.99      0.00
    1    6   18      3.00      0.00
    2    6   18     -0.19      0.00
    3    6   18      3.98      0.00
    4    6   18     -2.13      0.00
    5    6   18      0.76      0.00
    6    6   18     -1.05      0.00
    7    6   18     -1.32      0.00
    8    6   18     -0.92      0.00
    9    6   18      2.90      0.00
   -9    7   18      3.10      0.00
   -8    7   18      1.04      0.00
   -7    7   18      0.35      0.00
   -6    7   18     -0.86      0.00
   -5    7   18     -0.90      0.00
   -4    7   18     -1.81      0.00
   -3    7   18     -0.27      0.00
   -2    7   18      2.08      0.00
   -1    7   18     -0.24      0.00
    0    7   18      0.80      0.00
    1    7   18     -0.79      0.00
    2    7   18     -0.35      0.00
    3    7   18     -0.15      0.00
    4    7   18      0.91      0.00
    5    7   18      0.61      0.00
    6    7   18     -0.39      0.00
    7    7   18     -0.68      0.00
    8    7   18      0.97      0.00
   -8    8   18      1.21      0.00
   -7    8   18     -0.20      0.00
   -6    8   18     -1.49      0.00
   -5    8   18     -2.26      0.00
   -4    8   18     -1.26      0.00
   -3    8   18     -2.18      0.00
   -2    8   18      0.27      0.00
   -1    8   18      0.63      0.00
    0    8   18     -2.07      0.00
    1    8   18      2.21      0.00
    2    8   18      0.87      0.00
    3    8   18      0.94      0.00
    4    8   18     -0.98      0.00
    5    8   18      0.24      0.00
    6    8   18     -0.44      0.00
    7    8   18     -1.00      0.00
   -7    9   18      1.10      0.00
   -6    9   18      0.61      0.00
   -5    9   18     -0.70      0.00
   -4    9   18      0.51      0.00
   -3    9   18     -1.88      0.00
   -2    9   18     -1.76      0.00
   -1    9   18     -1.75      0.00
    0    9   18      1.21      0.00
    1    9   18     -0.89      0.00
    2    9   18      0.30      0.00
    3    9   18     -1.77      0.00
    4    9   18     -0.89      0.00
    5    9   18     -0.40      0.00
    6    9   18     -1.08      0.00
   -5   10   18     -0.82      0.00
   -4   10   18     -1.29      0.00
   -3   10   18     -1.14      0.00
   -2   10   18      1.55      0.00
   -1   10   18      0.94      0.00
    0   10   18      1.30      0.00
    1   10   18     -0.09      0.00
    2   10   18      1.36      0.00
   -2   11   18     -1.73      0.00
   -1   11   18     -0.03      0.00
    0   11   18     -0.18      0.00
  -11    1   19     -0.08      0.00
  -10    1   19     -1.38      0.00
   -9    1   19     -0.69      0.00
   -8    1   19      0.78      0.00
   -7    1   19      0.60      0.00
   -6    1   19      2.14      0.00
   -5    1   19      1.23      0.00
   -4    1   19      3.12      0.00
   -3    1   19     -2.29      0.00
   -2    1   19      1.08      0.00
    0    1   19      0.45      0.00
    1    1   19     -0.06      0.00
    2    1   19      1.41      0.00
    3    1   19     -5.79      0.00
    4    1   19     -1.93      0.00
    5    1   19     -2.17      0.00
    6    1   19      2.62      0.00
    7    1   19     -0.40      0.00
    8    1   19     -1.70      0.00
    9    1   19     -1.50      0.00
   10    1   19     -2.12      0.00
  -11    2   19      0.46      0.00
  -10    2   19      0.89      0.00
   -9    2   19     -0.77      0.00
   -8    2   19     -1.57      0.00
   -7    2   19     -1.82      0.00
   -6    2   19     -2.35      0.00
   -5    2   19     -1.14      0.00
   -4    2   19     -1.17      0.00
   -3    2   19      2.78      0.00
   -2    2   19     -2.23      0.00
   -1    2   19      0.53      0.00
    0    2   19      2.44      0.00
    1    2   19     -0.07      0.00
    2    2   19      2.77      0.00
    3    2   19      1.11      0.00
    4    2   19      3.98      0.00
    5    2   19     -0.56      0.00
    6    2   19      1.62      0.00
    7    2   19     -0.08      0.00
    8    2   19     -2.27      0.00
    9    2   19      0.10      0.00
   10    2   19      0.00      0.00
  -11    3   19      1.02      0.00
  -10    3   19     -1.21      0.00
   -9    3   19      2.07      0.00
   -8    3   19     -1.47      0.00
   -6    3   19      2.15      0.00
   -5    3   19      1.87      0.00
   -4    3   19     -0.37      0.00
   -3    3   19     -0.29      0.00
   -2    3   19     -1.70      0.00
   -1    3   19     -2.10      0.00
    0    3   19     -3.06      0.00
    1    3   19      4.42      0.00
    2    3   19     -4.01      0.00
    3    3   19     -1.20      0.00
    4    3   19     -2.97      0.00
    5    3   19     -1.03      0.00
    6    3   19     -0.68      0.00
    7    3   19     -0.89      0.00
    8    3   19     -1.43      0.00
    9    3   19     -0.18      0.00
   10    3   19     -1.86      0.00
  -11    4   19     -0.47      0.00
  -10    4   19      1.84      0.00
   -9    4   19     -3.08      0.00
   -8    4   19      0.33      0.00
   -7    4   19     -0.21      0.00
   -6    4   19     -3.71      0.00
   -5    4   19      4.79      0.00
   -4    4   19     -1.01      0.00
   -3    4   19      0.88      0.00
   -2    4   19     -0.50      0.00
   -1    4   19      1.29      0.00
    0    4   19      1.70      0.00
    1    4   19      1.73      0.00
    2    4   19      0.70      0.00
    3    4   19      0.63      0.00
    4    4   19     -2.06      0.00
    5    4   19      0.19      0.00
    6    4   19      0.03      0.00
    7    4   19      0.02      0.00
    8    4   19     -2.75      0.00
    9    4   19      0.04      0.00
  -10    5   19      1.15      0.00
   -9    5   19      0.12      0.00
   -8    5   19     -3.72      0.00
   -7    5   19      0.33      0.00
   -6    5   19      1.97      0.00
   -5    5   19      1.44      0.00
   -4    5   19      4.75      0.00
   -3    5   19      0.15      0.00
   -2    5   19     -1.01      0.00
   -1    5   19      1.95      0.00
    0    5   19     -0.07      0.00
    1    5   19     -1.88      0.00
    2    5   19      0.36      0.00
    3    5   19     -3.49      0.00
    4    5   19      0.25      0.00
    5    5   19     -0.53      0.00
    6    5   19      0.22      0.00
    7    5   19      0.07      0.00
    8    5   19      1.45      0.00
    9    5   19     -1.77      0.00
   -9    6   19     -4.86      0.00
   -8    6   19     -0.59      0.00
   -7    6   19     -0.77      0.00
   -6    6   19      0.37      0.00
   -5    6   19      2.40      0.00
   -4    6   19      0.77      0.00
   -3    6   19     -0.03      0.00
   -2    6   19     -1.73      0.00
   -1    6   19     -0.62      0.00
    0    6   19      0.77      0.00
    1    6   19      0.60      0.00
    2    6   19      0.93      0.00
    3    6   19      0.39      0.00
    4    6   19     -1.64      0.00
    5    6   19     -0.50      0.00
    6    6   19      0.93      0.00
    7    6   19      0.18      0.00
    8    6   19     -1.39      0.00
   -9    7   19     -0.95      0.00
   -8    7   19     -0.93      0.00
   -7    7   19      0.45      0.00
   -6    7   19      1.40      0.00
   -5    7   19      2.59      0.00
   -4    7   19      3.90      0.00
   -3    7   19      2.45      0.00
   -2    7   19      2.23      0.00
   -1    7   19      0.68      0.00
    0    7   19      2.94      0.00
    1    7   19     -3.19      0.00
    2    7   19      0.12      0.00
    3    7   19     -2.67      0.00
    4    7   19      1.88      0.00
    5    7   19     -0.30      0.00
    6    7   19      1.20      0.00
    7    7   19      1.56      0.00
   -8    8   19     -0.07      0.00
   -7    8   19      0.39      0.00
   -6    8   19      0.99      0.00
   -5    8   19      0.70      0.00
   -4    8   19      1.21      0.00
   -3    8   19      1.18      0.00
   -2    8   19     -0.77      0.00
   -1    8   19      1.03      0.00
    0    8   19     -2.16      0.00
    1    8   19      0.89      0.00
    2    8   19      0.31      0.00
    3    8   19      1.29      0.00
    4    8   19      0.54      0.00
    5    8   19      0.75      0.00
    6    8   19      0.59      0.00
   -7    9   19      0.96      0.00
   -6    9   19      0.81      0.00
   -5    9   19      1.65      0.00
   -4    9   19      0.48      0.00
   -3    9   19      2.57      0.00
   -2    9   19     -1.01      0.00
   -1    9   19     -1.42      0.00
    0    9   19      0.25      0.00
    1    9   19     -0.83      0.00
    2    9   19     -0.74      0.00
    3    9   19     -0.23      0.00
    4    9   19     -0.06      0.00
    5    9   19     -0.36      0.00
   -5   10   19      0.47      0.00
   -4   10   19     -1.50      0.00
   -3   10   19      0.62      0.00
   -2   10   19      1.16      0.00
   -1   10   19      0.40      0.00
    0   10   19      0.07      0.00
    1   10   19     -0.48      0.00
  -11    0   20      0.24      0.00
  -10    0   20      0.39      0.00
   -9    0   20      2.06      0.00
   -8    0   20     -0.15      0.00
   -7    0   20      0.38      0.00
   -6    0   20     -0.67      0.00
   -5    0   20     -1.04      0.00
   -4    0   20     -5.21      0.00
   -3    0   20      2.80      0.00
   -2    0   20     -2.84      0.00
   -1    0   20      4.11      0.00
    0    0   20     -2.02      0.00
    1    0   20      0.28      0.00
    3    0   20      2.98      0.00
    4    0   20     -0.63      0.00
    5    0   20      2.21      0.00
    6    0   20     -3.73      0.00
    7    0   20     -0.61      0.00
    8    0   20      1.81      0.00
    9    0   20      0.45      0.00
   10    0   20      1.69      0.00
  -11    1   20     -0.87      0.00
  -10    1   20     -1.95      0.00
   -9    1   20      0.55      0.00
   -8    1   20      0.71      0.00
   -7    1   20      1.38      0.00
   -6    1   20      0.75      0.00
   -5    1   20      2.38      0.00
   -4    1   20      0.39      0.00
   -3    1   20     -0.08      0.00
   -2    1   20      1.28      0.00
    0    1   20     -1.36      0.00
    1    1   20      0.17      0.00
    2    1   20     -1.81      0.00
    4    1   20     -3.46      0.00
    5    1   20      1.27      0.00
    6    1   20     -0.49      0.00
    7    1   20     -0.44      0.00
    8    1   20      1.17      0.00
    9    1   20     -0.32      0.00
   10    1   20     -0.73      0.00
  -11    2   20     -0.41      0.00
  -10    2   20      1.20      0.00
   -9    2   20     -1.76      0.00
   -8    2   20      0.45      0.00
   -7    2   20      0.81      0.00
   -6    2   20     -2.27      0.00
   -5    2   20     -2.97      0.00
   -4    2   20     -1.68      0.00
   -3    2   20     -0.95      0.00
   -2    2   20      0.27      0.00
   -1    2   20      1.27      0.00
    0    2   20      2.04      0.00
    1    2   20     -3.84      0.00
    2    2   20      0.84      0.00
    3    2   20      2.06      0.00
    4    2   20      2.56      0.00
    5    2   20      2.29      0.00
    6    2   20     -0.56      0.00
    7    2   20     -0.16      0.00
    8    2   20      1.33      0.00
    9    2   20      0.07      0.00
   10    2   20      1.78      0.00
  -11    3   20     -1.09      0.00
  -10    3   20     -1.60      0.00
   -9    3   20      0.47      0.00
   -8    3   20      2.06      0.00
   -7    3   20      0.04      0.00
   -6    3   20      2.99      0.00
   -5    3   20     -1.27      0.00
   -4    3   20      0.78      0.00
   -3    3   20     -1.78      0.00
   -2    3   20      0.68      0.00
   -1    3   20     -1.84      0.00
    0    3   20     -3.36      0.00
    1    3   20     -0.78      0.00
    2    3   20     -1.87      0.00
    3    3   20     -1.10      0.00
    4    3   20     -1.23      0.00
    5    3   20      0.21      0.00
    6    3   20     -0.85      0.00
    7    3   20     -0.19      0.00
    8    3   20      2.35      0.00
    9    3   20     -0.72      0.00
  -10    4   20      2.12      0.00
   -9    4   20     -1.62      0.00
   -8    4   20      2.65      0.00
   -7    4   20      1.12      0.00
   -6    4   20     -3.42      0.00
   -5    4   20     -2.59      0.00
   -4    4   20     -2.57      0.00
   -3    4   20     -1.09      0.00
   -2    4   20      1.34      0.00
   -1    4   20      0.17      0.00
    0    4   20      1.84      0.00
    1    4   20     -1.20      0.00
    2    4   20      1.18      0.00
    3    4   20      2.17      0.00
    4    4   20      2.13      0.00
    5    4   20      1.65      0.00
    6    4   20      0.79      0.00
    7    4   20      0.33      0.00
    8    4   20     -0.83      0.00
    9    4   20     -0.18      0.00
  -10    5   20     -0.77      0.00
   -9    5   20      4.76      0.00
   -8    5   20     -0.23      0.00
   -7    5   20     -0.20      0.00
   -6    5   20      1.28      0.00
   -5    5   20     -3.94      0.00
   -4    5   20     -1.18      0.00
   -3    5   20     -0.94      0.00
   -2    5   20     -1.38      0.00
   -1    5   20     -2.57      0.00
    0    5   20     -1.93      0.00
    1    5   20     -1.91      0.00
    2    5   20     -0.11      0.00
    3    5   20     -1.07      0.00
    4    5   20      1.70      0.00
    5    5   20     -0.73      0.00
    6    5   20     -1.22      0.00
    7    5   20     -0.47      0.00
    8    5   20      2.22      0.00
    9    5   20      0.00      0.00
   -9    6   20      1.26      0.00
   -8    6   20      2.42      0.00
   -7    6   20     -1.81      0.00
   -6    6   20     -1.17      0.00
   -5    6   20     -2.19      0.00
   -4    6   20     -5.45      0.00
   -3    6   20     -2.20      0.00
   -2    6   20     -1.14      0.00
   -1    6   20     -1.36      0.00
    0    6   20     -1.92      0.00
    1    6   20      4.16      0.00
    2    6   20     -2.31      0.00
    3    6   20      3.55      0.00
    4    6   20     -1.59      0.00
    5    6   20      0.69      0.00
    6    6   20     -1.06      0.00
    7    6   20     -0.75      0.00
    8    6   20     -2.35      0.00
   -9    7   20      2.53      0.00
   -8    7   20      0.44      0.00
   -7    7   20     -1.08      0.00
   -6    7   20     -1.92      0.00
   -5    7   20     -0.66      0.00
   -4    7   20     -1.29      0.00
   -3    7   20     -0.75      0.00
   -2    7   20      1.58      0.00
   -1    7   20      0.29      0.00
    0    7   20      0.95      0.00
    1    7   20      0.23      0.00
    2    7   20     -1.02      0.00
    3    7   20     -0.87      0.00
    4    7   20     -0.34      0.00
    5    7   20     -0.62      0.00
    6    7   20     -0.96      0.00
    7    7   20     -0.68      0.00
   -8    8   20     -1.03      0.00
   -7    8   20     -0.53      0.00
   -6    8   20     -1.34      0.00
   -5    8   20     -2.11      0.00
   -4    8   20     -1.52      0.00
   -3    8   20     -3.47      0.00
   -2    8   20     -2.20      0.00
   -1    8   20      1.40      0.00
    0    8   20     -2.31      0.00
    1    8   20      1.94      0.00
    2    8   20      0.46      0.00
    3    8   20      1.22      0.00
    4    8   20      0.20      0.00
    5    8   20      0.57      0.00
    6    8   20      1.06      0.00
   -7    9   20     -0.28      0.00
   -6    9   20     -0.62      0.00
   -5    9   20     -1.45      0.00
   -4    9   20      0.73      0.00
   -3    9   20     -0.58      0.00
   -2    9   20      0.96      0.00
   -1    9   20      0.41      0.00
    0    9   20      1.64      0.00
    1    9   20      0.04      0.00
    2    9   20     -0.80      0.00
    3    9   20     -0.36      0.00
    4    9   20      0.34      0.00
    5    9   20      0.06      0.00
   -5   10   20     -0.31      0.00
   -4   10   20      0.23      0.00
   -3   10   20     -0.56      0.00
   -2   10   20      1.60      0.00
   -1   10   20      0.81      0.00
    0   10   20      1.07      0.00
    1   10   20     -0.30      0.00
  -11    1   21      0.39      0.00
  -10    1   21      0.91      0.00
   -9    1   21      0.32      0.00
   -8    1   21     -0.17      0.00
   -7    1   21     -0.41      0.00
   -6    1   21      0.83      0.00
   -5    1   21      1.69      0.00
   -4    1   21      3.95      0.00
   -3    1   21     -0.77      0.00
   -2    1   21      1.96      0.00
   -1    1   21     -1.37      0.00
    0    1   21      0.49      0.00
    1    1   21      1.99      0.00
    2    1   21      3.63      0.00
    3    1   21     -0.33      0.00
    4    1   21      1.12      0.00
    5    1   21     -1.71      0.00
    6    1   21      2.25      0.00
    7    1   21      0.45      0.00
    8    1   21     -1.62      0.00
    9    1   21      0.23      0.00
   10    1   21     -0.91      0.00
  -11    2   21      1.62      0.00
  -10    2   21      1.98      0.00
   -9    2   21      0.48      0.00
   -8    2   21     -1.64      0.00
   -7    2   21     -0.41      0.00
   -6    2   21     -0.34      0.00
   -5    2   21     -1.44      0.00
   -4    2   21     -0.69      0.00
   -3    2   21      0.08      0.00
   -2    2   21     -1.44      0.00
   -1    2   21     -0.27      0.00
    0    2   21      3.01      0.00
    1    2   21     -0.78      0.00
    2    2   21      1.24      0.00
    3    2   21     -1.06      0.00
    4    2   21      2.54      0.00
    5    2   21     -2.82      0.00
    6    2   21      0.02      0.00
    7    2   21      0.12      0.00
    8    2   21     -1.45      0.00
    9    2   21      0.57      0.00
  -10    3   21     -3.02      0.00
   -9    3   21      2.59      0.00
   -8    3   21     -0.45      0.00
   -7    3   21     -0.99      0.00
   -6    3   21      4.07      0.00
   -5    3   21      4.66      0.00
   -4    3   21      1.40      0.00
   -3    3   21      3.64      0.00
   -2    3   21      0.92      0.00
   -1    3   21      1.25      0.00
    0    3   21     -1.93      0.00
    1    3   21      3.95      0.00
    2    3   21     -1.65      0.00
    3    3   21     -1.23      0.00
    4    3   21     -1.79      0.00
    5    3   21     -2.07      0.00
    6    3   21     -0.75      0.00
    7    3   21     -0.11      0.00
    8    3   21     -0.61      0.00
    9    3   21      0.63      0.00
  -10    4   21      0.93      0.00
   -9    4   21     -3.29      0.00
   -8    4   21     -1.87      0.00
   -7    4   21      0.81      0.00
   -6    4   21     -2.88      0.00
   -5    4   21      2.12      0.00
   -4    4   21      0.92      0.00
   -3    4   21      0.27      0.00
   -2    4   21      1.45      0.00
   -1    4   21      3.72      0.00
    0    4   21      2.56      0.00
    1    4   21      1.89      0.00
    2    4   21     -0.01      0.00
    3    4   21      1.83      0.00
    4    4   21     -0.62      0.00
    5    4   21      0.90      0.00
    6    4   21      0.53      0.00
    7    4   21      0.67      0.00
    8    4   21     -2.57      0.00
    9    4   21      0.61      0.00
  -10    5   21     -1.35      0.00
   -9    5   21      0.27      0.00
   -8    5   21     -2.65      0.00
   -7    5   21      2.08      0.00
   -6    5   21      2.54      0.00
   -5    5   21      1.60      0.00
   -4    5   21      4.21      0.00
   -3    5   21      1.69      0.00
   -2    5   21     -0.86      0.00
   -1    5   21      0.98      0.00
    0    5   21     -0.21      0.00
    1    5   21     -3.55      0.00
    2    5   21      2.54      0.00
    3    5   21     -2.69      0.00
    4    5   21      0.22      0.00
    5    5   21     -0.59      0.00
    6    5   21      0.26      0.00
    7    5   21     -0.22      0.00
    8    5   21      2.51      0.00
   -9    6   21     -2.69      0.00
   -8    6   21     -0.05      0.00
   -7    6   21      0.80      0.00
   -6    6   21      0.87      0.00
   -5    6   21      1.12      0.00
   -4    6   21      1.03      0.00
   -3    6   21      1.74      0.00
   -2    6   21      0.82      0.00
   -1    6   21      1.71      0.00
    0    6   21      0.98      0.00
    1    6   21     -0.19      0.00
    2    6   21     -0.12      0.00
    3    6   21      0.52      0.00
    4    6   21     -0.46      0.00
    5    6   21      0.30      0.00
    6    6   21      1.27      0.00
    7    6   21      0.01      0.00
    8    6   21     -1.78      0.00
   -8    7   21      0.66      0.00
   -7    7   21      1.75      0.00
   -6    7   21      1.24      0.00
   -5    7   21      2.20      0.00
   -4    7   21      2.76      0.00
   -3    7   21      2.48      0.00
   -2    7   21      2.74      0.00
   -1    7   21     -2.14      0.00
    0    7   21      2.50      0.00
    1    7   21     -3.88      0.00
    2    7   21      1.29      0.00
    3    7   21     -2.03      0.00
    4    7   21      0.46      0.00
    5    7   21     -0.93      0.00
    6    7   21     -0.36      0.00
    7    7   21      0.74      0.00
   -8    8   21      0.45      0.00
   -7    8   21      0.60      0.00
   -6    8   21      1.28      0.00
   -5    8   21      0.54      0.00
   -4    8   21     -0.06      0.00
   -3    8   21     -0.48      0.00
   -2    8   21     -2.22      0.00
   -1    8   21     -1.91      0.00
    0    8   21     -2.53      0.00
    1    8   21     -0.59      0.00
    2    8   21      0.58      0.00
    3    8   21      0.34      0.00
    4    8   21     -0.38      0.00
    5    8   21      0.04      0.00
    6    8   21     -0.46      0.00
   -6    9   21      0.33      0.00
   -5    9   21      1.27      0.00
   -4    9   21     -0.34      0.00
   -3    9   21      1.80      0.00
   -2    9   21      0.33      0.00
   -1    9   21     -0.55      0.00
    0    9   21      0.53      0.00
    1    9   21      0.26      0.00
    2    9   21     -0.27      0.00
    3    9   21     -0.80      0.00
   -4   10   21     -1.03      0.00
   -3   10   21     -0.08      0.00
   -2   10   21     -1.23      0.00
   -1   10   21     -0.64      0.00
    0   10   21     -0.54      0.00
    1   10   21     -0.05      0.00
  -11    0   22     -0.85      0.00
  -10    0   22     -2.83      0.00
   -9    0   22     -0.61      0.00
   -8    0   22     -0.47      0.00
   -7    0   22      0.09      0.00
   -6    0   22     -0.63      0.00
   -5    0   22     -0.41      0.00
   -4    0   22     -3.63      0.00
   -3    0   22      3.44      0.00
   -2    0   22     -1.65      0.00
   -1    0   22      2.09      0.00
    0    0   22     -0.42      0.00
    1    0   22     -0.07      0.00
    2    0   22     -3.32      0.00
    4    0   22     -2.70      0.00
    5    0   22      1.54      0.00
    6    0   22     -2.15      0.00
    7    0   22      0.09      0.00
    8    0   22      2.29      0.00
    9    0   22     -0.14      0.00
  -11    1   22     -0.23      0.00
  -10    1   22     -1.80      0.00
   -9    1   22      0.16      0.00
   -8    1   22     -0.17      0.00
   -7    1   22      0.15      0.00
   -6    1   22     -1.32      0.00
   -5    1   22      0.88      0.00
   -4    1   22     -0.53      0.00
   -3    1   22      0.51      0.00
   -2    1   22     -0.29      0.00
   -1    1   22      0.65      0.00
    0    1   22     -2.00      0.00
    1    1   22      0.70      0.00
    2    1   22      0.13      0.00
    3    1   22      2.38      0.00
    4    1   22     -1.51      0.00
    5    1   22      3.22      0.00
    6    1   22      0.94      0.00
    7    1   22     -0.25      0.00
    8    1   22      0.63      0.00
    9    1   22      0.17      0.00
  -10    2   22      1.08      0.00
   -9    2   22     -1.78      0.00
   -8    2   22      0.33      0.00
   -7    2   22      0.81      0.00
   -5    2   22     -3.29      0.00
   -4    2   22     -0.66      0.00
   -3    2   22     -2.11      0.00
   -2    2   22     -1.27      0.00
   -1    2   22     -2.19      0.00
    0    2   22      1.49      0.00
    1    2   22     -3.68      0.00
    2    2   22     -0.19      0.00
    3    2   22      0.16      0.00
    4    2   22     -1.21      0.00
    5    2   22      0.84      0.00
    6    2   22     -0.21      0.00
    7    2   22      0.30      0.00
    8    2   22      1.68      0.00
    9    2   22     -0.08      0.00
  -10    3   22     -0.05      0.00
   -9    3   22      0.98      0.00
   -8    3   22      3.05      0.00
   -7    3   22     -0.92      0.00
   -6    3   22      1.37      0.00
   -5    3   22      0.49      0.00
   -4    3   22      0.11      0.00
   -3    3   22      1.09      0.00
   -2    3   22      0.87      0.00
   -1    3   22     -0.95      0.00
    0    3   22     -3.10      0.00
    1    3   22      0.22      0.00
    2    3   22     -0.05      0.00
    3    3   22     -0.66      0.00
    4    3   22     -0.80      0.00
    5    3   22      1.39      0.00
    6    3   22      0.25      0.00
    7    3   22     -0.42      0.00
    8    3   22      1.43      0.00
    9    3   22     -0.81      0.00
  -10    4   22      3.28      0.00
   -9    4   22     -1.96      0.00
   -8    4   22      0.66      0.00
   -7    4   22     -0.34      0.00
   -6    4   22     -3.46      0.00
   -5    4   22     -2.28      0.00
   -4    4   22     -1.12      0.00
   -3    4   22     -2.93      0.00
   -2    4   22     -0.88      0.00
   -1    4   22     -2.18      0.00
    0    4   22      0.75      0.00
    1    4   22      0.56      0.00
    2    4   22     -0.31      0.00
    3    4   22      1.52      0.00
    4    4   22      0.13      0.00
    5    4   22      0.25      0.00
    6    4   22      0.34      0.00
    7    4   22      0.88      0.00
    8    4   22     -0.53      0.00
   -9    5   22      3.48      0.00
   -8    5   22      0.73      0.00
   -7    5   22     -0.47      0.00
   -6    5   22      1.83      0.00
   -5    5   22     -0.09      0.00
   -4    5   22     -0.44      0.00
   -3    5   22     -0.15      0.00
   -2    5   22     -1.09      0.00
   -1    5   22     -3.32      0.00
    0    5   22     -0.97      0.00
    1    5   22     -1.20      0.00
    2    5   22      1.20      0.00
    3    5   22     -1.91      0.00
    4    5   22      0.58      0.00
    5    5   22     -0.82      0.00
    6    5   22     -0.81      0.00
    7    5   22     -0.56      0.00
    8    5   22      1.92      0.00
   -9    6   22     -0.37      0.00
   -8    6   22      0.24      0.00
   -7    6   22     -3.58      0.00
   -6    6   22     -1.01      0.00
   -5    6   22     -0.85      0.00
   -4    6   22     -2.31      0.00
   -3    6   22     -0.50      0.00
   -2    6   22      0.37      0.00
   -1    6   22      2.19      0.00
    0    6   22     -0.39      0.00
    1    6   22      6.11      0.00
    2    6   22     -2.63      0.00
    3    6   22      2.58      0.00
    4    6   22     -0.53      0.00
    5    6   22      0.69      0.00
    6    6   22     -0.28      0.00
    7    6   22     -0.32      0.00
   -8    7   22      0.72      0.00
   -7    7   22     -0.29      0.00
   -6    7   22     -0.73      0.00
   -5    7   22      0.48      0.00
   -4    7   22     -0.43      0.00
   -3    7   22     -0.81      0.00
   -2    7   22      0.08      0.00
   -1    7   22      0.71      0.00
    0    7   22      0.53      0.00
    1    7   22      1.14      0.00
    2    7   22     -0.09      0.00
    3    7   22      0.43      0.00
    4    7   22      0.31      0.00
    5    7   22      0.63      0.00
    6    7   22      0.13      0.00
   -7    8   22     -0.37      0.00
   -6    8   22     -0.99      0.00
   -5    8   22     -1.81      0.00
   -4    8   22     -0.43      0.00
   -3    8   22     -1.31      0.00
   -2    8   22     -1.67      0.00
   -1    8   22      2.43      0.00
    0    8   22     -1.48      0.00
    1    8   22      0.92      0.00
    2    8   22     -0.76      0.00
    3    8   22      0.45      0.00
    4    8   22      0.76      0.00
    5    8   22      0.28      0.00
   -6    9   22      0.12      0.00
   -5    9   22     -1.17      0.00
   -4    9   22      1.22      0.00
   -3    9   22      0.75      0.00
   -2    9   22      2.44      0.00
   -1    9   22      2.13      0.00
    0    9   22      1.52      0.00
    1    9   22      0.09      0.00
    2    9   22     -1.66      0.00
    3    9   22     -0.28      0.00
   -3   10   22     -0.17      0.00
   -2   10   22      0.25      0.00
   -1   10   22     -1.11      0.00
    0   10   22     -0.77      0.00
    1   10   22     -1.08      0.00
  -10    1   23      1.14      0.00
   -9    1   23      1.12      0.00
   -8    1   23     -0.07      0.00
   -7    1   23     -0.29      0.00
   -6    1   23      0.94      0.00
   -5    1   23      0.61      0.00
   -4    1   23      0.58      0.00
   -3    1   23     -2.95      0.00
   -2    1   23     -0.22      0.00
   -1    1   23      0.27      0.00
    0    1   23     -1.37      0.00
    1    1   23      0.67      0.00
    2    1   23      0.56      0.00
    3    1   23     -0.47      0.00
    4    1   23      2.64      0.00
    5    1   23     -0.23      0.00
    6    1   23      1.02      0.00
    7    1   23     -0.50      0.00
    8    1   23     -2.36      0.00
    9    1   23     -0.49      0.00
  -10    2   23      0.18      0.00
   -9    2   23     -0.52      0.00
   -8    2   23     -1.18      0.00
   -7    2   23      0.31      0.00
   -6    2   23      1.08      0.00
   -5    2   23     -0.94      0.00
   -4    2   23      0.54      0.00
   -3    2   23     -0.44      0.00
   -2    2   23      0.55      0.00
   -1    2   23     -0.35      0.00
    0    2   23      4.17      0.00
    1    2   23     -0.48      0.00
    2    2   23      0.10      0.00
    3    2   23     -1.18      0.00
    4    2   23      2.13      0.00
    5    2   23     -3.37      0.00
    6    2   23     -1.05      0.00
    7    2   23      0.24      0.00
    8    2   23     -0.17      0.00
    9    2   23     -0.05      0.00
  -10    3   23     -3.46      0.00
   -9    3   23      1.42      0.00
   -8    3   23     -0.06      0.00
   -7    3   23     -1.97      0.00
   -6    3   23      1.03      0.00
   -5    3   23      1.75      0.00
   -4    3   23     -3.35      0.00
   -3    3   23      1.69      0.00
   -2    3   23      0.87      0.00
   -1    3   23      2.79      0.00
    0    3   23     -1.37      0.00
    1    3   23      2.23      0.00
    2    3   23     -0.54      0.00
    3    3   23     -0.20      0.00
    4    3   23      2.19      0.00
    5    3   23      1.19      0.00
    6    3   23      0.20      0.00
    7    3   23     -0.97      0.00
    8    3   23     -1.10      0.00
    9    3   23      0.04      0.00
  -10    4   23     -0.05      0.00
   -9    4   23     -2.27      0.00
   -8    4   23     -1.56      0.00
   -7    4   23      1.63      0.00
   -6    4   23     -2.51      0.00
   -5    4   23     -1.58      0.00
   -4    4   23     -0.23      0.00
   -3    4   23     -2.51      0.00
   -2    4   23     -1.34      0.00
   -1    4   23      1.35      0.00
    0    4   23      0.76      0.00
    1    4   23      0.92      0.00
    2    4   23     -1.37      0.00
    3    4   23      2.84      0.00
    4    4   23     -0.02      0.00
    5    4   23      0.45      0.00
    6    4   23      0.03      0.00
    7    4   23      1.42      0.00
    8    4   23     -0.88      0.00
   -9    5   23      1.63      0.00
   -8    5   23     -0.18      0.00
   -7    5   23      2.51      0.00
   -6    5   23      0.96      0.00
   -5    5   23     -0.70      0.00
   -4    5   23      0.58      0.00
   -3    5   23      0.73      0.00
   -2    5   23     -0.52      0.00
   -1    5   23      0.71      0.00
    0    5   23     -0.28      0.00
    1    5   23     -5.31      0.00
    2    5   23      1.42      0.00
    3    5   23     -2.74      0.00
    4    5   23     -0.30      0.00
    5    5   23      0.09      0.00
    6    5   23      0.08      0.00
    7    5   23     -0.48      0.00
    8    5   23      1.09      0.00
   -9    6   23     -1.67      0.00
   -8    6   23     -1.15      0.00
   -7    6   23     -0.02      0.00
   -6    6   23     -0.49      0.00
   -5    6   23     -1.12      0.00
   -4    6   23      0.23      0.00
   -3    6   23      1.46      0.00
   -2    6   23      0.55      0.00
   -1    6   23      1.25      0.00
    0    6   23      0.56      0.00
    1    6   23      0.08      0.00
    2    6   23     -0.21      0.00
    3    6   23      0.79      0.00
    4    6   23      0.35      0.00
    5    6   23     -0.09      0.00
    6    6   23      0.78      0.00
    7    6   23      0.63      0.00
   -8    7   23      0.37      0.00
   -7    7   23      1.14      0.00
   -6    7   23      0.28      0.00
   -5    7   23      0.84      0.00
   -4    7   23      0.13      0.00
   -3    7   23     -0.75      0.00
   -2    7   23      0.00      0.00
   -1    7   23     -4.67      0.00
    0    7   23      0.73      0.00
    1    7   23     -4.00      0.00
    2    7   23      1.78      0.00
    3    7   23     -0.86      0.00
    4    7   23     -0.09      0.00
    5    7   23     -0.08      0.00
    6    7   23     -0.21      0.00
   -7    8   23     -1.56      0.00
   -6    8   23     -0.36      0.00
   -5    8   23      0.14      0.00
   -4    8   23      0.30      0.00
   -3    8   23      0.09      0.00
   -2    8   23      0.42      0.00
   -1    8   23     -1.42      0.00
    0    8   23     -0.01      0.00
    1    8   23      0.49      0.00
    2    8   23      1.49      0.00
    3    8   23      0.80      0.00
    4    8   23      0.09      0.00
    5    8   23     -0.01      0.00
   -5    9   23      1.96      0.00
   -4    9   23     -0.03      0.00
   -3    9   23      0.14      0.00
   -2    9   23      0.37      0.00
   -1    9   23      0.39      0.00
    0    9   23      0.87      0.00
    1    9   23      1.55      0.00
    2    9   23      0.83      0.00
    3    9   23      0.04      0.00
  -10    0   24     -0.69      0.00
   -9    0   24     -1.02      0.00
   -8    0   24     -0.36      0.00
   -7    0   24      0.03      0.00
   -6    0   24     -1.57      0.00
   -5    0   24      0.23      0.00
   -4    0   24     -0.64      0.00
   -3    0   24      4.58      0.00
   -2    0   24      0.12      0.00
   -1    0   24     -0.66      0.00
    0    0   24      0.27      0.00
    1    0   24     -0.04      0.00
    2    0   24     -0.28      0.00
    3    0   24      0.63      0.00
    4    0   24     -2.83      0.00
    5    0   24     -0.32      0.00
    6    0   24     -1.08      0.00
    7    0   24      0.12      0.00
    8    0   24      2.51      0.00
    9    0   24      1.16      0.00
  -10    1   24     -0.63      0.00
   -9    1   24      1.38      0.00
   -8    1   24     -0.17      0.00
   -7    1   24      0.86      0.00
   -6    1   24     -0.51      0.00
   -5    1   24      1.14      0.00
   -4    1   24     -0.56      0.00
   -3    1   24      0.40      0.00
   -2    1   24     -1.88      0.00
   -1    1   24      0.55      0.00
    0    1   24     -3.10      0.00
    1    1   24     -0.73      0.00
    2    1   24     -0.59      0.00
    3    1   24      0.64      0.00
    4    1   24     -2.66      0.00
    5    1   24      1.98      0.00
    6    1   24      1.09      0.00
    7    1   24     -0.25      0.00
    8    1   24     -0.33      0.00
    9    1   24      0.36      0.00
  -10    2   24      1.76      0.00
   -9    2   24     -0.73      0.00
   -8    2   24      0.15      0.00
   -7    2   24      1.60      0.00
   -6    2   24      0.52      0.00
   -5    2   24     -0.29      0.00
   -4    2   24      4.73      0.00
   -3    2   24      2.32      0.00
   -2    2   24      1.71      0.00
   -1    2   24     -1.86      0.00
    0    2   24      2.42      0.00
    1    2   24     -2.28      0.00
    2    2   24     -0.04      0.00
    3    2   24     -0.13      0.00
    4    2   24     -3.76      0.00
    5    2   24     -2.34      0.00
    6    2   24     -0.98      0.00
    7    2   24      0.46      0.00
    8    2   24      1.30      0.00
  -10    3   24      0.48      0.00
   -9    3   24      0.37      0.00
   -8    3   24      1.07      0.00
   -7    3   24     -1.93      0.00
   -6    3   24      1.07      0.00
   -5    3   24      2.23      0.00
   -4    3   24      0.03      0.00
   -3    3   24      1.43      0.00
   -2    3   24      0.62      0.00
   -1    3   24      0.21      0.00
    0    3   24     -3.31      0.00
    1    3   24     -0.21      0.00
    2    3   24      0.57      0.00
    4    3   24     -1.14      0.00
    5    3   24      1.49      0.00
    6    3   24      0.91      0.00
    7    3   24     -0.80      0.00
    8    3   24     -0.45      0.00
   -9    4   24     -1.32      0.00
   -8    4   24     -0.59      0.00
   -7    4   24      1.01      0.00
   -6    4   24      0.40      0.00
   -5    4   24      1.26      0.00
   -4    4   24      3.66      0.00
   -3    4   24     -0.18      0.00
   -2    4   24     -0.24      0.00
   -1    4   24     -2.06      0.00
    0    4   24      0.18      0.00
    1    4   24      1.45      0.00
    2    4   24     -0.15      0.00
    3    4   24      1.27      0.00
    4    4   24     -0.87      0.00
    5    4   24     -1.73      0.00
    6    4   24     -0.60      0.00
    7    4   24      0.54      0.00
    8    4   24     -0.21      0.00
   -9    5   24      1.72      0.00
   -8    5   24      0.27      0.00
   -7    5   24     -1.29      0.00
   -6    5   24      1.36      0.00
   -5    5   24      1.75      0.00
   -4    5   24     -0.01      0.00
   -3    5   24      0.43      0.00
   -2    5   24      1.73      0.00
   -1    5   24     -0.80      0.00
    0    5   24      0.79      0.00
    1    5   24     -1.11      0.00
    2    5   24      1.44      0.00
    3    5   24     -2.60      0.00
    4    5   24     -0.07      0.00
    5    5   24     -0.51      0.00
    6    5   24     -0.65      0.00
    7    5   24     -2.05      0.00
   -9    6   24     -0.50      0.00
   -8    6   24      0.47      0.00
   -7    6   24     -1.35      0.00
   -6    6   24      1.07      0.00
   -5    6   24      0.76      0.00
   -4    6   24     -0.39      0.00
   -3    6   24     -0.19      0.00
   -2    6   24      0.12      0.00
   -1    6   24      1.34      0.00
    0    6   24     -1.12      0.00
    1    6   24      5.10      0.00
    2    6   24     -1.86      0.00
    3    6   24      1.92      0.00
    4    6   24      0.57      0.00
    5    6   24      0.17      0.00
    6    6   24     -0.17      0.00
   -8    7   24      2.05      0.00
   -7    7   24      0.72      0.00
   -6    7   24      0.03      0.00
   -5    7   24      0.33      0.00
   -4    7   24     -1.47      0.00
   -3    7   24     -1.58      0.00
   -2    7   24     -2.27      0.00
   -1    7   24      0.21      0.00
    0    7   24     -1.62      0.00
    1    7   24     -1.17      0.00
    2    7   24     -2.10      0.00
    3    7   24     -1.30      0.00
    4    7   24     -1.91      0.00
    5    7   24     -0.21      0.00
    6    7   24     -0.64      0.00
   -7    8   24      0.60      0.00
   -6    8   24      0.23      0.00
   -5    8   24     -0.68      0.00
   -4    8   24      0.51      0.00
   -3    8   24      1.65      0.00
   -2    8   24      0.61      0.00
   -1    8   24      2.61      0.00
    0    8   24     -0.23      0.00
    1    8   24      0.25      0.00
    2    8   24     -1.42      0.00
    3    8   24     -0.38      0.00
    4    8   24      0.20      0.00
   -5    9   24     -1.14      0.00
   -4    9   24      0.10      0.00
   -3    9   24     -0.68      0.00
   -2    9   24     -0.36      0.00
   -1    9   24      0.22      0.00
    0    9   24     -0.44      0.00
    1    9   24     -0.73      0.00
    2    9   24     -1.64      0.00
  -10    1   25     -0.97      0.00
   -9    1   25      0.91      0.00
   -8    1   25      0.38      0.00
   -7    1   25     -0.46      0.00
   -6    1   25      0.62      0.00
   -5    1   25     -0.50      0.00
   -4    1   25     -1.92      0.00
   -3    1   25     -3.58      0.00
   -2    1   25     -0.82      0.00
   -1    1   25      2.47      0.00
    0    1   25     -0.36      0.00
    1    1   25      2.05      0.00
    2    1   25      1.44      0.00
    3    1   25      0.85      0.00
    4    1   25      3.46      0.00
    5    1   25      2.18      0.00
    6    1   25      0.60      0.00
    7    1   25      0.29      0.00
    8    1   25     -1.40      0.00
  -10    2   25     -0.01      0.00
   -9    2   25     -1.11      0.00
   -8    2   25     -0.03      0.00
   -7    2   25     -0.28      0.00
   -6    2   25     -1.03      0.00
   -5    2   25     -3.06      0.00
   -4    2   25     -0.77      0.00
   -3    2   25     -0.90      0.00
   -2    2   25      0.87      0.00
   -1    2   25     -1.87      0.00
    0    2   25      3.95      0.00
    1    2   25      0.54      0.00
    2    2   25      0.53      0.00
    3    2   25      0.72      0.00
    4    2   25      3.06      0.00
    5    2   25     -1.83      0.00
    6    2   25     -1.52      0.00
    7    2   25      0.01      0.00
    8    2   25      1.18      0.00
  -10    3   25     -2.33      0.00
   -9    3   25      0.66      0.00
   -8    3   25      1.62      0.00
   -7    3   25     -1.62      0.00
   -6    3   25     -1.34      0.00
   -5    3   25     -0.25      0.00
   -4    3   25     -6.67      0.00
   -3    3   25     -2.04      0.00
   -2    3   25     -1.22      0.00
   -1    3   25      1.11      0.00
    0    3   25     -1.46      0.00
    1    3   25      1.47      0.00
    2    3   25      0.26      0.00
    3    3   25     -0.15      0.00
    4    3   25      2.40      0.00
    5    3   25      2.71      0.00
    6    3   25      1.23      0.00
    7    3   25     -0.21      0.00
    8    3   25      0.30      0.00
   -9    4   25     -0.90      0.00
   -8    4   25      0.12      0.00
   -7    4   25      2.60      0.00
   -6    4   25     -1.85      0.00
   -5    4   25     -2.23      0.00
   -4    4   25      0.80      0.00
   -3    4   25     -0.11      0.00
   -2    4   25     -0.99      0.00
   -1    4   25      0.43      0.00
    0    4   25      0.73      0.00
    1    4   25      1.09      0.00
    2    4   25     -2.41      0.00
    3    4   25      2.27      0.00
    4    4   25     -0.92      0.00
    5    4   25     -0.80      0.00
    6    4   25     -0.74      0.00
    7    4   25      1.72      0.00
   -9    5   25      0.32      0.00
   -8    5   25     -0.25      0.00
   -7    5   25     -0.05      0.00
   -6    5   25     -1.54      0.00
   -5    5   25     -1.62      0.00
   -4    5   25     -0.32      0.00
   -3    5   25      1.45      0.00
   -2    5   25      0.89      0.00
   -1    5   25      2.48      0.00
    0    5   25      1.89      0.00
    1    5   25     -2.40      0.00
    2    5   25      1.53      0.00
    3    5   25     -1.21      0.00
    4    5   25     -0.37      0.00
    5    5   25      0.98      0.00
    6    5   25      0.39      0.00
    7    5   25      0.80      0.00
   -9    6   25     -0.66      0.00
   -8    6   25     -1.66      0.00
   -7    6   25      0.37      0.00
   -6    6   25     -0.04      0.00
   -5    6   25     -1.05      0.00
   -4    6   25      0.71      0.00
   -3    6   25      1.36      0.00
   -2    6   25     -0.56      0.00
   -1    6   25     -0.57      0.00
    0    6   25     -0.18      0.00
    1    6   25      0.97      0.00
    2    6   25      0.91      0.00
    3    6   25      1.74      0.00
    4    6   25      1.90      0.00
    5    6   25      0.48      0.00
    6    6   25      0.71      0.00
   -8    7   25     -0.44      0.00
   -7    7   25     -0.96      0.00
   -6    7   25     -1.23      0.00
   -5    7   25     -0.46      0.00
   -4    7   25      0.06      0.00
   -3    7   25     -0.22      0.00
   -2    7   25      0.43      0.00
   -1    7   25     -1.47      0.00
    0    7   25      1.88      0.00
    1    7   25     -1.85      0.00
    2    7   25      2.09      0.00
    3    7   25      0.09      0.00
    4    7   25     -0.45      0.00
    5    7   25      0.09      0.00
   -6    8   25      0.58      0.00
   -5    8   25      0.72      0.00
   -4    8   25      1.36      0.00
   -3    8   25      0.58      0.00
   -2    8   25      2.97      0.00
   -1    8   25     -0.68      0.00
    0    8   25      1.60      0.00
    1    8   25      1.32      0.00
    2    8   25      1.57      0.00
    3    8   25      1.67      0.00
    4    8   25      1.24      0.00
   -4    9   25     -0.47      0.00
   -3    9   25     -1.93      0.00
   -2    9   25     -0.97      0.00
   -1    9   25     -0.18      0.00
    0    9   25     -0.69      0.00
    1    9   25      0.41      0.00
  -10    0   26      1.82      0.00
   -9    0   26     -0.89      0.00
   -8    0   26     -0.57      0.00
   -7    0   26      0.90      0.00
   -6    0   26     -0.72      0.00
   -5    0   26      1.41      0.00
   -4    0   26      1.11      0.00
   -3    0   26      2.91      0.00
   -2    0   26     -0.46      0.00
   -1    0   26     -2.73      0.00
    0    0   26     -1.06      0.00
    1    0   26     -2.04      0.00
    2    0   26     -2.91      0.00
    3    0   26     -2.65      0.00
    4    0   26     -3.23      0.00
    5    0   26     -1.83      0.00
    6    0   26      0.97      0.00
    7    0   26     -0.59      0.00
    8    0   26      1.37      0.00
  -10    1   26     -0.77      0.00
   -9    1   26      1.82      0.00
   -8    1   26     -0.67      0.00
   -7    1   26      1.13      0.00
   -6    1   26      1.08      0.00
   -5    1   26      2.54      0.00
   -4    1   26      1.23      0.00
   -3    1   26      1.90      0.00
   -2    1   26     -0.17      0.00
   -1    1   26      3.12      0.00
    0    1   26     -0.99      0.00
    1    1   26     -0.28      0.00
    2    1   26     -0.21      0.00
    3    1   26      0.01      0.00
    4    1   26     -2.48      0.00
    5    1   26      0.61      0.00
    6    1   26      1.29      0.00
    7    1   26     -0.02      0.00
    8    1   26     -0.94      0.00
  -10    2   26      1.28      0.00
   -9    2   26     -0.72      0.00
   -8    2   26     -1.77      0.00
   -7    2   26      0.07      0.00
   -6    2   26      0.64      0.00
   -5    2   26     -0.41      0.00
   -4    2   26      4.42      0.00
   -3    2   26      2.16      0.00
   -2    2   26      0.66      0.00
   -1    2   26     -2.52      0.00
    0    2   26      1.09      0.00
    1    2   26     -2.55      0.00
    2    2   26     -1.57      0.00
    3    2   26     -0.45      0.00
    4    2   26     -1.99      0.00
    5    2   26     -1.99      0.00
    6    2   26      0.07      0.00
    7    2   26      0.15      0.00
    8    2   26     -0.22      0.00
   -9    3   26      0.97      0.00
   -8    3   26      0.45      0.00
   -7    3   26     -1.31      0.00
   -6    3   26      2.48      0.00
   -5    3   26      3.28      0.00
   -4    3   26     -0.02      0.00
   -3    3   26     -0.66      0.00
   -2    3   26     -0.43      0.00
   -1    3   26      1.31      0.00
    0    3   26     -2.91      0.00
    1    3   26     -0.27      0.00
    2    3   26      1.60      0.00
    3    3   26     -0.90      0.00
    4    3   26     -0.08      0.00
    5    3   26      1.57      0.00
    6    3   26      1.45      0.00
    7    3   26     -0.38      0.00
   -9    4   26     -0.01      0.00
   -8    4   26     -1.66      0.00
   -7    4   26      0.71      0.00
   -6    4   26      0.96      0.00
   -5    4   26      0.24      0.00
   -4    4   26      2.68      0.00
   -3    4   26     -0.29      0.00
   -2    4   26     -0.72      0.00
   -1    4   26     -1.70      0.00
    0    4   26     -0.87      0.00
    1    4   26     -0.47      0.00
    2    4   26     -0.79      0.00
    3    4   26      0.23      0.00
    4    4   26     -0.10      0.00
    5    4   26     -1.65      0.00
    6    4   26     -0.65      0.00
    7    4   26     -0.51      0.00
   -9    5   26      1.21      0.00
   -8    5   26      0.94      0.00
   -7    5   26     -0.95      0.00
   -6    5   26      1.31      0.00
   -5    5   26      1.65      0.00
   -4    5   26     -0.98      0.00
   -3    5   26     -2.22      0.00
   -2    5   26      0.83      0.00
   -1    5   26     -0.68      0.00
    0    5   26      0.54      0.00
    1    5   26     -1.38      0.00
    2    5   26      1.81      0.00
    3    5   26     -1.66      0.00
    4    5   26      0.44      0.00
    5    5   26      0.28      0.00
    6    5   26      0.48      0.00
   -8    6   26      0.34      0.00
   -7    6   26      0.33      0.00
   -6    6   26      1.50      0.00
   -5    6   26      0.68      0.00
   -4    6   26     -0.95      0.00
   -3    6   26     -2.40      0.00
   -2    6   26     -1.29      0.00
   -1    6   26     -2.02      0.00
    0    6   26     -3.15      0.00
    1    6   26      1.14      0.00
    2    6   26     -2.38      0.00
    3    6   26     -0.45      0.00
    4    6   26      0.12      0.00
    5    6   26     -0.08      0.00
    6    6   26      0.77      0.00
   -7    7   26     -0.40      0.00
   -6    7   26     -0.49      0.00
   -5    7   26      0.98      0.00
   -4    7   26     -0.27      0.00
   -3    7   26      1.07      0.00
   -2    7   26     -0.76      0.00
   -1    7   26      2.78      0.00
    0    7   26      0.17      0.00
    1    7   26     -0.07      0.00
    2    7   26     -1.14      0.00
    3    7   26     -0.78      0.00
    4    7   26     -2.33      0.00
   -6    8   26      0.79      0.00
   -5    8   26      0.86      0.00
   -4    8   26     -0.12      0.00
   -3    8   26      1.03      0.00
   -2    8   26     -0.13      0.00
   -1    8   26     -0.46      0.00
    0    8   26     -0.42      0.00
    1    8   26      0.07      0.00
    2    8   26     -0.91      0.00
    3    8   26      0.05      0.00
   -2    9   26     -1.43      0.00
   -1    9   26     -0.07      0.00
    0    9   26     -0.29      0.00
   -9    1   27      0.26      0.00
   -8    1   27      0.57      0.00
   -7    1   27     -0.94      0.00
   -6    1   27     -0.35      0.00
   -5    1   27     -1.24      0.00
   -4    1   27     -2.06      0.00
   -3    1   27     -1.72      0.00
   -2    1   27      0.28      0.00
   -1    1   27      2.42      0.00
    0    1   27     -0.36      0.00
    1    1   27      1.05      0.00
    2    1   27      2.28      0.00
    3    1   27      2.15      0.00
    4    1   27      1.34      0.00
    5    1   27      1.24      0.00
    6    1   27     -2.50      0.00
    7    1   27      0.19      0.00
   -9    2   27     -1.93      0.00
   -8    2   27      0.17      0.00
   -7    2   27     -0.14      0.00
   -6    2   27     -1.77      0.00
   -5    2   27     -3.16      0.00
   -4    2   27     -1.26      0.00
   -3    2   27     -0.75      0.00
   -2    2   27     -0.20      0.00
   -1    2   27     -4.05      0.00
    0    2   27      1.55      0.00
    1    2   27     -0.41      0.00
    2    2   27     -0.90      0.00
    3    2   27     -0.55      0.00
    4    2   27      1.23      0.00
    5    2   27     -0.50      0.00
    6    2   27     -1.29      0.00
    7    2   27      0.06      0.00
   -9    3   27     -0.28      0.00
   -8    3   27      2.48      0.00
   -7    3   27      0.10      0.00
   -6    3   27     -0.64      0.00
   -5    3   27      1.72      0.00
   -4    3   27     -2.75      0.00
   -3    3   27      0.34      0.00
   -2    3   27      2.17      0.00
   -1    3   27      2.46      0.00
    0    3   27      0.66      0.00
    1    3   27      1.94      0.00
    2    3   27      0.71      0.00
    3    3   27     -0.40      0.00
    4    3   27     -0.66      0.00
    5    3   27      0.54      0.00
    6    3   27     -0.34      0.00
    7    3   27     -0.61      0.00
   -9    4   27     -1.97      0.00
   -8    4   27     -1.38      0.00
   -7    4   27      0.90      0.00
   -6    4   27     -3.00      0.00
   -5    4   27     -2.23      0.00
   -4    4   27      1.24      0.00
   -3    4   27      2.99      0.00
   -2    4   27      1.00      0.00
   -1    4   27      0.60      0.00
    0    4   27      1.41      0.00
    1    4   27      1.27      0.00
    2    4   27     -2.85      0.00
    3    4   27      1.21      0.00
    4    4   27     -1.14      0.00
    5    4   27     -0.68      0.00
    6    4   27     -0.75      0.00
   -9    5   27     -0.50      0.00
   -8    5   27      0.78      0.00
   -7    5   27      0.28      0.00
   -6    5   27     -0.67      0.00
   -5    5   27     -0.48      0.00
   -4    5   27     -0.09      0.00
   -3    5   27      1.59      0.00
   -2    5   27      0.03      0.00
   -1    5   27      1.62      0.00
    0    5   27      1.28      0.00
    1    5   27      0.03      0.00
    2    5   27      1.05      0.00
    3    5   27      0.87      0.00
    4    5   27      0.05      0.00
    5    5   27      0.68      0.00
    6    5   27     -0.91      0.00
   -8    6   27     -2.06      0.00
   -7    6   27      0.29      0.00
   -6    6   27     -0.52      0.00
   -5    6   27     -2.10      0.00
   -4    6   27     -0.52      0.00
   -3    6   27      0.34      0.00
   -2    6   27     -0.90      0.00
   -1    6   27     -1.21      0.00
    0    6   27     -1.06      0.00
    1    6   27     -0.04      0.00
    2    6   27     -0.17      0.00
    3    6   27      0.41      0.00
    4    6   27      1.33      0.00
    5    6   27      0.15      0.00
   -7    7   27     -0.18      0.00
   -6    7   27      0.12      0.00
   -5    7   27     -0.76      0.00
   -4    7   27      0.60      0.00
   -3    7   27      1.42      0.00
   -2    7   27      0.96      0.00
   -1    7   27      1.84      0.00
    0    7   27      2.32      0.00
    1    7   27     -0.53      0.00
    2    7   27      1.54      0.00
    3    7   27      0.71      0.00
    4    7   27     -0.45      0.00
   -5    8   27     -0.93      0.00
   -4    8   27     -0.56      0.00
   -3    8   27     -2.14      0.00
   -2    8   27      1.18      0.00
   -1    8   27     -2.78      0.00
    0    8   27     -0.47      0.00
    1    8   27     -0.74      0.00
    2    8   27     -0.85      0.00
   -9    0   28      0.67      0.00
   -8    0   28      0.64      0.00
   -7    0   28      2.59      0.00
   -6    0   28      0.65      0.00
   -5    0   28      1.99      0.00
   -4    0   28      1.96      0.00
   -3    0   28      1.36      0.00
   -2    0   28      0.16      0.00
   -1    0   28     -0.24      0.00
    0    0   28      1.02      0.00
    1    0   28      1.70      0.00
    2    0   28     -1.06      0.00
    3    0   28     -2.65      0.00
    4    0   28     -0.56      0.00
    5    0   28     -1.07      0.00
    6    0   28      3.80      0.00
    7    0   28     -0.83      0.00
   -9    1   28      1.68      0.00
   -8    1   28     -1.00      0.00
   -7    1   28     -0.11      0.00
   -6    1   28      0.03      0.00
   -5    1   28      1.10      0.00
   -4    1   28      0.30      0.00
   -3    1   28      0.74      0.00
   -2    1   28     -0.41      0.00
   -1    1   28      2.36      0.00
    0    1   28     -0.58      0.00
    1    1   28     -0.35      0.00
    2    1   28      0.53      0.00
    3    1   28      1.08      0.00
    4    1   28     -0.40      0.00
    5    1   28     -0.42      0.00
    6    1   28      0.87      0.00
    7    1   28     -0.32      0.00
   -9    2   28      1.00      0.00
   -8    2   28     -0.52      0.00
   -7    2   28      0.49      0.00
   -6    2   28      1.17      0.00
   -5    2   28     -0.77      0.00
   -4    2   28      1.25      0.00
   -3    2   28     -0.64      0.00
   -2    2   28     -2.81      0.00
   -1    2   28     -3.67      0.00
    0    2   28     -0.46      0.00
    1    2   28     -0.85      0.00
    2    2   28     -0.85      0.00
    3    2   28     -0.13      0.00
    4    2   28      1.09      0.00
    5    2   28     -0.17      0.00
    6    2   28      2.07      0.00
    7    2   28      0.67      0.00
   -9    3   28      1.81      0.00
   -8    3   28      1.23      0.00
   -7    3   28     -1.07      0.00
   -6    3   28      2.29      0.00
   -5    3   28      2.18      0.00
   -4    3   28     -0.24      0.00
   -3    3   28     -1.63      0.00
   -2    3   28     -0.38      0.00
   -1    3   28      2.36      0.00
    0    3   28     -1.83      0.00
    1    3   28      0.15      0.00
    2    3   28      1.95      0.00
    3    3   28      0.08      0.00
    4    3   28      0.11      0.00
    5    3   28     -0.31      0.00
    6    3   28      0.04      0.00
   -9    4   28      1.12      0.00
   -8    4   28     -1.60      0.00
   -7    4   28     -0.26      0.00
   -6    4   28      0.28      0.00
   -5    4   28     -0.66      0.00
   -4    4   28      0.93      0.00
   -3    4   28     -0.96      0.00
   -2    4   28     -1.88      0.00
   -1    4   28     -1.52      0.00
    0    4   28     -1.14      0.00
    1    4   28     -1.16      0.00
    2    4   28      0.23      0.00
    3    4   28     -0.43      0.00
    4    4   28      0.85      0.00
    5    4   28     -0.30      0.00
    6    4   28      1.00      0.00
   -8    5   28      1.70      0.00
   -7    5   28     -0.26      0.00
   -6    5   28      1.95      0.00
   -5    5   28      1.91      0.00
   -4    5   28     -0.01      0.00
   -3    5   28     -2.40      0.00
   -2    5   28      0.16      0.00
   -1    5   28     -0.67      0.00
    0    5   28      0.36      0.00
    1    5   28     -0.89      0.00
    2    5   28      1.91      0.00
    3    5   28     -1.28      0.00
    4    5   28     -0.19      0.00
    5    5   28     -0.65      0.00
   -7    6   28     -0.87      0.00
   -6    6   28     -0.42      0.00
   -5    6   28      0.70      0.00
   -4    6   28      0.91      0.00
   -3    6   28     -1.05      0.00
   -2    6   28      1.58      0.00
   -1    6   28     -0.57      0.00
    0    6   28     -0.70      0.00
    1    6   28      0.67      0.00
    2    6   28     -0.45      0.00
    3    6   28     -1.27      0.00
    4    6   28     -0.28      0.00
   -6    7   28     -0.11      0.00
   -5    7   28      1.99      0.00
   -4    7   28      0.62      0.00
   -3    7   28      2.09      0.00
   -2    7   28     -1.06      0.00
   -1    7   28      1.96      0.00
    0    7   28      0.24      0.00
    1    7   28      0.56      0.00
    2    7   28     -0.04      0.00
    3    7   28      0.27      0.00
   -4    8   28     -1.46      0.00
   -3    8   28     -0.82      0.00
   -2    8   28     -1.49      0.00
   -1    8   28     -3.24      0.00
    0    8   28     -1.20      0.00
    1    8   28     -0.10      0.00
   -9    1   29     -1.44      0.00
   -8    1   29     -1.22      0.00
   -7    1   29     -2.29      0.00
   -6    1   29     -0.73      0.00
   -5    1   29     -0.53      0.00
   -4    1   29     -0.61      0.00
   -3    1   29      0.40      0.00
   -2    1   29      1.19      0.00
   -1    1   29      1.68      0.00
    0    1   29      0.07      0.00
    1    1   29     -1.74      0.00
    2    1   29     -0.09      0.00
    3    1   29      1.25      0.00
    4    1   29     -0.85      0.00
    5    1   29      1.40      0.00
    6    1   29     -2.91      0.00
    7    1   29      0.97      0.00
   -9    2   29     -1.31      0.00
   -8    2   29      0.40      0.00
   -7    2   29      1.52      0.00
   -6    2   29      0.33      0.00
   -5    2   29     -0.95      0.00
   -4    2   29      0.26      0.00
   -3    2   29      0.82      0.00
   -2    2   29      0.60      0.00
   -1    2   29     -1.88      0.00
    0    2   29      2.02      0.00
    1    2   29      0.32      0.00
    2    2   29     -0.67      0.00
    3    2   29     -1.28      0.00
    4    2   29     -0.30      0.00
    5    2   29      1.34      0.00
    6    2   29     -0.22      0.00
   -8    3   29      0.34      0.00
   -7    3   29     -0.60      0.00
   -6    3   29     -1.34      0.00
   -5    3   29      0.93      0.00
   -4    3   29     -0.48      0.00
   -3    3   29      1.14      0.00
   -2    3   29      4.11      0.00
   -1    3   29      3.01      0.00
    0    3   29      2.01      0.00
    1    3   29      0.83      0.00
    2    3   29     -0.45      0.00
    3    3   29      0.03      0.00
    4    3   29     -1.43      0.00
    5    3   29      0.24      0.00
    6    3   29     -0.75      0.00
   -8    4   29     -1.22      0.00
   -7    4   29      1.50      0.00
   -6    4   29     -2.09      0.00
   -5    4   29     -1.32      0.00
   -4    4   29      0.02      0.00
   -3    4   29      1.18      0.00
   -2    4   29     -0.75      0.00
   -1    4   29     -1.95      0.00
    0    4   29     -0.37      0.00
    1    4   29     -0.04      0.00
    2    4   29     -2.58      0.00
    3    4   29      1.31      0.00
    4    4   29      0.53      0.00
    5    4   29      1.28      0.00
   -8    5   29      1.00      0.00
   -7    5   29      1.18      0.00
   -6    5   29      0.42      0.00
   -5    5   29     -0.48      0.00
   -4    5   29     -1.51      0.00
   -3    5   29      0.50      0.00
   -2    5   29     -0.91      0.00
   -1    5   29      0.43      0.00
    0    5   29      0.19      0.00
    1    5   29      0.90      0.00
    2    5   29     -0.70      0.00
    3    5   29      1.42      0.00
    4    5   29      0.43      0.00
    5    5   29      0.45      0.00
   -7    6   29      0.54      0.00
   -6    6   29     -0.30      0.00
   -5    6   29     -1.46      0.00
   -4    6   29      0.03      0.00
   -3    6   29      0.76      0.00
   -2    6   29      0.72      0.00
   -1    6   29      0.89      0.00
    0    6   29      0.23      0.00
    1    6   29      0.30      0.00
    2    6   29      0.00      0.00
    3    6   29      0.35      0.00
    4    6   29      1.07      0.00
   -5    7   29     -1.02      0.00
   -4    7   29     -0.31      0.00
   -3    7   29      0.77      0.00
   -2    7   29     -0.84      0.00
   -1    7   29      1.56      0.00
    0    7   29      1.09      0.00
    1    7   29     -0.58      0.00
    2    7   29      0.22      0.00
   -8    0   30      1.09      0.00
   -7    0   30      2.56      0.00
   -6    0   30     -0.57      0.00
   -5    0   30     -0.77      0.00
   -4    0   30      0.01      0.00
   -3    0   30     -1.56      0.00
   -2    0   30     -0.90      0.00
   -1    0   30     -1.08      0.00
    0    0   30     -2.01      0.00
    1    0   30      1.78      0.00
    2    0   30      0.94      0.00
    3    0   30     -1.09      0.00
    4    0   30      1.12      0.00
    5    0   30     -2.32      0.00
    6    0   30      2.23      0.00
   -8    1   30     -0.92      0.00
   -7    1   30     -1.00      0.00
   -6    1   30     -1.06      0.00
   -5    1   30      0.30      0.00
   -4    1   30     -0.34      0.00
   -3    1   30     -0.32      0.00
   -2    1   30     -0.90      0.00
   -1    1   30     -0.25      0.00
    0    1   30     -1.39      0.00
    1    1   30     -0.89      0.00
    2    1   30      0.33      0.00
    3    1   30      0.96      0.00
    4    1   30      0.78      0.00
    5    1   30     -1.35      0.00
    6    1   30      0.59      0.00
   -8    2   30      1.22      0.00
   -7    2   30      1.49      0.00
   -6    2   30      1.39      0.00
   -5    2   30     -0.33      0.00
   -4    2   30     -0.37      0.00
   -3    2   30     -0.61      0.00
   -2    2   30     -2.34      0.00
   -1    2   30     -2.49      0.00
    0    2   30     -1.46      0.00
    1    2   30      0.83      0.00
    2    2   30      0.66      0.00
    3    2   30     -0.22      0.00
    4    2   30      1.13      0.00
    5    2   30     -1.58      0.00
    6    2   30      0.54      0.00
   -8    3   30      0.50      0.00
   -7    3   30     -2.73      0.00
   -6    3   30      0.09      0.00
   -5    3   30      0.93      0.00
   -4    3   30     -0.08      0.00
   -3    3   30     -0.24      0.00
   -2    3   30      0.84      0.00
   -1    3   30      2.68      0.00
    0    3   30     -0.72      0.00
    1    3   30      0.73      0.00
    2    3   30      1.26      0.00
    3    3   30     -0.02      0.00
    4    3   30     -0.50      0.00
    5    3   30     -1.77      0.00
   -8    4   30     -0.39      0.00
   -7    4   30     -0.12      0.00
   -6    4   30      0.42      0.00
   -5    4   30      0.16      0.00
   -4    4   30      0.65      0.00
   -3    4   30     -0.71      0.00
   -2    4   30     -2.44      0.00
   -1    4   30     -1.34      0.00
    0    4   30     -1.88      0.00
    1    4   30     -1.59      0.00
    2    4   30      0.88      0.00
    3    4   30     -1.22      0.00
    4    4   30      0.11      0.00
    5    4   30     -0.82      0.00
   -7    5   30     -1.35      0.00
   -6    5   30      0.75      0.00
   -5    5   30      0.49      0.00
   -4    5   30     -0.08      0.00
   -3    5   30     -0.72      0.00
   -2    5   30      1.19      0.00
   -1    5   30      0.65      0.00
    0    5   30      1.21      0.00
    1    5   30     -0.06      0.00
    2    5   30      1.58      0.00
    3    5   30     -1.49      0.00
    4    5   30     -0.63      0.00
   -6    6   30     -1.26      0.00
   -5    6   30      0.19      0.00
   -4    6   30      1.52      0.00
   -3    6   30     -1.34      0.00
   -2    6   30      1.17      0.00
   -1    6   30     -1.03      0.00
    0    6   30     -1.10      0.00
    1    6   30     -1.21      0.00
    2    6   30      0.17      0.00
    3    6   30     -1.24      0.00
   -4    7   30     -1.42      0.00
   -3    7   30     -0.14      0.00
   -2    7   30     -2.73      0.00
   -1    7   30     -0.84      0.00
    0    7   30     -1.44      0.00
    1    7   30     -0.34      0.00
   -8    1   31     -0.76      0.00
   -7    1   31     -1.62      0.00
   -6    1   31      0.45      0.00
   -5    1   31      0.97      0.00
   -4    1   31      0.56      0.00
   -3    1   31      1.16      0.00
   -2    1   31      0.28      0.00
   -1    1   31      1.24      0.00
    0    1   31      2.58      0.00
    1    1   31     -0.78      0.00
    2    1   31     -0.99      0.00
    3    1   31      0.29      0.00
    4    1   31     -1.31      0.00
    5    1   31      2.53      0.00
   -8    2   31      0.09      0.00
   -7    2   31      1.90      0.00
   -6    2   31      1.18      0.00
   -5    2   31     -1.47      0.00
   -4    2   31     -0.20      0.00
   -3    2   31      0.20      0.00
   -2    2   31     -0.32      0.00
   -1    2   31     -0.35      0.00
    0    2   31      1.26      0.00
    1    2   31     -0.45      0.00
    2    2   31     -0.44      0.00
    3    2   31     -0.54      0.00
    4    2   31     -0.47      0.00
    5    2   31      2.27      0.00
   -8    3   31     -0.45      0.00
   -7    3   31     -0.92      0.00
   -6    3   31     -1.26      0.00
   -5    3   31     -0.14      0.00
   -4    3   31      0.48      0.00
   -3    3   31      0.03      0.00
   -2    3   31      1.97      0.00
   -1    3   31      0.37      0.00
    0    3   31      1.71      0.00
    1    3   31     -0.09      0.00
    2    3   31     -0.73      0.00
    3    3   31      0.85      0.00
    4    3   31     -0.48      0.00
    5    3   31      1.42      0.00
   -7    4   31      2.70      0.00
   -6    4   31     -0.25      0.00
   -5    4   31     -0.10      0.00
   -4    4   31      0.52      0.00
   -3    4   31     -0.32      0.00
   -2    4   31     -1.27      0.00
   -1    4   31     -2.50      0.00
    0    4   31     -0.95      0.00
    1    4   31     -0.44      0.00
    2    4   31     -1.64      0.00
    3    4   31      1.42      0.00
    4    4   31      1.06      0.00
   -6    5   31      0.34      0.00
   -5    5   31      0.12      0.00
   -4    5   31     -0.83      0.00
   -3    5   31      1.85      0.00
   -2    5   31      1.28      0.00
   -1    5   31      1.34      0.00
    0    5   31      1.81      0.00
    1    5   31      3.10      0.00
    2    5   31     -0.27      0.00
    3    5   31      1.36      0.00
   -5    6   31     -0.27      0.00
   -4    6   31      1.16      0.00
   -3    6   31      0.39      0.00
   -2    6   31     -0.27      0.00
   -1    6   31      0.37      0.00
    0    6   31     -0.35      0.00
    1    6   31     -0.24      0.00
    2    6   31     -0.42      0.00
   -2    7   31     -0.90      0.00
   -1    7   31      0.95      0.00
   -8    0   32     -0.20      0.00
   -7    0   32      1.32      0.00
   -6    0   32     -0.95      0.00
   -4    0   32      0.81      0.00
   -3    0   32     -1.39      0.00
   -2    0   32      1.25      0.00
   -1    0   32      0.28      0.00
    0    0   32     -3.06      0.00
    1    0   32      0.25      0.00
    2    0   32      1.42      0.00
    3    0   32      0.08      0.00
    4    0   32      1.43      0.00
    5    0   32     -2.31      0.00
   -8    1   32     -0.09      0.00
   -7    1   32     -0.24      0.00
   -6    1   32     -0.53      0.00
   -5    1   32      1.47      0.00
   -4    1   32      0.55      0.00
   -3    1   32      0.07      0.00
   -2    1   32      0.54      0.00
   -1    1   32     -0.47      0.00
    0    1   32     -0.05      0.00
    1    1   32      0.43      0.00
    2    1   32      0.73      0.00
    3    1   32     -0.08      0.00
    4    1   32      0.59      0.00
    5    1   32     -1.90      0.00
   -8    2   32      0.40      0.00
   -7    2   32      0.93      0.00
   -6    2   32      0.68      0.00
   -5    2   32      0.04      0.00
   -4    2   32     -1.07      0.00
   -3    2   32      0.01      0.00
   -2    2   32      0.52      0.00
   -1    2   32      0.54      0.00
    0    2   32     -1.13      0.00
    1    2   32      0.75      0.00
    2    2   32      0.58      0.00
    3    2   32     -0.35      0.00
    4    2   32      0.76      0.00
    5    2   32     -1.79      0.00
   -7    3   32     -2.43      0.00
   -6    3   32     -0.66      0.00
   -5    3   32      1.41      0.00
   -4    3   32     -0.56      0.00
   -3    3   32      0.01      0.00
   -2    3   32      0.35      0.00
   -1    3   32      1.07      0.00
    0    3   32     -0.58      0.00
    1    3   32      1.00      0.00
    2    3   32      0.50      0.00
    3    3   32     -0.49      0.00
    4    3   32     -0.85      0.00
   -7    4   32      0.33      0.00
   -6    4   32      0.64      0.00
   -5    4   32      0.29      0.00
   -4    4   32     -0.37      0.00
   -3    4   32     -0.81      0.00
   -2    4   32     -1.52      0.00
   -1    4   32      1.00      0.00
    0    4   32     -1.24      0.00
    1    4   32     -1.53      0.00
    2    4   32      0.21      0.00
    3    4   32     -1.11      0.00
   -6    5   32      0.30      0.00
   -5    5   32     -0.25      0.00
   -4    5   32     -1.22      0.00
   -3    5   32      0.00      0.00
   -2    5   32      1.50      0.00
   -1    5   32      1.09      0.00
    0    5   32      1.46      0.00
    1    5   32      0.16      0.00
    2    5   32      1.42      0.00
   -4    6   32      1.07      0.00
   -3    6   32     -1.86      0.00
   -2    6   32     -0.02      0.00
   -1    6   32     -0.29      0.00
    0    6   32     -0.85      0.00
    1    6   32     -1.91      0.00
   -7    1   33     -0.96      0.00
   -6    1   33     -0.28      0.00
   -5    1   33     -0.43      0.00
   -4    1   33     -0.89      0.00
   -3    1   33      0.58      0.00
   -2    1   33     -1.99      0.00
   -1    1   33     -1.37      0.00
    0    1   33      0.99      0.00
    1    1   33     -0.48      0.00
    2    1   33     -1.01      0.00
    3    1   33      0.01      0.00
    4    1   33     -0.71      0.00
   -7    2   33      0.53      0.00
   -6    2   33      0.86      0.00
   -5    2   33     -2.43      0.00
   -4    2   33     -0.01      0.00
   -3    2   33      0.71      0.00
   -2    2   33     -0.68      0.00
   -1    2   33      0.63      0.00
    0    2   33      0.35      0.00
    1    2   33     -1.35      0.00
    2    2   33     -0.52      0.00
    3    2   33      0.50      0.00
    4    2   33     -0.13      0.00
   -7    3   33     -0.87      0.00
   -6    3   33     -0.93      0.00
   -5    3   33     -0.64      0.00
   -4    3   33      1.48      0.00
   -3    3   33      0.33      0.00
   -2    3   33     -0.11      0.00
   -1    3   33     -2.73      0.00
    0    3   33      0.20      0.00
    1    3   33     -0.51      0.00
    2    3   33      0.16      0.00
    3    3   33      0.88      0.00
   -6    4   33      0.02      0.00
   -5    4   33     -0.54      0.00
   -4    4   33      1.47      0.00
   -3    4   33     -0.30      0.00
   -2    4   33     -0.20      0.00
   -1    4   33     -1.20      0.00
    0    4   33     -0.43      0.00
    1    4   33     -0.19      0.00
    2    4   33     -1.14      0.00
    3    4   33      0.83      0.00
   -5    5   33     -0.11      0.00
   -4    5   33     -1.08      0.00
   -3    5   33      0.78      0.00
   -2    5   33      0.06      0.00
   -1    5   33     -2.12      0.00
    0    5   33     -0.63      0.00
    1    5   33      1.57      0.00
   -7    0   34      1.02      0.00
   -3    0   34     -1.26      0.00
   -2    0   34      1.90      0.00
   -1    0   34      1.82      0.00
    0    0   34     -0.24      0.00
    1    0   34      0.57      0.00
    2    0   34      1.32      0.00
    3    0   34     -0.21      0.00
   -7    1   34      0.49      0.00
   -4    1   34      0.03      0.00
   -3    1   34     -1.15      0.00
   -2    1   34      0.60      0.00
   -1    1   34     -0.96      0.00
    0    1   34      0.03      0.00
    1    1   34      0.44      0.00
    2    1   34      0.76      0.00
    3    1   34     -0.74      0.00
   -6    2   34      1.07      0.00
   -5    2   34      1.41      0.00
   -4    2   34     -0.63      0.00
   -3    2   34     -0.76      0.00
   -2    2   34      1.07      0.00
   -1    2   34      2.08      0.00
    0    2   34      0.54      0.00
    1    2   34      0.71      0.00
    2    2   34     -0.11      0.00
    3    2   34     -0.56      0.00
   -6    3   34     -0.73      0.00
   -5    3   34      1.88      0.00
   -4    3   34     -1.16      0.00
   -3    3   34     -0.16      0.00
   -2    3   34      0.36      0.00
   -1    3   34      0.45      0.00
    0    3   34     -0.21      0.00
    1    3   34      1.08      0.00
    2    3   34      0.47      0.00
   -5    4   34      0.69      0.00
   -4    4   34     -0.25      0.00
   -3    4   34     -0.18      0.00
   -2    4   34      0.32      0.00
   -1    4   34      4.10      0.00
    0    4   34      1.26      0.00
    1    4   34      0.33      0.00
    2    4   34     -0.32      0.00
   -3    5   34      0.54      0.00
   -2    5   34      1.58      0.00
   -1    5   34      0.97      0.00
    0    5   34      1.39      0.00
   -4    1   35     -1.91      0.00
   -3    1   35      1.53      0.00
   -2    1   35     -0.44      0.00
   -1    1   35     -0.87      0.00
    0    1   35     -0.55      0.00
    1    1   35     -0.18      0.00
    2    1   35     -0.45      0.00
   -5    2   35     -1.35      0.00
   -4    2   35      0.75      0.00
   -3    2   35      1.42      0.00
   -2    2   35     -1.31      0.00
   -1    2   35      0.34      0.00
    0    2   35      0.14      0.00
    1    2   35     -0.77      0.00
    2    2   35     -0.49      0.00
   -5    3   35     -1.30      0.00
   -4    3   35      0.83      0.00
   -3    3   35      0.69      0.00
   -2    3   35     -0.31      0.00
   -1    3   35     -3.20      0.00
    0    3   35     -1.01      0.00
    1    3   35     -1.09      0.00
   -4    4   35      0.98      0.00
   -3    4   35     -1.19      0.00
   -2    4   35     -1.04      0.00
   -1    4   35     -1.51      0.00
    0    4   35     -0.83      0.00
   -3    0   36     -2.12      0.00
   -2    0   36     -0.71      0.00
   -1    0   36     -0.34      0.00
    0    0   36     -0.21      0.00
    1    0   36     -0.62      0.00
   -4    1   36     -0.16      0.00
   -3    1   36     -1.49      0.00
   -2    1   36      1.17      0.00
   -1    1   36     -0.19      0.00
    0    1   36      0.07      0.00
    1    1   36     -0.22      0.00
   -4    2   36      0.15      0.00
   -3    2   36     -1.04      0.00
   -2    2   36     -0.16      0.00
   -1    2   36      0.92      0.00
    0    2   36      0.94      0.00
    1    2   36      0.21      0.00
   -3    3   36      0.38      0.00
   -2    3   36      1.69      0.00
   -1    3   36      1.40      0.00
    0    3   36      0.36      0.00
   -3    1   37      1.07      0.00
   -2    1   37      0.74      0.00
   -1    1   37      0.42      0.00
    0    1   37     -0.19      0.00
   -2    2   37     -2.05      0.00
   11    0    0     -0.21      0.00
   12    0    0      0.37      0.00
   13    0    0     -1.01      0.00
    1    1    0      0.15      0.00
    7    1    0     -2.13      0.00
   12    1    0     -1.01      0.00
   13    1    0     -0.60      0.00
   13    2    0     -1.64      0.00
    2    3    0     -4.90      0.00
    4    5    0     -2.85      0.00
    5    5    0      2.51      0.00
  -13    1    1      0.63      0.00
  -12    1    1      0.33      0.00
   -1    1    1     15.02      0.00
    0    1    1    -80.22      0.00
   12    1    1     -0.10      0.00
   13    1    1      2.48      0.00
  -13    2    1      1.44      0.00
   13    2    1      0.73      0.00
   -2    3    1      4.90      0.00
    2    3    1      2.87      0.00
    7    3    1     -0.54      0.00
   -5    5    1      4.24      0.00
  -13    0    2     -0.65      0.00
  -12    0    2     -1.23      0.00
   12    0    2     -0.62      0.00
   13    0    2     -3.28      0.00
  -13    1    2     -1.66      0.00
    0    1    2     -9.45      0.00
   13    1    2     -0.52      0.00
  -13    2    2     -2.00      0.00
    0    4    2     -3.45      0.00
    1    4    2      6.20      0.00
    4    4    2     -2.30      0.00
   -1    7    2     -1.05      0.00
  -13    1    3      1.84      0.00
   -1    5    3      3.04      0.00
   -1    7    3      1.20      0.00
  -13    0    4     -2.07      0.00
  -13    1    4     -2.33      0.00
    0    4    4     -1.46      0.00
    6    4    4      4.43      0.00
   -3    2    5      4.89      0.00
   -1    3    5     -3.72      0.00
   -1    4    5      0.94      0.00
   -1    5    5     -0.02      0.00
   -3    0    6     -2.49      0.00
   -4    1    6      3.38      0.00
    1   12    6     -0.36      0.00
    2   12    6     -0.25      0.00
    4    1    7     -0.34      0.00
    0   12    7     -1.66      0.00
    1   12    7      0.08      0.00
   -3    1    8     -6.25      0.00
  -12    5    8     -2.40      0.00
   -1   12    8      0.08      0.00
    0   12    8      1.12      0.00
    1   12    8     -1.43      0.00
    1    3    9     -4.95      0.00
  -12    5    9      0.75      0.00
    0    0   10      1.15      0.00
    1    0   10     -3.09      0.00
  -12    5   10     -1.70      0.00
  -12    5   11      1.18      0.00
    3   11   11     -0.68      0.00
   -2    0   12      5.10      0.00
    2    0   12     -0.83      0.00
   -1    2   12     -0.32      0.00
    7    2   12     -1.73      0.00
    2   11   12      1.64      0.00
    3   11   12      0.08      0.00
   -6    1   13      1.70      0.00
   -1    1   13     -1.21      0.00
   -4   11   13      1.87      0.00
    2   11   13     -2.75      0.00
    3   11   13     -0.72      0.00
   -6    0   14     -1.31      0.00
   -4   11   14     -0.29      0.00
    1   11   14      0.19      0.00
    2   11   14      0.42      0.00
    3    1   15     -4.60      0.00
    0   11   15     -0.44      0.00
    1   11   15      2.62      0.00
    4   10   16     -1.01      0.00
    0   11   16      0.33      0.00
    1   11   16      1.14      0.00
   -2    1   17      2.36      0.00
   -3    2   17      5.00      0.00
    3    2   17      0.07      0.00
  -12    3   17      0.24      0.00
    3   10   17      1.93      0.00
  -12    2   18     -0.51      0.00
   -1    2   18      1.27      0.00
    3    3   18     -0.80      0.00
  -11    5   18      0.44      0.00
    3   10   18     -0.05      0.00
  -12    1   19     -1.12      0.00
   -1    1   19     -3.39      0.00
  -12    2   19     -0.04      0.00
   -7    3   19     -2.47      0.00
  -10    6   19     -0.90      0.00
    2   10   19      0.87      0.00
  -12    0   20      1.67      0.00
    2    0   20     -4.99      0.00
  -12    1   20     -0.34      0.00
   -1    1   20      0.39      0.00
    3    1   20      0.23      0.00
  -11    4   20      0.10      0.00
  -10    6   20     -0.53      0.00
  -11    3   21      0.90      0.00
  -11    4   21      0.33      0.00
    3    0   22     -0.11      0.00
  -11    2   22     -0.60      0.00
   -6    2   22     -1.92      0.00
  -11    3   22     -0.72      0.00
  -10    5   22     -0.37      0.00
  -11    1   23     -0.04      0.00
  -11    2   23     -0.23      0.00
  -11    0   24      0.62      0.00
  -11    1   24      1.01      0.00
    3    3   24     -1.71      0.00
  -10    4   24      2.51      0.00
  -10    3   26      0.22      0.00
  -10    1   27     -1.91      0.00
  -10    2   27      0.42      0.00
   -9    0   30      1.08      0.00
   -9    1   30      0.94      0.00
   -5    0   32     -1.23      0.00
   -6    0   34      1.07      0.00
   -5    0   34      1.26      0.00
   -4    0   34      3.12      0.00
   -6    1   34     -0.41      0.00
   -5    1   34      1.16      0.00
   -5    1   35     -1.94      0.00
   -4    0   36      2.98      0.00
    0    0    0      0.00      0.00
loop_
  _platon_squeeze_void_nr
  _platon_squeeze_void_average_x
  _platon_squeeze_void_average_y
  _platon_squeeze_void_average_z
  _platon_squeeze_void_volume
  _platon_squeeze_void_count_electrons
  _platon_squeeze_void_content
   1  0.496  0.000  0.500       230        35 ' '
   2  0.500  0.500  0.000       230        35 ' '
loop_
  _platon_missing_refln_index_h
  _platon_missing_refln_index_k
  _platon_missing_refln_index_l
  _platon_missing_refln_theta
    1    1    0     2.945
    2    3    0     7.624
   -1    1    1     2.966
    0    1    1     2.273
   -2    3    1     7.605
    2    3    1     7.714
    0    1    2     2.605
    0    4    2     8.761
    1    4    2     9.038
    0    4    4     9.128
   -3    2    5     7.908
   -1    3    5     7.577
   -1    4    5     9.501
   -3    0    6     6.970
   -4    1    6     8.911
   -3    1    8     8.125
    1    3    9     9.692
    0    0   10     7.363
    1    0   10     7.905
   -2    0   12     9.198
   -1    2   12     9.806
   -1    1   13     9.763
_platon_squeeze_void_probe_radius                  1.20
_platon_squeeze_details
)
TITL Y in P2(1)/c
CELL   10.2300    9.4680   28.0060     90.00     98.05     90.00
SPGR P21/c
Q101 0.489 0.167 0.468 !       2.25 eA-3
Q102 0.550 0.134 0.185 !       2.25 eA-3
Q103 0.498 0.275 0.462 !       2.17 eA-3
C104 0.580 0.401 0.008 !       2.07 eA-3
C105 0.439 0.552 0.009 !       2.00 eA-3
Q106 1.009 0.124 0.192 !       1.93 eA-3
Q107 0.178 0.504 0.109 !       1.82 eA-3
C108 0.628 0.570 0.040 !       1.77 eA-3
C109 0.715 0.469 0.046 !       1.70 eA-3
Q110 0.412 0.993 0.196 !       1.69 eA-3
Q111 0.069 0.433 0.013 !       1.69 eA-3
C112 0.657 0.308 0.482 !       1.56 eA-3
Q113 0.102 0.055 0.101 !       1.52 eA-3
Q114 0.520 0.121 0.077 !       1.51 eA-3
Q115 0.959 0.659 0.453 !       1.49 eA-3
Q116 0.870 0.126 0.001 !       1.48 eA-3
Q117 0.685 0.623 0.304 !       1.45 eA-3
Q118 0.448 0.190 0.235 !       1.44 eA-3
Q119 0.261 0.250 0.337 !       1.40 eA-3
Q120 0.943 0.990 0.412 !       1.39 eA-3
Q121 0.983 0.973 0.286 !       1.36 eA-3
Q122 0.310 0.687 0.259 !       1.35 eA-3
Q123 0.581 0.599 0.283 !       1.33 eA-3
Q124 0.061 0.994 0.391 !       1.33 eA-3
Q125 0.822 0.912 0.390 !       1.31 eA-3
Q126 0.193 0.343 0.141 !       1.30 eA-3
Q127 0.943 0.318 0.173 !       1.29 eA-3
Q128 0.161 0.509 0.025 !       1.28 eA-3
C129 0.607 0.473 0.049 !       1.28 eA-3
Q130 0.530 0.032 0.272 !       1.28 eA-3
Q131 0.118 0.099 0.055 !       1.27 eA-3
Q132 0.089 0.312 0.040 !       1.25 eA-3
Q133 0.224 0.759 0.147 !       1.25 eA-3
Q134 0.940 0.907 0.157 !       1.25 eA-3
Q135 0.339 0.781 0.204 !       1.25 eA-3
C136 0.677 0.937 0.493 !       1.24 eA-3
Q137 0.956 0.408 0.063 !       1.23 eA-3
Q138 0.561 0.370 0.228 !       1.22 eA-3
Q139 0.275 0.679 0.405 !       1.22 eA-3
Q140 0.876 0.131 0.430 !       1.20 eA-3
Q141 0.398 0.650 0.214 !       1.20 eA-3
Q142 0.184 1.004 0.188 !       1.19 eA-3
Q143 0.878 0.096 0.265 !       1.19 eA-3
Q144 0.656 0.120 0.062 !       1.19 eA-3
Q145 0.530 0.245 0.423 !       1.18 eA-3
Q146 0.410 0.401 0.094 !       1.18 eA-3
Q147 0.721 0.163 0.362 !       1.16 eA-3
Q148 0.444 0.316 0.299 !       1.16 eA-3
Q149 0.242 0.554 0.291 !       1.16 eA-3
Q150 0.814 0.817 0.317 !       1.16 eA-3
Q151 0.597 0.627 0.352 !       1.15 eA-3
C152 0.495 0.941 0.462 !       1.15 eA-3
Q153 0.885 0.038 0.443 !       1.15 eA-3
Q154 0.577 0.645 0.306 !       1.15 eA-3
C155 0.333 0.035 0.433 !       1.14 eA-3
Q156 0.196 0.223 0.429 !       1.14 eA-3
C157 0.656 0.504 0.009 !       1.13 eA-3
Q158 0.318 0.819 0.438 !       1.13 eA-3
Q159 0.316 0.996 0.108 !       1.12 eA-3
C160 0.956 0.476 0.018 !       1.12 eA-3
Q161 0.317 0.563 0.415 !       1.11 eA-3
Q162 0.691 0.752 0.101 !       1.11 eA-3
Q163 0.739 0.349 0.374 !       1.11 eA-3
Q164 0.689 0.584 0.384 !       1.10 eA-3
C165 0.306 0.841 0.481 !       1.10 eA-3
Q166 0.688 0.757 0.383 !       1.09 eA-3
Q167 0.205 0.300 0.099 !       1.09 eA-3
Q168 0.721 0.655 0.445 !       1.08 eA-3
Q169 0.715 0.248 0.203 !       1.08 eA-3
Q170 0.650 0.722 0.334 !       1.08 eA-3
Q171 0.815 0.938 0.428 !       1.08 eA-3
Q172 0.750 0.054 0.109 !       1.07 eA-3
Q173 0.722 0.756 0.351 !       1.07 eA-3
Q174 0.250 0.599 0.147 !       1.07 eA-3
Q175 0.231 0.468 0.178 !       1.07 eA-3
Q176 0.231 0.968 0.156 !       1.06 eA-3
Q177 0.724 0.874 0.312 !       1.06 eA-3
Q178 0.888 0.124 0.060 !       1.06 eA-3
Q179 0.972 0.154 0.368 !       1.06 eA-3
Q180 0.059 0.186 0.079 !       1.06 eA-3
Q181 0.068 0.409 0.155 !       1.06 eA-3
Q182 0.921 0.565 0.248 !       1.05 eA-3
Q183 0.663 0.092 0.126 !       1.05 eA-3
C184 0.822 0.490 0.086 !       1.04 eA-3
Q185 0.937 0.789 0.489 !       1.04 eA-3
Q186 0.582 0.545 0.258 !       1.03 eA-3
Q187 0.833 0.120 0.314 !       1.02 eA-3
Q188 0.117 0.134 0.460 !       1.02 eA-3
Q189 0.296 0.353 0.400 !       1.01 eA-3
Q190 0.292 0.535 0.124 !       1.01 eA-3
Q191 0.653 0.996 0.079 !       1.01 eA-3
Q192 0.431 0.936 0.039 !       1.01 eA-3
Q193 0.563 0.097 0.033 !       1.01 eA-3
Q194 0.858 0.665 0.477 !       1.00 eA-3
Q195 1.005 0.532 0.487 !       1.00 eA-3
Q196 0.672 0.845 0.282 !       0.99 eA-3
Q197 0.055 0.660 0.409 !       0.99 eA-3
Q198 0.564 0.568 0.086 !       0.98 eA-3
Q199 0.294 0.028 0.094 !       0.97 eA-3
)
;
_shelx_shelxl_version_number     2014/7
_olex2_submission_special_instructions 'No special instructions were received'
loop_
_space_group_symop_operation_xyz
'x, y, z'
'-x, y+1/2, -z+1/2'
'-x, -y, -z'
'x, -y-1/2, z-1/2'
loop_
_atom_site_label
_atom_site_type_symbol
_atom_site_fract_x
_atom_site_fract_y
_atom_site_fract_z
_atom_site_U_iso_or_equiv
_atom_site_adp_type
_atom_site_occupancy
_atom_site_site_symmetry_order
_atom_site_calc_flag
_atom_site_refinement_flags_posn
_atom_site_refinement_flags_adp
Co1 Co 0.77973(12) 1.38336(14) 0.69352(4) 0.0176(4) Uani 1 1 d . .
Co2 Co 0.55644(12) 1.43970(15) 0.59720(4) 0.0186(4) Uani 1 1 d . .
O1 O 0.5327(8) 1.2463(8) 0.6264(3) 0.040(2) Uani 1 1 d . .
O11 O 0.5785(9) 1.6409(10) 0.5642(3) 0.043(2) Uani 1 1 d . U
H11A H 0.5015 1.6514 0.5694 0.065 Uiso 1 1 d R .
H11B H 0.5886 1.6337 0.5347 0.065 Uiso 1 1 d R .
O2 O 0.7099(7) 1.1869(8) 0.6778(3) 0.0284(17) Uani 1 1 d . .
O3 O 0.7825(7) 0.6527(8) 0.7059(3) 0.0275(16) Uani 1 1 d . .
O4 O 0.6326(7) 0.5183(7) 0.6660(2) 0.0221(15) Uani 1 1 d . .
O5 O 0.2877(8) 0.8780(10) 0.7350(3) 0.037(2) Uani 1 1 d . .
O6 O 0.0812(7) 0.8486(9) 0.7452(2) 0.0296(18) Uani 1 1 d . .
O7 O -0.4103(7) 0.6259(10) 0.4642(3) 0.0349(19) Uani 1 1 d . .
O8 O -0.3479(6) 0.5388(8) 0.3992(2) 0.0205(15) Uani 1 1 d . .
O9 O 0.1006(7) 0.6078(9) 0.3590(2) 0.0278(17) Uani 1 1 d . .
O10 O 0.2626(7) 0.6108(10) 0.4219(3) 0.0341(19) Uani 1 1 d . .
C1 C 0.6030(10) 1.1590(11) 0.6520(4) 0.022(2) Uani 1 1 d . .
C2 C 0.5518(9) 1.0101(10) 0.6533(4) 0.0191(19) Uani 1 1 d . .
C3 C 0.6357(10) 0.8988(11) 0.6678(4) 0.024(2) Uani 1 1 d . .
H3 H 0.7255 0.9144 0.6770 0.029 Uiso 1 1 calc R .
C4 C 0.5837(10) 0.7629(11) 0.6687(3) 0.021(2) Uani 1 1 d . .
C5 C 0.4491(10) 0.7417(11) 0.6579(3) 0.020(2) Uani 1 1 d . .
H5 H 0.4149 0.6513 0.6601 0.024 Uiso 1 1 calc R .
C6 C 0.3639(9) 0.8537(11) 0.6437(4) 0.020(2) Uani 1 1 d . .
C7 C 0.4157(10) 0.9846(12) 0.6403(4) 0.024(2) Uani 1 1 d . .
H7 H 0.3603 1.0591 0.6293 0.029 Uiso 1 1 calc R .
C8 C 0.6739(10) 0.6395(10) 0.6811(3) 0.020(2) Uani 1 1 d . .
C9 C 0.2190(9) 0.8246(11) 0.6314(4) 0.021(2) Uani 1 1 d . .
C10 C 0.1307(10) 0.8252(11) 0.6649(3) 0.021(2) Uani 1 1 d . .
C11 C -0.0018(10) 0.7915(14) 0.6487(3) 0.029(3) Uani 1 1 d . .
H11 H -0.0611 0.7926 0.6710 0.035 Uiso 1 1 calc R .
C12 C -0.0497(10) 0.7563(15) 0.6008(4) 0.033(3) Uani 1 1 d . U
H12 H -0.1380 0.7331 0.5916 0.039 Uiso 1 1 calc R .
C13 C 0.0392(9) 0.7572(11) 0.5674(3) 0.021(2) Uani 1 1 d . .
C14 C 0.1692(9) 0.7928(12) 0.5838(3) 0.023(2) Uani 1 1 d . .
H14 H 0.2278 0.7956 0.5612 0.027 Uiso 1 1 calc R .
C15 C 0.1712(10) 0.8528(11) 0.7180(3) 0.022(2) Uani 1 1 d . .
C16 C -0.0052(9) 0.7130(12) 0.5166(4) 0.025(2) Uani 1 1 d . .
C17 C -0.1377(10) 0.6819(12) 0.5005(4) 0.025(2) Uani 1 1 d . .
H17 H -0.2000 0.6965 0.5212 0.031 Uiso 1 1 calc R .
C18 C -0.1779(10) 0.6308(11) 0.4553(3) 0.021(2) Uani 1 1 d . .
C19 C -0.0875(9) 0.6087(11) 0.4232(3) 0.019(2) Uani 1 1 d . .
H19 H -0.1157 0.5726 0.3926 0.023 Uiso 1 1 calc R .
C20 C 0.0444(10) 0.6405(12) 0.4370(3) 0.022(2) Uani 1 1 d . .
C21 C 0.0849(9) 0.6890(11) 0.4844(4) 0.022(2) Uani 1 1 d . .
H21 H 0.1741 0.7055 0.4944 0.027 Uiso 1 1 calc R .
C22 C 0.1466(10) 0.6159(11) 0.4042(4) 0.024(2) Uani 1 1 d . .
C23 C -0.3209(10) 0.5951(11) 0.4379(4) 0.024(2) Uani 1 1 d . .
N1 N 0.8425(14) 0.8419(14) 0.7891(4) 0.053(3) Uani 1 1 d . U
H1A H 0.8585 0.8078 0.7609 0.064 Uiso 1 1 calc R .
H1B H 0.9151 0.8307 0.8103 0.064 Uiso 1 1 calc R .
C24 C 0.812(2) 0.989(2) 0.7841(7) 0.076(5) Uani 1 1 d . U
H24A H 0.7813 1.0228 0.8130 0.114 Uiso 1 1 calc GR .
H24B H 0.7444 1.0030 0.7571 0.114 Uiso 1 1 calc GR .
H24C H 0.8898 1.0404 0.7790 0.114 Uiso 1 1 calc GR .
C25 C 0.737(3) 0.764(3) 0.8049(8) 0.106(8) Uani 1 1 d . U
H25A H 0.6560 0.7841 0.7840 0.159 Uiso 1 1 calc GR .
H25B H 0.7273 0.7916 0.8373 0.159 Uiso 1 1 calc GR .
H25C H 0.7552 0.6650 0.8041 0.159 Uiso 1 1 calc GR .
loop_
_atom_site_aniso_label
_atom_site_aniso_U_11
_atom_site_aniso_U_22
_atom_site_aniso_U_33
_atom_site_aniso_U_23
_atom_site_aniso_U_13
_atom_site_aniso_U_12
Co1 0.0152(7) 0.0257(7) 0.0117(6) 0.0036(5) 0.0011(5) -0.0025(5)
Co2 0.0112(6) 0.0298(8) 0.0147(6) 0.0018(5) 0.0012(5) -0.0014(5)
O1 0.022(4) 0.026(4) 0.068(6) 0.016(4) -0.009(4) -0.008(3)
O11 0.045(5) 0.062(6) 0.025(4) 0.017(4) 0.012(4) -0.002(4)
O2 0.021(4) 0.025(4) 0.037(4) 0.003(3) -0.004(3) -0.008(3)
O3 0.019(4) 0.033(4) 0.031(4) 0.000(3) 0.002(3) 0.001(3)
O4 0.022(4) 0.021(4) 0.023(4) -0.001(3) 0.002(3) -0.002(3)
O5 0.027(4) 0.067(6) 0.021(4) -0.015(4) 0.010(3) -0.012(4)
O6 0.022(4) 0.055(5) 0.013(3) -0.009(3) 0.002(3) -0.003(3)
O7 0.017(4) 0.060(6) 0.030(4) -0.004(4) 0.008(3) -0.003(4)
O8 0.013(3) 0.036(4) 0.014(3) -0.003(3) 0.004(2) 0.008(3)
O9 0.025(4) 0.048(5) 0.011(3) -0.007(3) 0.005(3) -0.010(3)
O10 0.015(4) 0.062(6) 0.028(4) 0.001(4) 0.012(3) 0.010(4)
C1 0.022(5) 0.020(5) 0.024(5) -0.002(4) 0.005(4) -0.001(4)
C2 0.014(4) 0.019(5) 0.023(5) -0.001(4) -0.004(4) -0.003(4)
C3 0.011(4) 0.029(6) 0.032(6) 0.000(4) 0.000(4) -0.008(4)
C4 0.022(5) 0.020(5) 0.019(5) 0.001(4) 0.001(4) 0.000(4)
C5 0.020(5) 0.025(5) 0.016(5) 0.001(4) 0.000(4) -0.005(4)
C6 0.016(5) 0.024(5) 0.021(5) -0.009(4) 0.005(4) 0.001(4)
C7 0.015(5) 0.034(6) 0.025(5) -0.004(4) 0.006(4) 0.008(4)
C8 0.019(5) 0.024(5) 0.017(5) 0.000(4) 0.005(4) 0.006(4)
C9 0.015(5) 0.031(5) 0.017(5) -0.011(4) 0.002(4) -0.003(4)
C10 0.022(5) 0.028(5) 0.012(5) -0.006(4) 0.001(4) -0.005(4)
C11 0.018(5) 0.063(8) 0.008(5) -0.009(5) 0.005(4) -0.005(5)
C12 0.013(5) 0.067(8) 0.019(5) -0.011(5) 0.006(4) -0.011(5)
C13 0.016(5) 0.033(6) 0.014(5) 0.001(4) 0.003(4) -0.005(4)
C14 0.014(5) 0.041(6) 0.015(5) -0.003(4) 0.008(4) -0.003(4)
C15 0.020(5) 0.032(6) 0.013(5) -0.008(4) 0.000(4) -0.005(4)
C16 0.012(4) 0.033(6) 0.029(6) -0.002(4) 0.001(4) 0.002(4)
C17 0.014(5) 0.043(6) 0.019(5) -0.006(4) 0.004(4) -0.007(4)
C18 0.018(5) 0.029(5) 0.016(5) -0.001(4) 0.001(4) -0.006(4)
C19 0.015(5) 0.026(5) 0.015(5) -0.002(4) -0.003(3) -0.003(4)
C20 0.021(5) 0.035(6) 0.012(4) 0.001(4) 0.005(4) -0.011(4)
C21 0.005(4) 0.036(6) 0.025(5) -0.006(4) 0.000(4) -0.004(4)
C22 0.029(6) 0.025(5) 0.018(5) -0.003(4) 0.007(4) -0.020(4)
C23 0.013(5) 0.030(6) 0.026(5) 0.007(4) -0.004(4) 0.000(4)
N1 0.069(8) 0.057(6) 0.039(6) -0.012(5) 0.023(6) -0.008(5)
C24 0.102(14) 0.068(8) 0.058(10) -0.014(6) 0.010(10) 0.009(7)
C25 0.127(15) 0.116(13) 0.086(15) -0.035(11) 0.058(13) -0.054(12)
loop_
_atom_type_symbol
_atom_type_description
_atom_type_scat_dispersion_real
_atom_type_scat_dispersion_imag
_atom_type_scat_source
C C 0.0033 0.0016 'International Tables Vol C Tables 4.2.6.8 and 6.1.1.4'
H H 0.0000 0.0000 'International Tables Vol C Tables 4.2.6.8 and 6.1.1.4'
Co Co 0.3494 0.9721 'International Tables Vol C Tables 4.2.6.8 and 6.1.1.4'
N N 0.0061 0.0033 'International Tables Vol C Tables 4.2.6.8 and 6.1.1.4'
O O 0.0106 0.0060 'International Tables Vol C Tables 4.2.6.8 and 6.1.1.4'
loop_
_geom_angle_atom_site_label_1
_geom_angle_atom_site_label_2
_geom_angle_atom_site_label_3
_geom_angle
_geom_angle_site_symmetry_1
_geom_angle_site_symmetry_3
O2 Co1 O4 105.9(3) . 1_565
O2 Co1 O5 91.7(4) . 2_656
O2 Co1 O6 102.3(3) . 2_656
O2 Co1 O9 96.3(3) . 3_676
O2 Co1 C15 97.3(3) . 2_656
O4 Co1 O5 92.8(3) 1_565 2_656
O4 Co1 O6 142.0(3) 1_565 2_656
O4 Co1 O9 100.8(3) 1_565 3_676
O4 Co1 C15 119.1(3) 1_565 2_656
O5 Co1 C15 30.1(3) 2_656 2_656
O6 Co1 O5 61.1(3) 2_656 2_656
O6 Co1 C15 31.0(3) 2_656 2_656
O9 Co1 O5 161.6(3) 3_676 2_656
O9 Co1 O6 100.9(3) 3_676 2_656
O9 Co1 C15 131.9(3) 3_676 2_656
O1 Co2 O11 178.1(4) . .
O1 Co2 O4 90.0(3) . 1_565
O1 Co2 O7 87.3(3) . 3_576
O1 Co2 O8 83.8(3) . 3_576
O1 Co2 O10 93.3(4) . 3_676
O1 Co2 C23 82.9(3) . 3_576
O11 Co2 O7 90.9(3) . 3_576
O11 Co2 O8 95.8(3) . 3_576
O11 Co2 C23 95.8(3) . 3_576
O4 Co2 O11 91.9(3) 1_565 .
O4 Co2 O7 159.2(3) 1_565 3_576
O4 Co2 O8 99.5(3) 1_565 3_576
O4 Co2 C23 128.3(3) 1_565 3_576
O7 Co2 C23 31.0(3) 3_576 3_576
O8 Co2 O7 59.7(3) 3_576 3_576
O8 Co2 C23 28.9(3) 3_576 3_576
O10 Co2 O11 86.7(4) 3_676 .
O10 Co2 O4 95.1(3) 3_676 1_565
O10 Co2 O7 105.6(3) 3_676 3_576
O10 Co2 O8 165.1(3) 3_676 3_576
O10 Co2 C23 136.3(4) 3_676 3_576
C1 O1 Co2 137.1(7) . .
Co2 O11 H11A 82.6 . .
Co2 O11 H11B 112.5 . .
H11A O11 H11B 115.4 . .
C1 O2 Co1 125.1(7) . .
Co1 O4 Co2 106.4(3) 1_545 1_545
C8 O4 Co1 104.2(6) . 1_545
C8 O4 Co2 133.2(6) . 1_545
C15 O5 Co1 87.0(6) . 2_646
C15 O6 Co1 91.2(6) . 2_646
C23 O7 Co2 87.1(6) . 3_576
C23 O8 Co2 91.2(6) . 3_576
C22 O9 Co1 122.1(6) . 3_676
C22 O10 Co2 139.7(7) . 3_676
O1 C1 C2 117.2(9) . .
O2 C1 O1 125.2(10) . .
O2 C1 C2 117.5(9) . .
C3 C2 C1 121.1(9) . .
C3 C2 C7 119.7(9) . .
C7 C2 C1 119.2(9) . .
C2 C3 H3 120.5 . .
C2 C3 C4 119.0(9) . .
C4 C3 H3 120.5 . .
C3 C4 C8 119.9(9) . .
C5 C4 C3 120.1(9) . .
C5 C4 C8 120.0(9) . .
C4 C5 H5 119.5 . .
C4 C5 C6 121.0(9) . .
C6 C5 H5 119.5 . .
C5 C6 C9 118.9(9) . .
C7 C6 C5 118.7(9) . .
C7 C6 C9 122.3(9) . .
C2 C7 H7 119.3 . .
C6 C7 C2 121.3(10) . .
C6 C7 H7 119.3 . .
O3 C8 O4 120.7(9) . .
O3 C8 C4 121.9(9) . .
O4 C8 C4 117.3(9) . .
C10 C9 C6 124.0(9) . .
C10 C9 C14 117.6(9) . .
C14 C9 C6 118.4(8) . .
C9 C10 C11 118.0(9) . .
C9 C10 C15 123.5(9) . .
C11 C10 C15 118.5(9) . .
C10 C11 H11 118.1 . .
C12 C11 C10 123.8(9) . .
C12 C11 H11 118.1 . .
C11 C12 H12 121.1 . .
C13 C12 C11 117.8(9) . .
C13 C12 H12 121.1 . .
C12 C13 C16 119.9(9) . .
C14 C13 C12 117.7(9) . .
C14 C13 C16 122.3(9) . .
C9 C14 H14 117.5 . .
C13 C14 C9 125.1(9) . .
C13 C14 H14 117.5 . .
O5 C15 Co1 62.9(5) . 2_646
O5 C15 O6 120.6(9) . .
O5 C15 C10 121.8(9) . .
O6 C15 Co1 57.8(5) . 2_646
O6 C15 C10 117.5(8) . .
C10 C15 Co1 174.6(7) . 2_646
C17 C16 C13 121.2(9) . .
C21 C16 C13 121.4(9) . .
C21 C16 C17 117.1(9) . .
C16 C17 H17 119.1 . .
C18 C17 C16 121.7(9) . .
C18 C17 H17 119.1 . .
C17 C18 C19 120.7(9) . .
C17 C18 C23 121.9(9) . .
C19 C18 C23 117.4(9) . .
C18 C19 H19 120.1 . .
C20 C19 C18 119.8(9) . .
C20 C19 H19 120.1 . .
C19 C20 C21 118.7(9) . .
C19 C20 C22 121.9(9) . .
C21 C20 C22 119.2(9) . .
C16 C21 C20 121.8(9) . .
C16 C21 H21 119.1 . .
C20 C21 H21 119.1 . .
O9 C22 C20 114.9(9) . .
O10 C22 O9 126.7(10) . .
O10 C22 C20 118.4(9) . .
O7 C23 Co2 62.0(5) . 3_576
O7 C23 C18 119.9(9) . .
O8 C23 Co2 59.9(5) . 3_576
O8 C23 O7 121.5(9) . .
O8 C23 C18 118.5(9) . .
C18 C23 Co2 173.3(7) . 3_576
H1A N1 H1B 108.0 . .
C24 N1 H1A 109.3 . .
C24 N1 H1B 109.3 . .
C25 N1 H1A 109.3 . .
C25 N1 H1B 109.3 . .
C25 N1 C24 111.5(18) . .
N1 C24 H24A 109.5 . .
N1 C24 H24B 109.5 . .
N1 C24 H24C 109.5 . .
H24A C24 H24B 109.5 . .
H24A C24 H24C 109.5 . .
H24B C24 H24C 109.5 . .
N1 C25 H25A 109.5 . .
N1 C25 H25B 109.5 . .
N1 C25 H25C 109.5 . .
H25A C25 H25B 109.5 . .
H25A C25 H25C 109.5 . .
H25B C25 H25C 109.5 . .
loop_
_geom_bond_atom_site_label_1
_geom_bond_atom_site_label_2
_geom_bond_distance
_geom_bond_site_symmetry_2
Co1 O2 2.018(7) .
Co1 O4 2.042(7) 1_565
Co1 O5 2.207(7) 2_656
Co1 O6 2.095(7) 2_656
Co1 O9 2.042(7) 3_676
Co1 C15 2.476(9) 2_656
Co2 O1 2.033(8) .
Co2 O11 2.142(9) .
Co2 O4 2.110(7) 1_565
Co2 O7 2.204(8) 3_576
Co2 O8 2.159(6) 3_576
Co2 O10 2.054(7) 3_676
Co2 C23 2.494(10) 3_576
O1 C1 1.253(13) .
O11 H11A 0.8260 .
O11 H11B 0.8493 .
O2 C1 1.252(13) .
O3 C8 1.231(12) .
O4 Co1 2.042(7) 1_545
O4 Co2 2.110(7) 1_545
O4 C8 1.275(13) .
O5 Co1 2.207(7) 2_646
O5 C15 1.243(13) .
O6 Co1 2.095(7) 2_646
O6 C15 1.276(13) .
O7 Co2 2.204(8) 3_576
O7 C23 1.285(13) .
O8 Co2 2.159(6) 3_576
O8 C23 1.205(13) .
O9 Co1 2.042(7) 3_676
O9 C22 1.289(12) .
O10 Co2 2.054(7) 3_676
O10 C22 1.222(13) .
C1 C2 1.506(14) .
C2 C3 1.384(14) .
C2 C7 1.410(13) .
C3 H3 0.9300 .
C3 C4 1.394(15) .
C4 C5 1.382(14) .
C4 C8 1.499(14) .
C5 H5 0.9300 .
C5 C6 1.395(14) .
C6 C7 1.356(15) .
C6 C9 1.500(13) .
C7 H7 0.9300 .
C9 C10 1.390(14) .
C9 C14 1.393(13) .
C10 C11 1.405(14) .
C10 C15 1.510(13) .
C11 H11 0.9300 .
C11 C12 1.402(14) .
C12 H12 0.9300 .
C12 C13 1.394(14) .
C13 C14 1.387(13) .
C13 C16 1.491(14) .
C14 H14 0.9300 .
C15 Co1 2.476(9) 2_646
C16 C17 1.398(14) .
C16 C21 1.396(14) .
C17 H17 0.9300 .
C17 C18 1.366(14) .
C18 C19 1.392(14) .
C18 C23 1.513(13) .
C19 H19 0.9300 .
C19 C20 1.384(14) .
C20 C21 1.410(14) .
C20 C22 1.504(14) .
C21 H21 0.9300 .
C23 Co2 2.494(10) 3_576
N1 H1A 0.8900 .
N1 H1B 0.8900 .
N1 C24 1.43(2) .
N1 C25 1.43(2) .
C24 H24A 0.9600 .
C24 H24B 0.9600 .
C24 H24C 0.9600 .
C25 H25A 0.9600 .
C25 H25B 0.9600 .
C25 H25C 0.9600 .
loop_
_geom_torsion_atom_site_label_1
_geom_torsion_atom_site_label_2
_geom_torsion_atom_site_label_3
_geom_torsion_atom_site_label_4
_geom_torsion
_geom_torsion_site_symmetry_1
Co1 O2 C1 O1 11.0(16) .
Co1 O2 C1 C2 -166.3(7) .
Co1 O4 C8 O3 1.1(11) 1_545
Co1 O4 C8 C4 -177.3(7) 1_545
Co1 O5 C15 O6 2.6(11) 2_646
Co1 O5 C15 C10 -177.0(9) 2_646
Co1 O6 C15 O5 -2.7(11) 2_646
Co1 O6 C15 C10 176.9(8) 2_646
Co1 O9 C22 O10 -10.3(16) 3_676
Co1 O9 C22 C20 166.8(7) 3_676
Co2 O1 C1 O2 19.6(19) .
Co2 O1 C1 C2 -163.0(8) .
Co2 O4 C8 O3 -128.5(9) 1_545
Co2 O4 C8 C4 53.2(12) 1_545
Co2 O7 C23 O8 -6.8(10) 3_576
Co2 O7 C23 C18 172.6(9) 3_576
Co2 O8 C23 O7 6.9(11) 3_576
Co2 O8 C23 C18 -172.5(8) 3_576
Co2 O10 C22 O9 -12(2) 3_676
Co2 O10 C22 C20 170.6(8) 3_676
O1 C1 C2 C3 160.4(10) .
O1 C1 C2 C7 -20.9(15) .
O2 C1 C2 C3 -22.0(15) .
O2 C1 C2 C7 156.6(10) .
C1 C2 C3 C4 179.7(9) .
C1 C2 C7 C6 -176.1(9) .
C2 C3 C4 C5 -3.9(15) .
C2 C3 C4 C8 175.9(9) .
C3 C2 C7 C6 2.6(15) .
C3 C4 C5 C6 3.2(15) .
C3 C4 C8 O3 25.2(14) .
C3 C4 C8 O4 -156.5(9) .
C4 C5 C6 C7 0.4(15) .
C4 C5 C6 C9 178.8(9) .
C5 C4 C8 O3 -155.1(10) .
C5 C4 C8 O4 23.2(13) .
C5 C6 C7 C2 -3.3(15) .
C5 C6 C9 C10 88.3(13) .
C5 C6 C9 C14 -90.6(13) .
C6 C9 C10 C11 -177.9(11) .
C6 C9 C10 C15 -1.2(17) .
C6 C9 C14 C13 176.8(10) .
C7 C2 C3 C4 1.0(15) .
C7 C6 C9 C10 -93.3(14) .
C7 C6 C9 C14 87.8(13) .
C8 C4 C5 C6 -176.5(9) .
C9 C6 C7 C2 178.3(9) .
C9 C10 C11 C12 0.5(19) .
C9 C10 C15 O5 0.6(17) .
C9 C10 C15 O6 -179.1(10) .
C10 C9 C14 C13 -2.1(18) .
C10 C11 C12 C13 -1(2) .
C11 C10 C15 O5 177.3(11) .
C11 C10 C15 O6 -2.4(16) .
C11 C12 C13 C14 0.1(18) .
C11 C12 C13 C16 176.7(11) .
C12 C13 C14 C9 1.6(18) .
C12 C13 C16 C17 5.5(17) .
C12 C13 C16 C21 -168.7(11) .
C13 C16 C17 C18 -174.7(10) .
C13 C16 C21 C20 176.8(10) .
C14 C9 C10 C11 1.0(16) .
C14 C9 C10 C15 177.8(10) .
C14 C13 C16 C17 -177.9(11) .
C14 C13 C16 C21 7.8(17) .
C15 C10 C11 C12 -176.4(12) .
C16 C13 C14 C9 -175.0(11) .
C16 C17 C18 C19 -0.5(17) .
C16 C17 C18 C23 179.1(10) .
C17 C16 C21 C20 2.3(17) .
C17 C18 C19 C20 -0.8(16) .
C17 C18 C23 O7 7.0(16) .
C17 C18 C23 O8 -173.5(10) .
C18 C19 C20 C21 2.8(16) .
C18 C19 C20 C22 178.8(10) .
C19 C18 C23 O7 -173.3(10) .
C19 C18 C23 O8 6.1(15) .
C19 C20 C21 C16 -3.6(17) .
C19 C20 C22 O9 21.3(15) .
C19 C20 C22 O10 -161.3(10) .
C21 C16 C17 C18 -0.2(17) .
C21 C20 C22 O9 -162.8(10) .
C21 C20 C22 O10 14.6(15) .
C22 C20 C21 C16 -179.7(10) .
C23 C18 C19 C20 179.5(9) .
loop_
_twin_individual_id
_twin_individual_mass_fraction_refined
1 0.908(2)
2 0.092(2)
