#------------------------------------------------------------------------------
#$Date: 2016-11-08 21:40:51 +0200 (Tue, 08 Nov 2016) $
#$Revision: 188131 $
#$URL: file:///home/coder/svn-repositories/cod/cif/7/04/05/7040514.cif $
#------------------------------------------------------------------------------
#
# This file is available in the Crystallography Open Database (COD),
# http://www.crystallography.net/
#
# All data on this site have been placed in the public domain by the
# contributors.
#
data_7040514
loop_
_publ_author_name
'Yan, Yang-Tian'
'Zhang, Wen-Yan'
'Wu, Yun-Long'
'Li, Jiang'
'Xi, Zheng-Ping'
'Wang, Yao-Yu'
'Hou, Lei'
_publ_section_title
;
 Four new 3D metal-organic frameworks constructed by the asymmetrical
 pentacarboxylate: gas sorption behaviour and magnetic properties.
;
_journal_issue                   39
_journal_name_full
'Dalton transactions (Cambridge, England : 2003)'
_journal_page_first              15473
_journal_page_last               15480
_journal_paper_doi               10.1039/c6dt02846b
_journal_volume                  45
_journal_year                    2016
_chemical_formula_moiety         'C26 H18 Mn2 N O12, C2 H8 N'
_chemical_formula_sum            'C28 H26 Mn2 N2 O12'
_chemical_formula_weight         692.39
_space_group_crystal_system      monoclinic
_space_group_IT_number           14
_space_group_name_Hall           '-P 2ybc'
_space_group_name_H-M_alt        'P 1 21/c 1'
_symmetry_space_group_name_Hall  '-P 2ybc'
_symmetry_space_group_name_H-M   'P 1 21/c 1'
_atom_sites_solution_hydrogens   mixed
_audit_block_doi                 10.5517/ccdc.csd.cc1lj66j
_audit_creation_date             2016-08-23
_audit_creation_method
;
Olex2 1.2-beta
(compiled 2016.08.19 svn.r3327 for OlexSys, GUI svn.r5215)
;
_audit_update_record
;
2016-08-23 deposited with the CCDC.
2016-08-26 downloaded from the CCDC.
;
_cell_angle_alpha                90
_cell_angle_beta                 94.819(3)
_cell_angle_gamma                90
_cell_formula_units_Z            4
_cell_length_a                   10.6150(16)
_cell_length_b                   9.6419(14)
_cell_length_c                   28.480(4)
_cell_measurement_reflns_used    4209
_cell_measurement_temperature    296.15
_cell_measurement_theta_max      27.806
_cell_measurement_theta_min      2.554
_cell_volume                     2904.6(7)
_computing_molecular_graphics    'Olex2 (Dolomanov et al., 2009)'
_computing_publication_material  'Olex2 (Dolomanov et al., 2009)'
_computing_structure_refinement  'ShelXL (Sheldrick, 2015)'
_diffrn_ambient_temperature      296.15
_diffrn_measured_fraction_theta_full 0.992
_diffrn_measured_fraction_theta_max 0.992
_diffrn_measurement_device_type  'Bruker P4'
_diffrn_radiation_type           MoK\a
_diffrn_radiation_wavelength     0.71073
_diffrn_reflns_av_R_equivalents  0.0395
_diffrn_reflns_av_unetI/netI     0.0511
_diffrn_reflns_Laue_measured_fraction_full 0.992
_diffrn_reflns_Laue_measured_fraction_max 0.992
_diffrn_reflns_limit_h_max       11
_diffrn_reflns_limit_h_min       -13
_diffrn_reflns_limit_k_max       11
_diffrn_reflns_limit_k_min       -11
_diffrn_reflns_limit_l_max       30
_diffrn_reflns_limit_l_min       -35
_diffrn_reflns_number            15081
_diffrn_reflns_point_group_measured_fraction_full 0.992
_diffrn_reflns_point_group_measured_fraction_max 0.992
_diffrn_reflns_theta_full        25.242
_diffrn_reflns_theta_max         25.999
_diffrn_reflns_theta_min         1.925
_exptl_absorpt_coefficient_mu    0.937
_exptl_absorpt_correction_T_max  0.7457
_exptl_absorpt_correction_T_min  0.6510
_exptl_absorpt_correction_type   multi-scan
_exptl_absorpt_process_details
;
SADABS-2008/1 (Bruker,2008) was used for absorption correction.
wR2(int) was 0.0803 before and 0.0539 after correction.
The Ratio of minimum to maximum transmission is 0.8730.
The \l/2 correction factor is 0.0015.
;
_exptl_crystal_colour            colourless
_exptl_crystal_colour_primary    colourless
_exptl_crystal_density_diffrn    1.583
_exptl_crystal_description       block
_exptl_crystal_F_000             1416
_exptl_crystal_size_max          0.27
_exptl_crystal_size_mid          0.23
_exptl_crystal_size_min          0.21
_refine_diff_density_max         0.836
_refine_diff_density_min         -0.468
_refine_diff_density_rms         0.097
_refine_ls_extinction_method     none
_refine_ls_goodness_of_fit_ref   1.050
_refine_ls_hydrogen_treatment    constr
_refine_ls_matrix_type           full
_refine_ls_number_parameters     397
_refine_ls_number_reflns         5652
_refine_ls_number_restraints     0
_refine_ls_restrained_S_all      1.050
_refine_ls_R_factor_all          0.0568
_refine_ls_R_factor_gt           0.0441
_refine_ls_shift/su_max          0.001
_refine_ls_shift/su_mean         0.000
_refine_ls_structure_factor_coef Fsqd
_refine_ls_weighting_details
'w=1/[\s^2^(Fo^2^)+(0.0713P)^2^+2.2778P] where P=(Fo^2^+2Fc^2^)/3'
_refine_ls_weighting_scheme      calc
_refine_ls_wR_factor_gt          0.1212
_refine_ls_wR_factor_ref         0.1316
_reflns_Friedel_coverage         0.000
_reflns_number_gt                4547
_reflns_number_total             5652
_reflns_threshold_expression     'I > 2\s(I)'
_cod_data_source_file            c6dt02846b2.cif
_cod_data_source_block           4_sq
_cod_depositor_comments
;Adding full bibliography for 7040511--7040514.cif.

 Adding full bibliography for 7040511--7040514.cif.
;
_cod_database_code               7040514
_shelx_space_group_comment
;
The symmetry employed for this shelxl refinement is uniquely defined
by the following loop, which should always be used as a source of
symmetry information in preference to the above space-group names.
They are only intended as comments.
;
_shelx_estimated_absorpt_t_max   0.827
_shelx_estimated_absorpt_t_min   0.786
_olex2_refinement_description
;
1. Fixed Uiso
 At 1.2 times of:
  All C(H) groups, All N(H,H) groups
 At 1.5 times of:
  All C(H,H,H) groups, All O(H,H) groups
2.a Riding coordinates:
 O1W(H1WA,H1WB)
2.b Secondary CH2 refined with riding coordinates:
 N2(H2A,H2B)
2.c Me refined with riding coordinates:
 C25(H25A,H25B,H25C), C26(H26A,H26B,H26C), C27(H27A,H27B,H27C), C28(H28A,H28B,
 H28C)
2.d Aromatic/amide H refined with riding coordinates:
 C3(H3), C5(H5), C7(H7), C10(H10), C13(H13), C14(H14), C16(H16), C18(H18),
 C20(H20), C24(H24)
;
_shelx_res_file
;
    4_sq.res created by SHELXL-2014/7

TITL 1 in P2(1)/c
CELL 0.71073 10.615 9.6419 28.4804 90 94.819 90
ZERR 4 0.0016 0.0014 0.0042 0 0.003 0
LATT 1
SYMM -X,0.5+Y,0.5-Z
SFAC C H Mn N O
UNIT 112 104 8 8 48
EQIV $1 3-X,-Y,2-Z
EQIV $2 -1+X,+Y,+Z
EQIV $3 -1+X,0.5-Y,-0.5+Z

L.S. 5 0 4
PLAN  15
SIZE 0.27 0.23 0.21
TEMP 23
HTAB C27 O3_$3
HTAB N2 O9_$2
HTAB N2 O8
HTAB O1W O2
HTAB O1W O2_$1
HTAB C25 O1
FREE Mn2 O8
FREE Mn2 C23
BOND
htab
conf
MORE -1
BOND $H
ABIN
fmap 2
acta
OMIT -3 52
OMIT 7 0 6
OMIT -2 1 9
OMIT -3 0 20
OMIT -2 0 20
OMIT -1 2 4
OMIT -2 1 2
OMIT 0 0 2
OMIT -1 2 2
OMIT 2 1 0
REM <olex2.extras>
REM <HklSrc "%.\\4_sq.hkl">
REM </olex2.extras>

WGHT    0.071300    2.277800
FVAR       0.08599
MN1   3    1.552116    0.194684    1.094255    11.00000    0.01486    0.01989 =
         0.02060   -0.00297   -0.00161    0.00191
MN2   3    0.767702    0.260405    0.690872    11.00000    0.01634    0.02212 =
         0.01301    0.00264    0.00018    0.00021
O1    5    1.351435    0.148741    1.090538    11.00000    0.01684    0.03436 =
         0.01838   -0.00358   -0.00273   -0.00029
O1W   5    1.586387   -0.006600    1.061233    11.00000    0.02585    0.02992 =
         0.02380   -0.00749    0.00245    0.00442
AFIX   3
H1WA  2    1.656617    0.001520    1.042253    11.00000   -1.50000
H1WB  2    1.512357   -0.033830    1.041733    11.00000   -1.50000
AFIX   0
O2    5    1.343848    0.005098    1.028780    11.00000    0.02159    0.04271 =
         0.02298   -0.00934    0.00199    0.00682
O3    5    0.904442    0.215256    1.141981    11.00000    0.02589    0.04755 =
         0.01434   -0.00193    0.00528    0.00590
O4    5    0.748422    0.234259    1.085714    11.00000    0.01555    0.04842 =
         0.02911    0.00095    0.00405    0.00125
O5    5    0.472772    0.620063    0.867203    11.00000    0.02822    0.01896 =
         0.05008   -0.01262   -0.00291    0.00280
O6    5    0.297514    0.555710    0.824179    11.00000    0.03003    0.02335 =
         0.03814   -0.00284   -0.00915    0.00874
O7    5    0.387713   -0.104204    0.835695    11.00000    0.02694    0.01462 =
         0.02110   -0.00024   -0.00213   -0.00195
O8    5    0.241392    0.029936    0.800407    11.00000    0.02186    0.02932 =
         0.04093   -0.00059   -0.00881   -0.00337
O9    5    0.910674    0.209857    0.750572    11.00000    0.02644    0.08381 =
         0.01581    0.00370    0.00327    0.00723
O10   5    0.719016    0.257072    0.764765    11.00000    0.02831    0.07973 =
         0.01849    0.00791    0.00045    0.01618
O11   5    1.516653    0.296062    1.025476    11.00000    0.04432    0.05255 =
         0.04185    0.02020   -0.00713   -0.00244
N1    4    1.339090    0.399339    0.992365    11.00000    0.04354    0.03161 =
         0.02996    0.00508   -0.00395    0.00030
C1    1    1.295100    0.092159    1.054337    11.00000    0.01641    0.03012 =
         0.01471    0.00510    0.00255   -0.00015
C2    1    1.160885    0.134386    1.040844    11.00000    0.01400    0.02659 =
         0.01730   -0.00118   -0.00020   -0.00152
C3    1    1.079193    0.164783    1.075465    11.00000    0.01917    0.03046 =
         0.01170   -0.00260   -0.00262    0.00243
AFIX  43
H3    2    1.108923    0.163567    1.107123    11.00000   -1.20000
AFIX   0
C4    1    0.953992    0.196687    1.062523    11.00000    0.01590    0.02523 =
         0.01707   -0.00154    0.00279   -0.00122
C5    1    0.911803    0.205336    1.014606    11.00000    0.01351    0.03055 =
         0.01701    0.00012   -0.00376    0.00225
AFIX  43
H5    2    0.828117    0.229334    1.006132    11.00000   -1.20000
AFIX   0
C6    1    0.991639    0.179033    0.979567    11.00000    0.01813    0.02795 =
         0.01409   -0.00019    0.00005    0.00012
C7    1    1.116441    0.139601    0.993857    11.00000    0.01825    0.03167 =
         0.01458    0.00040    0.00308   -0.00030
AFIX  43
H7    2    1.170618    0.116373    0.971067    11.00000   -1.20000
AFIX   0
C8    1    0.861934    0.217117    1.099474    11.00000    0.02106    0.02050 =
         0.02195   -0.00087    0.00466    0.00051
C9    1    0.948668    0.187875    0.928232    11.00000    0.01840    0.02777 =
         0.01460    0.00096   -0.00141    0.00052
C10   1    0.821194    0.208178    0.913086    11.00000    0.01826    0.02231 =
         0.01610   -0.00100    0.00184    0.00050
AFIX  43
H10   2    0.763190    0.216890    0.935632    11.00000   -1.20000
AFIX   0
C11   1    0.777327    0.215923    0.865450    11.00000    0.01652    0.01740 =
         0.01679    0.00102    0.00050    0.00107
C12   1    0.864209    0.206169    0.831392    11.00000    0.02093    0.02995 =
         0.01710    0.00215    0.00132    0.00132
C13   1    0.991403    0.183016    0.846207    11.00000    0.02083    0.05747 =
         0.01524    0.00046    0.00564    0.00372
AFIX  43
H13   2    1.049491    0.173453    0.823728    11.00000   -1.20000
AFIX   0
C14   1    1.032632    0.174060    0.893014    11.00000    0.01722    0.05348 =
         0.01931    0.00270   -0.00131    0.00487
AFIX  43
H14   2    1.117932    0.158522    0.901601    11.00000   -1.20000
AFIX   0
C15   1    0.637914    0.234312    0.853979    11.00000    0.01671    0.02034 =
         0.01230    0.00199   -0.00056    0.00058
C16   1    0.584564    0.365945    0.855243    11.00000    0.02077    0.01877 =
         0.01722   -0.00353   -0.00157   -0.00273
AFIX  43
H16   2    0.636060    0.441664    0.863442    11.00000   -1.20000
AFIX   0
C17   1    0.454811    0.386538    0.844402    11.00000    0.02267    0.01739 =
         0.01627   -0.00081   -0.00013    0.00223
C18   1    0.377902    0.272346    0.833028    11.00000    0.01733    0.02166 =
         0.02150    0.00001   -0.00333    0.00142
AFIX  43
H18   2    0.291876    0.284780    0.825064    11.00000   -1.20000
AFIX   0
C19   1    0.429564    0.139696    0.833562    11.00000    0.02164    0.01447 =
         0.02001    0.00076   -0.00090   -0.00131
C20   1    0.559407    0.121466    0.843512    11.00000    0.02102    0.01695 =
         0.01957    0.00025   -0.00065    0.00242
AFIX  43
H20   2    0.593722    0.032766    0.843129    11.00000   -1.20000
AFIX   0
C21   1    0.403823    0.531441    0.845368    11.00000    0.02409    0.01832 =
         0.02259    0.00094    0.00417    0.00441
C22   1    0.346931    0.015685    0.822227    11.00000    0.02025    0.01713 =
         0.01821   -0.00255    0.00257   -0.00011
C23   1    0.828734    0.224716    0.779520    11.00000    0.02297    0.03069 =
         0.01526    0.00111    0.00267   -0.00158
C24   1    1.441702    0.322515    0.991357    11.00000    0.04536    0.03313 =
         0.03659    0.00715    0.00424   -0.00422
AFIX  43
H24   2    1.458759    0.285281    0.962442    11.00000   -1.20000
AFIX   0
C25   1    1.306851    0.464688    1.035624    11.00000    0.07689    0.04517 =
         0.04673   -0.00459    0.01007    0.00841
AFIX  33
H25A  2    1.229677    0.516044    1.029690    11.00000   -1.50000
H25B  2    1.295955    0.394778    1.058940    11.00000   -1.50000
H25C  2    1.373580    0.526504    1.046881    11.00000   -1.50000
AFIX   0
C26   1    1.260692    0.430697    0.949110    11.00000    0.06280    0.05652 =
         0.05195    0.01827   -0.01225   -0.00416
AFIX  33
H26A  2    1.190529    0.487316    0.956387    11.00000   -1.50000
H26B  2    1.310155    0.479555    0.927743    11.00000   -1.50000
H26C  2    1.229814    0.345848    0.934743    11.00000   -1.50000
AFIX   0

N2    4    0.166722    0.206591    0.724872    11.00000    0.08690    0.06605 =
         0.05655    0.01055    0.00326    0.01285
AFIX  23
H2A   2    0.096624    0.191959    0.739237    11.00000   -1.20000
H2B   2    0.230793    0.180504    0.745107    11.00000   -1.20000
AFIX   0
C27   1    0.163219    0.108256    0.686243    11.00000    0.22058    0.11787 =
         0.06871    0.00358    0.00508    0.10113
AFIX  33
H27A  2    0.155561    0.015896    0.698268    11.00000   -1.50000
H27B  2    0.092049    0.128198    0.664217    11.00000   -1.50000
H27C  2    0.239729    0.115590    0.670678    11.00000   -1.50000
AFIX   0
C28   1    0.177739    0.355591    0.720263    11.00000    0.16319    0.07463 =
         0.11984    0.02672   -0.04479   -0.04951
AFIX  33
H28A  2    0.177987    0.397877    0.750787    11.00000   -1.50000
H28B  2    0.255106    0.377528    0.706704    11.00000   -1.50000
H28C  2    0.107426    0.390136    0.700244    11.00000   -1.50000
AFIX   0
HKLF 4

REM  1 in P2(1)/c
REM R1 =  0.0441 for    4547 Fo > 4sig(Fo)  and  0.0568 for all    5652 data
REM    397 parameters refined using      0 restraints

END

WGHT      0.0713      2.2778

REM Instructions for potential hydrogen bonds
HTAB O1W O2_$1
HTAB O1W O2
HTAB C25 O1
HTAB N2 O9_$2
HTAB N2 O8
HTAB C27 O3_$3

REM Highest difference peak  0.836,  deepest hole -0.468,  1-sigma level  0.097
Q1    1   0.2938  0.2306  0.7012  11.00000  0.05    0.84
Q2    1   0.2556  0.2148  0.7214  11.00000  0.05    0.69
Q3    1   1.2768  0.5279  0.9432  11.00000  0.05    0.45
Q4    1   1.6055 -0.0064  1.0370  11.00000  0.05    0.44
Q5    1   1.1659  0.4066  0.9568  11.00000  0.05    0.43
Q6    1   1.3644  0.3722  0.9504  11.00000  0.05    0.42
Q7    1   1.3098  0.3664  0.9238  11.00000  0.05    0.42
Q8    1   0.1166  0.2172  0.6994  11.00000  0.05    0.41
Q9    1   0.6184  0.1925  0.8334  11.00000  0.05    0.41
Q10   1   0.7136  0.2280  0.8566  11.00000  0.05    0.38
Q11   1   0.9043  0.1888  1.0801  11.00000  0.05    0.38
Q12   1   0.0687  0.0505  0.6559  11.00000  0.05    0.37
Q13   1   1.2950  0.5705  1.0273  11.00000  0.05    0.36
Q14   1   1.3869  0.4249  1.0628  11.00000  0.05    0.36
Q15   1   0.9377  0.1942  1.0425  11.00000  0.05    0.34
;
_shelx_res_checksum              13841
_shelx_fab_checksum              4385
_shelx_fab_file
;
    1    0    0    -10.71      0.00
    2    0    0     11.63      0.00
    3    0    0     -1.92      0.00
    4    0    0      0.09      0.00
    5    0    0      1.95      0.00
    6    0    0     -1.74      0.00
    7    0    0      0.70      0.00
    8    0    0     -1.10      0.00
    9    0    0      1.28      0.00
   10    0    0     -1.48      0.00
   11    0    0      1.14      0.00
   12    0    0     -0.01      0.00
   13    0    0     -0.39      0.00
    1    1    0     -5.25      0.00
    3    1    0     -8.31      0.00
    4    1    0      5.89      0.00
    5    1    0     -3.43      0.00
    6    1    0      1.66      0.00
    7    1    0     -1.27      0.00
    8    1    0      1.17      0.00
    9    1    0     -0.94      0.00
   10    1    0      0.00      0.00
   11    1    0      0.62      0.00
   12    1    0     -0.86      0.00
   13    1    0      0.30      0.00
    0    2    0     -6.20      0.00
    1    2    0     10.32      0.00
    2    2    0     -3.09      0.00
    3    2    0      2.65      0.00
    4    2    0      0.87      0.00
    5    2    0     -1.29      0.00
    6    2    0      0.87      0.00
    7    2    0     -1.03      0.00
    8    2    0      0.78      0.00
    9    2    0     -1.36      0.00
   10    2    0      1.27      0.00
   11    2    0     -0.65      0.00
   12    2    0      0.05      0.00
    1    3    0      2.51      0.00
    2    3    0     -4.41      0.00
    3    3    0      4.23      0.00
    4    3    0     -3.57      0.00
    5    3    0      2.12      0.00
    6    3    0     -1.33      0.00
    7    3    0      0.86      0.00
    8    3    0     -0.68      0.00
    9    3    0      0.19      0.00
   10    3    0      0.20      0.00
   11    3    0     -0.76      0.00
   12    3    0      0.60      0.00
    1    4    0     -3.68      0.00
    2    4    0      3.37      0.00
    3    4    0     -1.03      0.00
    4    4    0     -0.25      0.00
    5    4    0      0.54      0.00
    6    4    0     -0.93      0.00
    7    4    0      0.37      0.00
    8    4    0     -0.75      0.00
    9    4    0      0.45      0.00
   10    4    0     -0.65      0.00
   11    4    0      0.37      0.00
   12    4    0     -0.03      0.00
    1    5    0     -1.08      0.00
    2    5    0      1.75      0.00
    3    5    0     -1.74      0.00
    4    5    0      1.35      0.00
    5    5    0     -0.57      0.00
    6    5    0      0.36      0.00
    7    5    0      0.04      0.00
    8    5    0      0.22      0.00
    9    5    0     -0.02      0.00
   10    5    0      0.09      0.00
   11    5    0      0.04      0.00
    0    6    0     -1.48      0.00
    1    6    0      1.22      0.00
    2    6    0     -0.99      0.00
    3    6    0      0.10      0.00
    5    6    0     -0.44      0.00
    6    6    0      0.04      0.00
    7    6    0     -0.38      0.00
    8    6    0     -0.11      0.00
    9    6    0     -0.28      0.00
   10    6    0     -0.02      0.00
   11    6    0      0.00      0.00
    1    7    0      0.30      0.00
    2    7    0     -0.26      0.00
    3    7    0      0.58      0.00
    4    7    0     -0.21      0.00
    5    7    0      0.37      0.00
    6    7    0      0.09      0.00
    7    7    0      0.20      0.00
    8    7    0      0.24      0.00
    9    7    0      0.23      0.00
   10    7    0      0.10      0.00
    0    8    0      0.30      0.00
    1    8    0     -0.15      0.00
    2    8    0      0.24      0.00
    3    8    0     -0.22      0.00
    4    8    0      0.05      0.00
    5    8    0     -0.10      0.00
    6    8    0     -0.15      0.00
    7    8    0     -0.16      0.00
    8    8    0     -0.11      0.00
    9    8    0     -0.28      0.00
    1    9    0      0.18      0.00
    2    9    0     -0.10      0.00
    3    9    0      0.18      0.00
    4    9    0     -0.04      0.00
    5    9    0      0.04      0.00
    6    9    0     -0.04      0.00
    7    9    0      0.28      0.00
    8    9    0     -0.07      0.00
    0   10    0      0.64      0.00
    1   10    0     -0.16      0.00
    2   10    0      0.43      0.00
    3   10    0     -0.13      0.00
    4   10    0      0.30      0.00
    5   10    0     -0.23      0.00
    6   10    0      0.31      0.00
    7   10    0     -0.31      0.00
    1   11    0     -0.05      0.00
    2   11    0      0.00      0.00
    3   11    0     -0.12      0.00
    4   11    0     -0.02      0.00
  -13    1    1      0.26      0.00
  -12    1    1     -0.52      0.00
  -11    1    1      0.14      0.00
  -10    1    1      0.01      0.00
   -9    1    1     -0.27      0.00
   -8    1    1      0.69      0.00
   -7    1    1     -0.01      0.00
   -6    1    1      0.61      0.00
   -5    1    1     -0.40      0.00
   -4    1    1      0.30      0.00
   -3    1    1     -2.60      0.00
   -2    1    1     -1.23      0.00
    0    1    1     -3.33      0.00
    1    1    1     -1.18      0.00
    2    1    1     -2.96      0.00
    3    1    1      0.24      0.00
    4    1    1     -0.92      0.00
    5    1    1      0.10      0.00
    6    1    1     -0.23      0.00
    7    1    1      0.51      0.00
    8    1    1     -0.47      0.00
    9    1    1      0.40      0.00
   10    1    1     -0.06      0.00
   11    1    1     -0.44      0.00
   12    1    1      0.24      0.00
  -12    2    1     -0.17      0.00
  -11    2    1      0.44      0.00
  -10    2    1     -0.66      0.00
   -9    2    1      0.26      0.00
   -8    2    1     -0.15      0.00
   -7    2    1     -0.13      0.00
   -6    2    1     -0.44      0.00
   -5    2    1      0.38      0.00
   -4    2    1     -0.68      0.00
   -3    2    1     -0.80      0.00
   -2    2    1      1.68      0.00
   -1    2    1     -3.24      0.00
    0    2    1      3.20      0.00
    1    2    1     -2.36      0.00
    2    2    1      0.88      0.00
    3    2    1      0.42      0.00
    4    2    1     -0.94      0.00
    5    2    1      0.59      0.00
    6    2    1     -0.20      0.00
    7    2    1     -0.08      0.00
    8    2    1     -0.12      0.00
    9    2    1      0.54      0.00
   10    2    1     -0.54      0.00
   11    2    1      0.44      0.00
   12    2    1      0.10      0.00
  -12    3    1      0.29      0.00
  -11    3    1     -0.38      0.00
  -10    3    1     -0.19      0.00
   -9    3    1      0.33      0.00
   -8    3    1     -0.29      0.00
   -7    3    1      0.30      0.00
   -6    3    1     -0.01      0.00
   -5    3    1      0.88      0.00
   -4    3    1     -1.84      0.00
   -3    3    1      1.87      0.00
   -2    3    1     -3.50      0.00
   -1    3    1     -0.31      0.00
    0    3    1     -0.85      0.00
    1    3    1     -3.42      0.00
    2    3    1      2.12      0.00
    3    3    1     -2.70      0.00
    4    3    1      1.24      0.00
    5    3    1     -0.37      0.00
    6    3    1      0.25      0.00
    7    3    1      0.02      0.00
    8    3    1      0.63      0.00
    9    3    1      0.00      0.00
   10    3    1     -0.07      0.00
   11    3    1      0.53      0.00
   12    3    1     -0.58      0.00
  -12    4    1     -0.08      0.00
  -11    4    1     -0.38      0.00
  -10    4    1      0.52      0.00
   -9    4    1     -0.64      0.00
   -8    4    1      0.43      0.00
   -7    4    1     -0.47      0.00
   -6    4    1      0.51      0.00
   -5    4    1     -0.86      0.00
   -4    4    1      0.31      0.00
   -3    4    1      0.04      0.00
   -2    4    1     -1.63      0.00
   -1    4    1      2.15      0.00
    1    4    1      1.79      0.00
    2    4    1     -0.78      0.00
    3    4    1     -0.41      0.00
    4    4    1      0.67      0.00
    5    4    1     -0.88      0.00
    6    4    1      0.31      0.00
    7    4    1     -0.47      0.00
    8    4    1      0.40      0.00
    9    4    1     -0.68      0.00
   10    4    1      0.53      0.00
   11    4    1     -0.19      0.00
   12    4    1     -0.20      0.00
  -11    5    1      0.40      0.00
  -10    5    1     -0.30      0.00
   -9    5    1     -0.12      0.00
   -8    5    1      0.33      0.00
   -7    5    1     -0.44      0.00
   -6    5    1      0.58      0.00
   -5    5    1     -0.53      0.00
   -4    5    1      1.14      0.00
   -3    5    1     -1.12      0.00
   -2    5    1      1.00      0.00
   -1    5    1     -0.73      0.00
    0    5    1     -0.54      0.00
    1    5    1      0.90      0.00
    2    5    1     -1.26      0.00
    3    5    1      1.20      0.00
    4    5    1     -0.49      0.00
    5    5    1      0.57      0.00
    6    5    1      0.00      0.00
    7    5    1      0.69      0.00
    8    5    1      0.10      0.00
    9    5    1      0.26      0.00
   10    5    1      0.53      0.00
   11    5    1     -0.55      0.00
  -11    6    1      0.21      0.00
  -10    6    1     -0.36      0.00
   -9    6    1      0.51      0.00
   -8    6    1     -0.26      0.00
   -7    6    1      0.39      0.00
   -6    6    1     -0.22      0.00
   -5    6    1      0.43      0.00
   -4    6    1     -0.15      0.00
   -3    6    1     -0.17      0.00
   -2    6    1      0.79      0.00
   -1    6    1     -1.33      0.00
    0    6    1      1.27      0.00
    1    6    1     -1.12      0.00
    2    6    1      0.22      0.00
    3    6    1      0.05      0.00
    5    6    1      0.24      0.00
    6    6    1     -0.46      0.00
    7    6    1      0.04      0.00
    8    6    1     -0.57      0.00
    9    6    1      0.27      0.00
   10    6    1     -0.55      0.00
   11    6    1      0.07      0.00
  -10    7    1     -0.15      0.00
   -9    7    1      0.43      0.00
   -8    7    1     -0.16      0.00
   -7    7    1      0.16      0.00
   -6    7    1      0.05      0.00
   -5    7    1      0.14      0.00
   -4    7    1     -0.21      0.00
   -3    7    1      0.65      0.00
   -2    7    1     -0.51      0.00
   -1    7    1      0.31      0.00
    0    7    1      0.18      0.00
    1    7    1     -0.47      0.00
    2    7    1      0.80      0.00
    3    7    1     -0.29      0.00
    4    7    1      0.33      0.00
    5    7    1      0.26      0.00
    6    7    1      0.20      0.00
    7    7    1      0.14      0.00
    8    7    1      0.50      0.00
    9    7    1     -0.17      0.00
   10    7    1      0.14      0.00
   -9    8    1      0.06      0.00
   -8    8    1      0.11      0.00
   -7    8    1      0.13      0.00
   -6    8    1      0.14      0.00
   -5    8    1      0.01      0.00
   -4    8    1      0.29      0.00
   -3    8    1      0.12      0.00
   -2    8    1      0.02      0.00
   -1    8    1      0.31      0.00
    0    8    1     -0.28      0.00
    1    8    1      0.08      0.00
    2    8    1     -0.03      0.00
    3    8    1     -0.17      0.00
    4    8    1      0.16      0.00
    5    8    1     -0.10      0.00
    6    8    1     -0.08      0.00
    7    8    1     -0.16      0.00
    8    8    1     -0.17      0.00
    9    8    1     -0.36      0.00
   -8    9    1      0.15      0.00
   -7    9    1      0.03      0.00
   -6    9    1      0.18      0.00
   -5    9    1     -0.20      0.00
   -4    9    1      0.17      0.00
   -3    9    1     -0.23      0.00
   -2    9    1     -0.06      0.00
   -1    9    1     -0.19      0.00
    0    9    1     -0.18      0.00
    1    9    1     -0.08      0.00
    2    9    1     -0.04      0.00
    3    9    1      0.07      0.00
    4    9    1     -0.06      0.00
    5    9    1      0.17      0.00
    6    9    1     -0.04      0.00
    7    9    1      0.11      0.00
    8    9    1      0.09      0.00
   -7   10    1      0.09      0.00
   -6   10    1     -0.12      0.00
   -5   10    1      0.11      0.00
   -4   10    1     -0.04      0.00
   -3   10    1      0.19      0.00
   -2   10    1     -0.15      0.00
   -1   10    1      0.39      0.00
    0   10    1     -0.41      0.00
    1   10    1      0.42      0.00
    2   10    1     -0.22      0.00
    3   10    1      0.26      0.00
    4   10    1      0.10      0.00
    5   10    1      0.19      0.00
    6   10    1     -0.07      0.00
    7   10    1      0.06      0.00
   -4   11    1      0.34      0.00
   -3   11    1     -0.48      0.00
   -2   11    1      0.31      0.00
   -1   11    1     -0.40      0.00
    0   11    1     -0.13      0.00
    1   11    1      0.19      0.00
    2   11    1     -0.53      0.00
    3   11    1      0.46      0.00
    4   11    1     -0.50      0.00
  -13    0    2      0.30      0.00
  -12    0    2      0.63      0.00
  -11    0    2     -1.05      0.00
  -10    0    2      1.38      0.00
   -9    0    2     -0.94      0.00
   -8    0    2      0.25      0.00
   -7    0    2     -1.18      0.00
   -6    0    2      0.98      0.00
   -5    0    2     -1.28      0.00
   -4    0    2     -0.96      0.00
   -3    0    2      7.05      0.00
   -2    0    2     -9.91      0.00
   -1    0    2     16.75      0.00
    1    0    2     12.02      0.00
    2    0    2     -5.12      0.00
    3    0    2      0.73      0.00
    4    0    2      2.21      0.00
    5    0    2     -2.15      0.00
    6    0    2      1.91      0.00
    7    0    2     -1.16      0.00
    8    0    2      1.59      0.00
    9    0    2     -1.74      0.00
   10    0    2      1.67      0.00
   11    0    2     -0.47      0.00
   12    0    2     -0.09      0.00
  -13    1    2      0.45      0.00
  -12    1    2     -0.76      0.00
  -11    1    2      0.35      0.00
  -10    1    2      0.48      0.00
   -9    1    2     -0.97      0.00
   -8    1    2      1.17      0.00
   -7    1    2     -1.06      0.00
   -6    1    2      2.05      0.00
   -5    1    2     -3.74      0.00
   -4    1    2      6.31      0.00
   -3    1    2     -7.02      0.00
    0    1    2     -4.10      0.00
    1    1    2      8.29      0.00
    2    1    2     -9.45      0.00
    3    1    2      8.05      0.00
    4    1    2     -5.02      0.00
    5    1    2      2.79      0.00
    6    1    2     -1.48      0.00
    7    1    2      1.36      0.00
    8    1    2     -1.13      0.00
    9    1    2      0.44      0.00
   10    1    2      0.44      0.00
   11    1    2     -1.00      0.00
   12    1    2      0.70      0.00
  -12    2    2     -0.04      0.00
  -11    2    2      1.10      0.00
  -10    2    2     -1.02      0.00
   -9    2    2      1.15      0.00
   -8    2    2     -0.84      0.00
   -7    2    2      0.55      0.00
   -6    2    2     -1.20      0.00
   -5    2    2      0.49      0.00
   -4    2    2      1.00      0.00
   -3    2    2     -2.79      0.00
   -2    2    2      7.67      0.00
    0    2    2      9.27      0.00
    1    2    2     -5.20      0.00
    2    2    2      2.79      0.00
    3    2    2      0.43      0.00
    4    2    2     -1.45      0.00
    5    2    2      1.73      0.00
    6    2    2     -1.08      0.00
    7    2    2      0.98      0.00
    8    2    2     -1.38      0.00
    9    2    2      1.40      0.00
   10    2    2     -1.18      0.00
   11    2    2      0.47      0.00
   12    2    2      0.45      0.00
  -12    3    2      0.66      0.00
  -11    3    2     -0.47      0.00
  -10    3    2      0.19      0.00
   -9    3    2      0.46      0.00
   -8    3    2     -0.58      0.00
   -7    3    2      1.12      0.00
   -6    3    2     -1.29      0.00
   -5    3    2      2.72      0.00
   -4    3    2     -3.11      0.00
   -3    3    2      4.09      0.00
   -2    3    2     -2.52      0.00
   -1    3    2      0.77      0.00
    0    3    2      2.30      0.00
    1    3    2     -4.15      0.00
    2    3    2      5.14      0.00
    3    3    2     -4.15      0.00
    4    3    2      3.23      0.00
    5    3    2     -1.59      0.00
    6    3    2      1.31      0.00
    7    3    2     -0.71      0.00
    8    3    2      0.59      0.00
    9    3    2      0.04      0.00
   10    3    2     -0.54      0.00
   11    3    2      0.76      0.00
   12    3    2     -0.59      0.00
  -12    4    2      0.33      0.00
  -11    4    2     -0.19      0.00
  -10    4    2      0.86      0.00
   -9    4    2     -0.26      0.00
   -8    4    2      0.67      0.00
   -7    4    2     -0.35      0.00
   -6    4    2      0.46      0.00
   -5    4    2     -0.38      0.00
   -4    4    2     -0.58      0.00
   -3    4    2      2.12      0.00
   -2    4    2     -3.21      0.00
   -1    4    2      5.12      0.00
    1    4    2      3.74      0.00
    2    4    2     -1.65      0.00
    3    4    2      0.20      0.00
    4    4    2      0.82      0.00
    5    4    2     -1.10      0.00
    6    4    2      0.72      0.00
    7    4    2     -1.06      0.00
    8    4    2      0.37      0.00
    9    4    2     -0.94      0.00
   10    4    2      0.36      0.00
   11    4    2     -0.21      0.00
   12    4    2     -0.04      0.00
  -11    5    2      0.07      0.00
  -10    5    2      0.23      0.00
   -9    5    2     -0.11      0.00
   -8    5    2      0.27      0.00
   -7    5    2     -0.10      0.00
   -6    5    2      0.46      0.00
   -5    5    2     -0.59      0.00
   -4    5    2      1.36      0.00
   -3    5    2     -1.19      0.00
   -2    5    2      1.26      0.00
   -1    5    2      0.01      0.00
    0    5    2     -0.78      0.00
    1    5    2      2.02      0.00
    2    5    2     -1.99      0.00
    3    5    2      2.02      0.00
    4    5    2     -1.02      0.00
    5    5    2      0.73      0.00
    6    5    2      0.00      0.00
    7    5    2      0.19      0.00
    8    5    2      0.14      0.00
    9    5    2      0.07      0.00
   10    5    2      0.20      0.00
   11    5    2     -0.03      0.00
  -11    6    2      0.07      0.00
  -10    6    2      0.05      0.00
   -9    6    2      0.20      0.00
   -8    6    2      0.06      0.00
   -7    6    2      0.28      0.00
   -6    6    2     -0.10      0.00
   -5    6    2      0.09      0.00
   -4    6    2      0.07      0.00
   -3    6    2     -0.60      0.00
   -2    6    2      1.07      0.00
   -1    6    2     -1.26      0.00
    0    6    2      1.37      0.00
    1    6    2     -1.01      0.00
    2    6    2      0.41      0.00
    3    6    2     -0.12      0.00
    4    6    2     -0.38      0.00
    5    6    2      0.11      0.00
    6    6    2     -0.56      0.00
    7    6    2     -0.11      0.00
    8    6    2     -0.45      0.00
    9    6    2      0.04      0.00
   10    6    2     -0.07      0.00
   11    6    2      0.09      0.00
  -10    7    2      0.01      0.00
   -9    7    2      0.01      0.00
   -8    7    2      0.08      0.00
   -7    7    2      0.00      0.00
   -6    7    2     -0.15      0.00
   -5    7    2      0.20      0.00
   -4    7    2     -0.45      0.00
   -3    7    2      0.31      0.00
   -2    7    2     -0.28      0.00
   -1    7    2      0.10      0.00
    0    7    2      0.27      0.00
    1    7    2     -0.30      0.00
    2    7    2      0.51      0.00
    3    7    2     -0.44      0.00
    4    7    2      0.31      0.00
    5    7    2     -0.18      0.00
    6    7    2      0.15      0.00
    7    7    2      0.12      0.00
    8    7    2      0.16      0.00
    9    7    2      0.15      0.00
   10    7    2      0.16      0.00
   -9    8    2     -0.05      0.00
   -8    8    2     -0.09      0.00
   -7    8    2     -0.11      0.00
   -6    8    2      0.07      0.00
   -5    8    2      0.02      0.00
   -4    8    2     -0.09      0.00
   -3    8    2      0.25      0.00
   -2    8    2     -0.11      0.00
   -1    8    2      0.31      0.00
    0    8    2     -0.16      0.00
    1    8    2      0.14      0.00
    2    8    2     -0.31      0.00
    3    8    2     -0.01      0.00
    4    8    2     -0.24      0.00
    5    8    2     -0.15      0.00
    6    8    2     -0.18      0.00
    7    8    2     -0.07      0.00
    8    8    2     -0.12      0.00
    9    8    2      0.29      0.00
   -8    9    2     -0.21      0.00
   -7    9    2      0.10      0.00
   -6    9    2     -0.05      0.00
   -5    9    2     -0.14      0.00
   -4    9    2     -0.23      0.00
   -3    9    2     -0.02      0.00
   -2    9    2     -0.32      0.00
   -1    9    2      0.07      0.00
    0    9    2     -0.04      0.00
    1    9    2     -0.15      0.00
    2    9    2      0.02      0.00
    3    9    2     -0.28      0.00
    4    9    2     -0.14      0.00
    5    9    2     -0.20      0.00
    6    9    2      0.10      0.00
    7    9    2     -0.12      0.00
    8    9    2      0.36      0.00
   -7   10    2      0.21      0.00
   -6   10    2     -0.36      0.00
   -5   10    2      0.18      0.00
   -4   10    2     -0.21      0.00
   -3   10    2      0.28      0.00
   -2   10    2     -0.21      0.00
   -1   10    2      0.47      0.00
    0   10    2     -0.32      0.00
    1   10    2      0.28      0.00
    2   10    2     -0.30      0.00
    3   10    2      0.12      0.00
    4   10    2     -0.24      0.00
    5   10    2      0.21      0.00
    6   10    2     -0.24      0.00
   -4   11    2     -0.08      0.00
   -3   11    2      0.02      0.00
   -2   11    2     -0.17      0.00
   -1   11    2      0.19      0.00
    0   11    2     -0.21      0.00
    1   11    2      0.15      0.00
    2   11    2     -0.28      0.00
    3   11    2     -0.02      0.00
    4   11    2     -0.37      0.00
  -13    1    3     -0.47      0.00
  -12    1    3      0.21      0.00
  -11    1    3     -0.47      0.00
  -10    1    3     -0.24      0.00
   -9    1    3      0.21      0.00
   -8    1    3     -0.26      0.00
   -7    1    3      0.58      0.00
   -6    1    3     -0.11      0.00
   -5    1    3      0.98      0.00
   -4    1    3     -0.96      0.00
   -3    1    3      0.92      0.00
   -2    1    3     -0.60      0.00
   -1    1    3     -0.17      0.00
    0    1    3      1.78      0.00
    1    1    3     -0.83      0.00
    2    1    3      2.03      0.00
    3    1    3     -0.40      0.00
    4    1    3      0.12      0.00
    5    1    3     -0.28      0.00
    6    1    3     -0.04      0.00
    7    1    3     -0.72      0.00
    8    1    3      0.48      0.00
    9    1    3     -0.42      0.00
   10    1    3     -0.19      0.00
   11    1    3      0.15      0.00
   12    1    3     -0.44      0.00
  -12    2    3      0.31      0.00
  -11    2    3     -0.55      0.00
  -10    2    3      0.47      0.00
   -9    2    3     -0.27      0.00
   -8    2    3     -0.04      0.00
   -7    2    3     -0.20      0.00
   -6    2    3      0.22      0.00
   -5    2    3     -0.56      0.00
   -4    2    3     -0.40      0.00
   -3    2    3      1.26      0.00
   -2    2    3     -2.75      0.00
   -1    2    3      3.14      0.00
    0    2    3     -2.68      0.00
    1    2    3      1.14      0.00
    2    2    3      0.11      0.00
    3    2    3     -1.32      0.00
    4    2    3      0.84      0.00
    5    2    3     -0.71      0.00
    6    2    3     -0.14      0.00
    7    2    3     -0.11      0.00
    8    2    3      0.24      0.00
    9    2    3     -0.64      0.00
   10    2    3      0.47      0.00
   11    2    3     -0.12      0.00
   12    2    3     -0.26      0.00
  -12    3    3     -0.49      0.00
  -11    3    3     -0.36      0.00
  -10    3    3     -0.04      0.00
   -9    3    3     -0.78      0.00
   -8    3    3      0.08      0.00
   -7    3    3     -0.20      0.00
   -6    3    3      0.48      0.00
   -5    3    3     -0.94      0.00
   -4    3    3      1.98      0.00
   -3    3    3     -2.25      0.00
   -2    3    3      1.37      0.00
   -1    3    3      0.12      0.00
    0    3    3     -1.67      0.00
    1    3    3      3.15      0.00
    2    3    3     -2.62      0.00
    3    3    3      1.88      0.00
    4    3    3     -0.98      0.00
    5    3    3      0.04      0.00
    6    3    3     -0.20      0.00
    7    3    3      0.41      0.00
    8    3    3     -0.17      0.00
    9    3    3      0.04      0.00
   10    3    3      0.49      0.00
   11    3    3     -0.74      0.00
   12    3    3      0.39      0.00
  -12    4    3     -0.25      0.00
  -11    4    3      0.34      0.00
  -10    4    3     -0.69      0.00
   -9    4    3      0.37      0.00
   -8    4    3     -0.56      0.00
   -7    4    3      0.32      0.00
   -6    4    3     -0.88      0.00
   -5    4    3      0.37      0.00
   -4    4    3     -0.34      0.00
   -3    4    3     -1.14      0.00
   -2    4    3      1.77      0.00
   -1    4    3     -2.57      0.00
    0    4    3      1.97      0.00
    1    4    3     -1.20      0.00
    2    4    3     -0.24      0.00
    3    4    3      0.55      0.00
    4    4    3     -1.02      0.00
    5    4    3      0.34      0.00
    6    4    3     -0.47      0.00
    7    4    3      0.25      0.00
    8    4    3     -0.68      0.00
    9    4    3      0.57      0.00
   10    4    3     -0.45      0.00
   11    4    3     -0.13      0.00
   12    4    3      0.44      0.00
  -11    5    3     -0.56      0.00
  -10    5    3     -0.30      0.00
   -9    5    3     -0.12      0.00
   -8    5    3     -0.77      0.00
   -7    5    3      0.32      0.00
   -6    5    3     -0.81      0.00
   -5    5    3      0.99      0.00
   -4    5    3     -1.21      0.00
   -3    5    3      1.11      0.00
   -2    5    3     -0.81      0.00
   -1    5    3     -0.31      0.00
    0    5    3      0.84      0.00
    1    5    3     -1.42      0.00
    2    5    3      1.07      0.00
    3    5    3     -0.83      0.00
    4    5    3      0.16      0.00
    5    5    3     -0.10      0.00
    6    5    3      0.39      0.00
    7    5    3     -0.08      0.00
    8    5    3      0.34      0.00
    9    5    3      0.26      0.00
   10    5    3     -0.58      0.00
   11    5    3      0.49      0.00
  -11    6    3     -0.45      0.00
  -10    6    3      0.18      0.00
   -9    6    3     -0.53      0.00
   -8    6    3      0.11      0.00
   -7    6    3     -0.46      0.00
   -6    6    3      0.19      0.00
   -5    6    3     -0.39      0.00
   -4    6    3     -0.17      0.00
   -3    6    3      0.48      0.00
   -2    6    3     -1.28      0.00
   -1    6    3      1.24      0.00
    0    6    3     -1.24      0.00
    1    6    3      0.45      0.00
    2    6    3      0.08      0.00
    3    6    3     -0.46      0.00
    4    6    3      0.50      0.00
    5    6    3     -0.30      0.00
    6    6    3      0.18      0.00
    7    6    3     -0.32      0.00
    8    6    3      0.36      0.00
    9    6    3     -0.54      0.00
   10    6    3      0.25      0.00
   11    6    3     -0.09      0.00
  -10    7    3      0.30      0.00
   -9    7    3     -0.41      0.00
   -8    7    3      0.12      0.00
   -7    7    3     -0.20      0.00
   -6    7    3     -0.01      0.00
   -5    7    3     -0.26      0.00
   -4    7    3      0.41      0.00
   -3    7    3     -0.65      0.00
   -2    7    3      0.25      0.00
   -1    7    3     -0.10      0.00
    0    7    3     -0.51      0.00
    1    7    3      0.70      0.00
    2    7    3     -0.54      0.00
    3    7    3      0.38      0.00
    4    7    3      0.11      0.00
    5    7    3      0.08      0.00
    6    7    3      0.17      0.00
    7    7    3      0.29      0.00
    8    7    3     -0.29      0.00
    9    7    3     -0.01      0.00
   10    7    3     -0.30      0.00
   -9    8    3     -0.13      0.00
   -8    8    3     -0.11      0.00
   -7    8    3     -0.06      0.00
   -6    8    3     -0.06      0.00
   -5    8    3      0.17      0.00
   -4    8    3      0.10      0.00
   -3    8    3     -0.07      0.00
   -2    8    3      0.32      0.00
   -1    8    3     -0.35      0.00
    0    8    3      0.24      0.00
    1    8    3      0.01      0.00
    2    8    3      0.05      0.00
    3    8    3      0.38      0.00
    4    8    3      0.10      0.00
    5    8    3      0.18      0.00
    6    8    3      0.04      0.00
    7    8    3      0.03      0.00
    8    8    3     -0.18      0.00
    9    8    3      0.11      0.00
   -8    9    3      0.05      0.00
   -7    9    3      0.24      0.00
   -6    9    3     -0.22      0.00
   -5    9    3      0.40      0.00
   -4    9    3     -0.32      0.00
   -3    9    3      0.20      0.00
   -2    9    3     -0.14      0.00
   -1    9    3     -0.02      0.00
    0    9    3      0.14      0.00
    1    9    3      0.16      0.00
    2    9    3      0.24      0.00
    3    9    3      0.20      0.00
    4    9    3      0.27      0.00
    5    9    3      0.05      0.00
    6    9    3      0.18      0.00
    7    9    3     -0.01      0.00
    8    9    3     -0.28      0.00
   -7   10    3     -0.07      0.00
   -6   10    3      0.16      0.00
   -5   10    3      0.13      0.00
   -4   10    3      0.15      0.00
   -3   10    3      0.15      0.00
   -2   10    3      0.21      0.00
   -1   10    3     -0.22      0.00
    0   10    3      0.41      0.00
    1   10    3     -0.21      0.00
    2   10    3      0.43      0.00
    3   10    3      0.13      0.00
    4   10    3      0.30      0.00
    5   10    3      0.02      0.00
    6   10    3      0.21      0.00
   -4   11    3     -0.20      0.00
   -3   11    3      0.46      0.00
   -2   11    3     -0.31      0.00
   -1   11    3      0.26      0.00
    0   11    3      0.16      0.00
    1   11    3     -0.15      0.00
    2   11    3      0.57      0.00
    3   11    3     -0.31      0.00
    4   11    3      0.38      0.00
  -13    0    4      0.18      0.00
  -12    0    4     -0.56      0.00
  -11    0    4      1.49      0.00
  -10    0    4     -0.82      0.00
   -9    0    4      0.64      0.00
   -8    0    4     -0.28      0.00
   -7    0    4      0.66      0.00
   -6    0    4     -1.33      0.00
   -5    0    4     -0.16      0.00
   -4    0    4      2.58      0.00
   -3    0    4     -8.51      0.00
   -2    0    4     10.82      0.00
   -1    0    4    -15.44      0.00
    0    0    4      9.65      0.00
    1    0    4     -8.78      0.00
    2    0    4      0.46      0.00
    4    0    4     -2.94      0.00
    5    0    4      2.83      0.00
    6    0    4     -1.58      0.00
    7    0    4      2.04      0.00
    8    0    4     -1.92      0.00
    9    0    4      2.19      0.00
   10    0    4     -1.10      0.00
   11    0    4      0.23      0.00
   12    0    4      0.79      0.00
  -13    1    4     -0.64      0.00
  -12    1    4      0.57      0.00
  -11    1    4      0.00      0.00
  -10    1    4     -0.76      0.00
   -9    1    4      1.04      0.00
   -8    1    4     -0.99      0.00
   -7    1    4      1.13      0.00
   -6    1    4     -2.19      0.00
   -5    1    4      4.06      0.00
   -4    1    4     -5.56      0.00
   -3    1    4      5.13      0.00
   -2    1    4     -2.23      0.00
   -1    1    4     -2.71      0.00
    1    1    4     -9.64      0.00
    2    1    4      9.23      0.00
    3    1    4     -6.54      0.00
    4    1    4      3.92      0.00
    5    1    4     -1.91      0.00
    6    1    4      1.46      0.00
    7    1    4     -1.17      0.00
    8    1    4      0.78      0.00
    9    1    4      0.24      0.00
   10    1    4     -0.97      0.00
   11    1    4      1.13      0.00
   12    1    4     -0.49      0.00
  -12    2    4      0.73      0.00
  -11    2    4     -0.68      0.00
  -10    2    4      1.42      0.00
   -9    2    4     -0.60      0.00
   -8    2    4      0.83      0.00
   -7    2    4     -0.74      0.00
   -6    2    4      0.61      0.00
   -5    2    4     -0.18      0.00
   -4    2    4     -2.36      0.00
   -3    2    4      4.31      0.00
   -2    2    4     -8.01      0.00
    0    2    4     -7.57      0.00
    1    2    4      1.94      0.00
    2    2    4     -0.78      0.00
    3    2    4     -2.07      0.00
    4    2    4      2.37      0.00
    5    2    4     -1.45      0.00
    6    2    4      1.49      0.00
    7    2    4     -1.19      0.00
    8    2    4      1.68      0.00
    9    2    4     -1.41      0.00
   10    2    4      1.01      0.00
   11    2    4      0.15      0.00
   12    2    4     -0.48      0.00
  -12    3    4     -0.54      0.00
  -11    3    4      0.34      0.00
  -10    3    4      0.16      0.00
   -9    3    4     -0.46      0.00
   -8    3    4      0.77      0.00
   -7    3    4     -0.92      0.00
   -6    3    4      1.74      0.00
   -5    3    4     -2.41      0.00
   -4    3    4      3.17      0.00
   -3    3    4     -2.76      0.00
   -2    3    4      1.02      0.00
   -1    3    4      1.33      0.00
    0    3    4     -3.84      0.00
    1    3    4      5.10      0.00
    2    3    4     -4.77      0.00
    3    3    4      3.86      0.00
    4    3    4     -2.14      0.00
    5    3    4      1.51      0.00
    6    3    4     -0.82      0.00
    7    3    4      0.76      0.00
    8    3    4     -0.15      0.00
    9    3    4     -0.26      0.00
   10    3    4      0.85      0.00
   11    3    4     -0.71      0.00
   12    3    4      0.35      0.00
  -12    4    4     -0.06      0.00
  -11    4    4      0.91      0.00
  -10    4    4     -0.17      0.00
   -9    4    4      0.81      0.00
   -8    4    4     -0.02      0.00
   -7    4    4      0.46      0.00
   -6    4    4     -0.26      0.00
   -5    4    4     -0.17      0.00
   -4    4    4      1.03      0.00
   -3    4    4     -2.53      0.00
   -2    4    4      3.63      0.00
   -1    4    4     -4.39      0.00
    0    4    4      3.38      0.00
    1    4    4     -2.27      0.00
    2    4    4      0.56      0.00
    3    4    4      0.98      0.00
    4    4    4     -1.00      0.00
    5    4    4      1.43      0.00
    6    4    4     -1.02      0.00
    7    4    4      0.91      0.00
    8    4    4     -0.81      0.00
    9    4    4      0.77      0.00
   10    4    4     -0.20      0.00
   11    4    4      0.15      0.00
   12    4    4      0.31      0.00
  -11    5    4      0.31      0.00
  -10    5    4     -0.11      0.00
   -9    5    4      0.52      0.00
   -8    5    4     -0.08      0.00
   -7    5    4      0.45      0.00
   -6    5    4     -0.17      0.00
   -5    5    4      0.85      0.00
   -4    5    4     -0.76      0.00
   -3    5    4      0.94      0.00
   -2    5    4     -0.18      0.00
   -1    5    4     -0.67      0.00
    0    5    4      1.69      0.00
    1    5    4     -2.21      0.00
    2    5    4      2.17      0.00
    3    5    4     -1.64      0.00
    4    5    4      0.93      0.00
    5    5    4     -0.41      0.00
    6    5    4      0.06      0.00
    7    5    4      0.06      0.00
    8    5    4     -0.15      0.00
    9    5    4      0.27      0.00
   10    5    4     -0.21      0.00
   11    5    4      0.20      0.00
  -11    6    4      0.18      0.00
  -10    6    4      0.28      0.00
   -9    6    4      0.19      0.00
   -8    6    4      0.31      0.00
   -7    6    4      0.03      0.00
   -6    6    4      0.19      0.00
   -5    6    4      0.04      0.00
   -4    6    4     -0.22      0.00
   -3    6    4      0.85      0.00
   -2    6    4     -0.84      0.00
   -1    6    4      1.36      0.00
    0    6    4     -0.80      0.00
    1    6    4      0.73      0.00
    2    6    4      0.07      0.00
    3    6    4     -0.06      0.00
    5    6    4     -0.38      0.00
    6    6    4      0.26      0.00
    7    6    4     -0.29      0.00
    8    6    4      0.40      0.00
    9    6    4      0.04      0.00
   10    6    4      0.34      0.00
   11    6    4      0.28      0.00
  -10    7    4      0.25      0.00
   -9    7    4      0.29      0.00
   -8    7    4      0.17      0.00
   -7    7    4      0.14      0.00
   -6    7    4      0.28      0.00
   -5    7    4     -0.21      0.00
   -4    7    4      0.41      0.00
   -3    7    4     -0.18      0.00
   -2    7    4      0.20      0.00
   -1    7    4      0.20      0.00
    0    7    4     -0.31      0.00
    1    7    4      0.36      0.00
    2    7    4     -0.63      0.00
    3    7    4      0.17      0.00
    4    7    4     -0.48      0.00
    5    7    4      0.00      0.00
    6    7    4     -0.16      0.00
    7    7    4     -0.07      0.00
    8    7    4      0.00      0.00
    9    7    4     -0.08      0.00
   10    7    4      0.04      0.00
   -9    8    4      0.04      0.00
   -8    8    4     -0.09      0.00
   -7    8    4      0.18      0.00
   -6    8    4     -0.12      0.00
   -5    8    4     -0.03      0.00
   -4    8    4      0.13      0.00
   -3    8    4     -0.15      0.00
   -2    8    4      0.23      0.00
   -1    8    4     -0.19      0.00
    0    8    4      0.02      0.00
    1    8    4     -0.31      0.00
    2    8    4     -0.09      0.00
    3    8    4     -0.29      0.00
    4    8    4     -0.17      0.00
    5    8    4     -0.18      0.00
    6    8    4     -0.08      0.00
    7    8    4      0.00      0.00
    8    8    4      0.33      0.00
    9    8    4      0.18      0.00
   -8    9    4      0.23      0.00
   -7    9    4      0.01      0.00
   -6    9    4     -0.15      0.00
   -5    9    4     -0.08      0.00
   -4    9    4     -0.04      0.00
   -3    9    4     -0.27      0.00
   -2    9    4      0.22      0.00
   -1    9    4     -0.18      0.00
    0    9    4     -0.02      0.00
    1    9    4     -0.12      0.00
    2    9    4     -0.33      0.00
    3    9    4     -0.20      0.00
    4    9    4     -0.28      0.00
    5    9    4     -0.04      0.00
    6    9    4     -0.20      0.00
    7    9    4      0.18      0.00
    8    9    4     -0.19      0.00
   -7   10    4     -0.39      0.00
   -6   10    4      0.09      0.00
   -5   10    4     -0.29      0.00
   -4   10    4      0.00      0.00
   -3   10    4     -0.28      0.00
   -2   10    4      0.12      0.00
   -1   10    4     -0.49      0.00
    0   10    4     -0.01      0.00
    1   10    4     -0.53      0.00
    2   10    4     -0.17      0.00
    3   10    4     -0.40      0.00
    4   10    4     -0.09      0.00
    5   10    4     -0.35      0.00
    6   10    4      0.03      0.00
   -4   11    4     -0.01      0.00
   -3   11    4     -0.31      0.00
   -2   11    4      0.23      0.00
   -1   11    4     -0.37      0.00
    0   11    4      0.24      0.00
    1   11    4     -0.40      0.00
    2   11    4      0.04      0.00
    3   11    4     -0.36      0.00
    4   11    4      0.07      0.00
  -13    1    5      0.22      0.00
  -12    1    5     -0.63      0.00
  -11    1    5     -0.03      0.00
  -10    1    5     -0.26      0.00
   -9    1    5     -0.45      0.00
   -8    1    5      0.05      0.00
   -7    1    5     -0.51      0.00
   -6    1    5      0.61      0.00
   -5    1    5     -0.71      0.00
   -4    1    5      1.55      0.00
   -3    1    5      0.43      0.00
   -2    1    5      1.48      0.00
   -1    1    5      3.14      0.00
    0    1    5      0.34      0.00
    1    1    5      3.20      0.00
    2    1    5     -0.13      0.00
    3    1    5      0.51      0.00
    4    1    5      0.03      0.00
    5    1    5     -0.28      0.00
    6    1    5     -0.49      0.00
    7    1    5      0.44      0.00
    8    1    5     -0.73      0.00
    9    1    5      0.05      0.00
   10    1    5     -0.06      0.00
   11    1    5     -0.32      0.00
   12    1    5      0.08      0.00
  -12    2    5     -0.35      0.00
  -11    2    5      0.53      0.00
  -10    2    5     -0.34      0.00
   -9    2    5      0.20      0.00
   -8    2    5     -0.02      0.00
   -7    2    5      0.25      0.00
   -6    2    5     -0.26      0.00
   -5    2    5      0.11      0.00
   -4    2    5      1.07      0.00
   -3    2    5     -1.84      0.00
   -2    2    5      3.13      0.00
   -1    2    5     -2.49      0.00
    0    2    5      1.72      0.00
    1    2    5      0.03      0.00
    2    2    5     -1.16      0.00
    3    2    5      1.38      0.00
    4    2    5     -0.99      0.00
    5    2    5      0.27      0.00
    6    2    5      0.00      0.00
    7    2    5      0.12      0.00
    8    2    5     -0.54      0.00
    9    2    5      0.52      0.00
   10    2    5     -0.35      0.00
   11    2    5     -0.23      0.00
   12    2    5      0.47      0.00
  -12    3    5     -0.20      0.00
  -11    3    5     -0.03      0.00
  -10    3    5     -0.79      0.00
   -9    3    5      0.22      0.00
   -8    3    5     -0.46      0.00
   -7    3    5      0.16      0.00
   -6    3    5     -0.62      0.00
   -5    3    5      1.42      0.00
   -4    3    5     -1.60      0.00
   -3    3    5      1.97      0.00
   -2    3    5      0.30      0.00
   -1    3    5     -0.44      0.00
    0    3    5      3.38      0.00
    1    3    5     -2.43      0.00
    2    3    5      2.42      0.00
    3    3    5     -1.41      0.00
    4    3    5      0.14      0.00
    5    3    5     -0.36      0.00
    6    3    5      0.14      0.00
    7    3    5     -0.53      0.00
    8    3    5     -0.08      0.00
    9    3    5      0.08      0.00
   10    3    5     -0.94      0.00
   11    3    5      0.48      0.00
   12    3    5     -0.43      0.00
  -12    4    5      0.25      0.00
  -11    4    5     -0.53      0.00
  -10    4    5      0.43      0.00
   -9    4    5     -0.45      0.00
   -8    4    5      0.31      0.00
   -7    4    5     -0.60      0.00
   -6    4    5      0.56      0.00
   -5    4    5     -0.34      0.00
   -4    4    5     -0.36      0.00
   -3    4    5      1.58      0.00
   -2    4    5     -1.95      0.00
   -1    4    5      2.30      0.00
    0    4    5     -1.17      0.00
    1    4    5      0.29      0.00
    2    4    5      0.72      0.00
    3    4    5     -0.86      0.00
    4    4    5      0.71      0.00
    5    4    5     -0.25      0.00
    6    4    5      0.32      0.00
    7    4    5     -0.43      0.00
    8    4    5      0.67      0.00
    9    4    5     -0.61      0.00
   10    4    5      0.09      0.00
   11    4    5      0.29      0.00
  -11    5    5     -0.17      0.00
  -10    5    5     -0.09      0.00
   -9    5    5     -0.59      0.00
   -8    5    5      0.37      0.00
   -7    5    5     -0.71      0.00
   -6    5    5      0.95      0.00
   -5    5    5     -1.20      0.00
   -4    5    5      1.21      0.00
   -3    5    5     -1.01      0.00
   -2    5    5     -0.01      0.00
   -1    5    5      0.67      0.00
    0    5    5     -1.50      0.00
    1    5    5      1.10      0.00
    2    5    5     -1.16      0.00
    3    5    5     -0.06      0.00
    4    5    5     -0.17      0.00
    5    5    5     -0.11      0.00
    6    5    5     -0.31      0.00
    7    5    5      0.09      0.00
    8    5    5     -0.31      0.00
    9    5    5     -0.68      0.00
   10    5    5      0.27      0.00
   11    5    5     -0.71      0.00
  -11    6    5      0.10      0.00
  -10    6    5     -0.43      0.00
   -9    6    5      0.04      0.00
   -8    6    5     -0.39      0.00
   -7    6    5      0.11      0.00
   -6    6    5     -0.43      0.00
   -5    6    5     -0.03      0.00
   -4    6    5      0.26      0.00
   -3    6    5     -1.01      0.00
   -2    6    5      1.24      0.00
   -1    6    5     -1.21      0.00
    0    6    5      0.77      0.00
    1    6    5      0.11      0.00
    2    6    5     -0.28      0.00
    3    6    5      0.79      0.00
    4    6    5     -0.22      0.00
    5    6    5      0.38      0.00
    6    6    5     -0.05      0.00
    7    6    5      0.43      0.00
    8    6    5     -0.40      0.00
    9    6    5      0.46      0.00
   10    6    5     -0.19      0.00
  -10    7    5     -0.53      0.00
   -9    7    5      0.19      0.00
   -8    7    5     -0.31      0.00
   -7    7    5      0.09      0.00
   -6    7    5     -0.16      0.00
   -5    7    5      0.39      0.00
   -4    7    5     -0.54      0.00
   -3    7    5      0.37      0.00
   -2    7    5     -0.22      0.00
   -1    7    5     -0.37      0.00
    0    7    5      0.62      0.00
    1    7    5     -0.69      0.00
    2    7    5      0.44      0.00
    3    7    5     -0.11      0.00
    4    7    5      0.01      0.00
    5    7    5      0.11      0.00
    6    7    5      0.08      0.00
    7    7    5     -0.35      0.00
    8    7    5     -0.10      0.00
    9    7    5     -0.36      0.00
   10    7    5     -0.29      0.00
   -9    8    5     -0.13      0.00
   -8    8    5     -0.12      0.00
   -7    8    5     -0.07      0.00
   -6    8    5      0.02      0.00
   -5    8    5      0.02      0.00
   -4    8    5     -0.27      0.00
   -3    8    5      0.28      0.00
   -2    8    5     -0.58      0.00
   -1    8    5      0.35      0.00
    0    8    5     -0.14      0.00
    1    8    5      0.17      0.00
    2    8    5      0.36      0.00
    3    8    5      0.10      0.00
    4    8    5      0.26      0.00
    5    8    5      0.06      0.00
    6    8    5      0.15      0.00
    7    8    5     -0.09      0.00
    8    8    5      0.26      0.00
    9    8    5     -0.09      0.00
   -8    9    5      0.11      0.00
   -7    9    5     -0.30      0.00
   -6    9    5      0.53      0.00
   -5    9    5     -0.41      0.00
   -4    9    5      0.54      0.00
   -3    9    5     -0.11      0.00
   -2    9    5      0.23      0.00
   -1    9    5      0.38      0.00
    0    9    5      0.23      0.00
    1    9    5      0.44      0.00
    2    9    5      0.29      0.00
    3    9    5      0.38      0.00
    4    9    5      0.15      0.00
    5    9    5      0.34      0.00
    6    9    5      0.04      0.00
    7    9    5     -0.11      0.00
    8    9    5      0.08      0.00
   -6   10    5      0.15      0.00
   -5   10    5      0.00      0.00
   -4   10    5      0.29      0.00
   -3   10    5     -0.16      0.00
   -2   10    5      0.05      0.00
   -1   10    5      0.16      0.00
    0   10    5     -0.13      0.00
    1   10    5      0.41      0.00
    2   10    5      0.02      0.00
    3   10    5      0.27      0.00
    4   10    5     -0.07      0.00
    5   10    5      0.22      0.00
    6   10    5     -0.29      0.00
   -4   11    5      0.40      0.00
   -3   11    5     -0.19      0.00
   -2   11    5      0.51      0.00
   -1   11    5      0.06      0.00
    0   11    5      0.24      0.00
    1   11    5      0.47      0.00
    2   11    5     -0.03      0.00
    3   11    5      0.47      0.00
    4   11    5      0.08      0.00
  -13    0    6     -0.16      0.00
  -12    0    6      1.17      0.00
  -11    0    6     -0.99      0.00
  -10    0    6      1.04      0.00
   -9    0    6      0.04      0.00
   -8    0    6      0.61      0.00
   -7    0    6     -0.39      0.00
   -6    0    6      0.92      0.00
   -5    0    6      0.87      0.00
   -4    0    6     -4.67      0.00
   -3    0    6      7.29      0.00
   -2    0    6    -12.28      0.00
    0    0    6     -8.60      0.00
    1    0    6      1.81      0.00
    2    0    6      1.05      0.00
    4    0    6      3.31      0.00
    5    0    6     -2.42      0.00
    6    0    6      2.14      0.00
    8    0    6      2.59      0.00
    9    0    6     -1.65      0.00
   10    0    6      0.79      0.00
   11    0    6      0.57      0.00
   12    0    6     -1.02      0.00
  -12    1    6     -0.36      0.00
  -11    1    6     -0.38      0.00
  -10    1    6      0.93      0.00
   -9    1    6     -1.13      0.00
   -8    1    6      0.91      0.00
   -7    1    6     -1.36      0.00
   -6    1    6      2.36      0.00
   -5    1    6     -4.00      0.00
   -4    1    6      4.17      0.00
   -3    1    6     -2.88      0.00
   -2    1    6     -1.23      0.00
   -1    1    6      5.32      0.00
    0    1    6     -8.73      0.00
    1    1    6      9.19      0.00
    2    1    6     -7.51      0.00
    4    1    6     -2.50      0.00
    5    1    6      1.34      0.00
    6    1    6     -1.20      0.00
    7    1    6      0.82      0.00
    8    1    6     -0.04      0.00
    9    1    6     -0.91      0.00
   10    1    6      1.40      0.00
   11    1    6     -0.95      0.00
   12    1    6      0.09      0.00
  -12    2    6     -0.51      0.00
  -11    2    6      1.20      0.00
  -10    2    6     -0.75      0.00
   -9    2    6      0.91      0.00
   -8    2    6     -0.41      0.00
   -7    2    6      0.88      0.00
   -6    2    6     -0.27      0.00
   -5    2    6     -0.81      0.00
   -4    2    6      2.77      0.00
   -3    2    6     -6.01      0.00
   -2    2    6      5.79      0.00
   -1    2    6     -7.05      0.00
    0    2    6      2.76      0.00
    1    2    6     -0.87      0.00
    2    2    6     -1.89      0.00
    3    2    6      2.91      0.00
    4    2    6     -2.23      0.00
    5    2    6      1.78      0.00
    6    2    6     -1.38      0.00
    7    2    6      1.75      0.00
    8    2    6     -1.45      0.00
    9    2    6      1.58      0.00
   10    2    6     -0.13      0.00
   11    2    6     -0.32      0.00
   12    2    6      0.77      0.00
  -12    3    6      0.37      0.00
  -11    3    6     -0.05      0.00
  -10    3    6     -0.42      0.00
   -9    3    6      0.57      0.00
   -8    3    6     -0.81      0.00
   -7    3    6      1.01      0.00
   -6    3    6     -1.86      0.00
   -5    3    6      2.20      0.00
   -4    3    6     -2.82      0.00
   -3    3    6      1.18      0.00
   -2    3    6      0.15      0.00
   -1    3    6     -3.14      0.00
    0    3    6      4.34      0.00
    1    3    6     -5.06      0.00
    2    3    6      3.96      0.00
    3    3    6     -2.85      0.00
    4    3    6      1.37      0.00
    5    3    6     -1.09      0.00
    6    3    6      0.50      0.00
    7    3    6     -0.43      0.00
    8    3    6     -0.22      0.00
    9    3    6      0.72      0.00
   10    3    6     -0.85      0.00
   11    3    6      0.66      0.00
   12    3    6     -0.03      0.00
  -12    4    6      0.63      0.00
  -11    4    6     -0.46      0.00
  -10    4    6      0.62      0.00
   -9    4    6     -0.23      0.00
   -8    4    6      0.16      0.00
   -7    4    6     -0.19      0.00
   -6    4    6      0.01      0.00
   -5    4    6      0.46      0.00
   -4    4    6     -1.40      0.00
   -3    4    6      2.56      0.00
   -2    4    6     -3.39      0.00
   -1    4    6      3.15      0.00
    0    4    6     -2.19      0.00
    1    4    6      0.96      0.00
    2    4    6      0.86      0.00
    3    4    6     -1.06      0.00
    4    4    6      1.65      0.00
    5    4    6     -1.27      0.00
    6    4    6      1.29      0.00
    7    4    6     -0.77      0.00
    8    4    6      1.24      0.00
    9    4    6     -0.12      0.00
   10    4    6      0.49      0.00
   11    4    6      0.42      0.00
  -11    5    6     -0.29      0.00
  -10    5    6      0.45      0.00
   -9    5    6     -0.45      0.00
   -8    5    6      0.40      0.00
   -7    5    6     -0.30      0.00
   -6    5    6      0.36      0.00
   -5    5    6     -0.57      0.00
   -4    5    6      0.45      0.00
   -3    5    6     -0.37      0.00
   -2    5    6     -0.60      0.00
   -1    5    6      1.12      0.00
    0    5    6     -2.11      0.00
    1    5    6      1.94      0.00
    2    5    6     -2.03      0.00
    3    5    6      1.01      0.00
    4    5    6     -0.85      0.00
    5    5    6      0.00      0.00
    6    5    6     -0.11      0.00
    7    5    6     -0.35      0.00
    8    5    6      0.31      0.00
    9    5    6     -0.44      0.00
   10    5    6      0.40      0.00
   11    5    6     -0.11      0.00
  -11    6    6      0.20      0.00
  -10    6    6      0.09      0.00
   -9    6    6      0.14      0.00
   -8    6    6     -0.07      0.00
   -7    6    6      0.00      0.00
   -6    6    6     -0.13      0.00
   -5    6    6     -0.17      0.00
   -4    6    6      0.44      0.00
   -3    6    6     -0.59      0.00
   -2    6    6      0.99      0.00
   -1    6    6     -0.67      0.00
    0    6    6      0.69      0.00
    1    6    6      0.02      0.00
    2    6    6      0.00      0.00
    3    6    6      0.44      0.00
    4    6    6     -0.38      0.00
    5    6    6      0.39      0.00
    6    6    6     -0.26      0.00
    7    6    6      0.60      0.00
    8    6    6      0.03      0.00
    9    6    6      0.48      0.00
   10    6    6      0.22      0.00
  -10    7    6      0.02      0.00
   -9    7    6      0.00      0.00
   -8    7    6      0.00      0.00
   -7    7    6      0.12      0.00
   -6    7    6     -0.20      0.00
   -5    7    6      0.37      0.00
   -4    7    6     -0.16      0.00
   -3    7    6      0.28      0.00
   -2    7    6      0.13      0.00
   -1    7    6     -0.22      0.00
    0    7    6      0.25      0.00
    1    7    6     -0.58      0.00
    2    7    6      0.17      0.00
    3    7    6     -0.48      0.00
    4    7    6      0.06      0.00
    5    7    6     -0.19      0.00
    6    7    6     -0.07      0.00
    7    7    6      0.01      0.00
    8    7    6     -0.20      0.00
    9    7    6      0.13      0.00
   10    7    6     -0.15      0.00
   -9    8    6      0.03      0.00
   -8    8    6      0.34      0.00
   -7    8    6     -0.21      0.00
   -6    8    6      0.05      0.00
   -5    8    6     -0.08      0.00
   -4    8    6     -0.23      0.00
   -3    8    6      0.02      0.00
   -2    8    6     -0.30      0.00
   -1    8    6     -0.15      0.00
    0    8    6     -0.28      0.00
    1    8    6     -0.17      0.00
    2    8    6     -0.22      0.00
    3    8    6     -0.17      0.00
    4    8    6     -0.15      0.00
    5    8    6     -0.16      0.00
    6    8    6     -0.02      0.00
    7    8    6      0.11      0.00
    8    8    6      0.02      0.00
    9    8    6      0.17      0.00
   -8    9    6     -0.09      0.00
   -7    9    6     -0.17      0.00
   -6    9    6      0.06      0.00
   -5    9    6      0.00      0.00
   -4    9    6     -0.04      0.00
   -3    9    6      0.41      0.00
   -2    9    6     -0.17      0.00
   -1    9    6      0.23      0.00
    0    9    6     -0.17      0.00
    1    9    6     -0.14      0.00
    2    9    6     -0.10      0.00
    3    9    6     -0.11      0.00
    4    9    6      0.08      0.00
    5    9    6     -0.06      0.00
    6    9    6      0.20      0.00
    7    9    6     -0.18      0.00
    8    9    6      0.09      0.00
   -6   10    6     -0.13      0.00
   -5   10    6     -0.06      0.00
   -4   10    6     -0.17      0.00
   -3   10    6     -0.09      0.00
   -2   10    6     -0.44      0.00
   -1   10    6     -0.12      0.00
    0   10    6     -0.50      0.00
    1   10    6     -0.19      0.00
    2   10    6     -0.34      0.00
    3   10    6     -0.19      0.00
    4   10    6     -0.34      0.00
    5   10    6     -0.14      0.00
    6   10    6     -0.23      0.00
   -4   11    6     -0.20      0.00
   -3   11    6      0.31      0.00
   -2   11    6     -0.34      0.00
   -1   11    6      0.32      0.00
    0   11    6     -0.45      0.00
    1   11    6      0.14      0.00
    2   11    6     -0.29      0.00
    3   11    6      0.14      0.00
    4   11    6     -0.11      0.00
  -12    1    7      0.33      0.00
  -11    1    7     -0.35      0.00
  -10    1    7     -0.12      0.00
   -9    1    7     -0.13      0.00
   -8    1    7     -0.54      0.00
   -7    1    7      0.12      0.00
   -6    1    7     -1.10      0.00
   -5    1    7      0.72      0.00
   -4    1    7     -0.84      0.00
   -3    1    7      0.33      0.00
   -1    1    7     -1.41      0.00
    0    1    7      1.56      0.00
    1    1    7     -1.77      0.00
    2    1    7     -0.03      0.00
    3    1    7     -0.19      0.00
    4    1    7     -0.36      0.00
    5    1    7      0.17      0.00
    6    1    7      0.53      0.00
    8    1    7      0.24      0.00
    9    1    7     -0.41      0.00
   10    1    7     -0.30      0.00
   11    1    7     -0.02      0.00
   12    1    7      0.15      0.00
  -12    2    7      0.38      0.00
  -11    2    7     -0.41      0.00
  -10    2    7      0.31      0.00
   -9    2    7     -0.08      0.00
   -8    2    7      0.19      0.00
   -7    2    7     -0.15      0.00
   -6    2    7      0.29      0.00
   -5    2    7      0.67      0.00
   -4    2    7     -1.18      0.00
   -3    2    7      2.63      0.00
   -2    2    7     -2.36      0.00
   -1    2    7      1.98      0.00
    0    2    7     -0.30      0.00
    1    2    7     -0.85      0.00
    2    2    7      1.73      0.00
    3    2    7     -1.16      0.00
    4    2    7      0.91      0.00
    5    2    7      0.10      0.00
    6    2    7      0.28      0.00
    7    2    7     -0.22      0.00
    8    2    7      0.68      0.00
    9    2    7     -0.42      0.00
   10    2    7      0.00      0.00
   11    2    7      0.41      0.00
   12    2    7     -0.63      0.00
  -12    3    7      0.08      0.00
  -11    3    7     -0.46      0.00
  -10    3    7      0.57      0.00
   -9    3    7     -0.47      0.00
   -8    3    7      0.30      0.00
   -7    3    7     -0.45      0.00
   -6    3    7      0.73      0.00
   -5    3    7     -1.53      0.00
   -4    3    7      1.30      0.00
   -3    3    7     -0.79      0.00
   -2    3    7     -0.72      0.00
   -1    3    7      1.91      0.00
    0    3    7     -3.06      0.00
    2    3    7     -1.93      0.00
    3    3    7      0.44      0.00
    4    3    7     -0.12      0.00
    5    3    7      0.32      0.00
    6    3    7     -0.39      0.00
    7    3    7      0.08      0.00
    8    3    7     -0.24      0.00
    9    3    7     -1.01      0.00
   10    3    7      0.41      0.00
   11    3    7     -0.73      0.00
   12    3    7     -0.07      0.00
  -12    4    7     -0.29      0.00
  -11    4    7      0.50      0.00
  -10    4    7     -0.25      0.00
   -9    4    7      0.34      0.00
   -8    4    7     -0.21      0.00
   -7    4    7      0.60      0.00
   -6    4    7     -0.23      0.00
   -5    4    7      0.17      0.00
   -4    4    7      1.18      0.00
   -3    4    7     -1.45      0.00
   -2    4    7      2.21      0.00
   -1    4    7     -1.29      0.00
    0    4    7      0.61      0.00
    1    4    7      0.70      0.00
    2    4    7     -0.75      0.00
    3    4    7      1.10      0.00
    4    4    7     -0.13      0.00
    5    4    7      0.48      0.00
    6    4    7     -0.08      0.00
    7    4    7      0.76      0.00
    8    4    7     -0.61      0.00
    9    4    7      0.44      0.00
   10    4    7      0.07      0.00
   11    4    7     -0.55      0.00
  -11    5    7      0.05      0.00
  -10    5    7     -0.30      0.00
   -9    5    7      0.49      0.00
   -8    5    7     -0.41      0.00
   -7    5    7      0.90      0.00
   -6    5    7     -0.97      0.00
   -5    5    7      1.26      0.00
   -4    5    7     -1.20      0.00
   -3    5    7      0.32      0.00
   -2    5    7      0.31      0.00
   -1    5    7     -1.42      0.00
    0    5    7      1.22      0.00
    1    5    7     -1.31      0.00
    2    5    7      0.27      0.00
    3    5    7      0.12      0.00
    4    5    7     -0.13      0.00
    5    5    7      0.09      0.00
    6    5    7      0.12      0.00
    7    5    7     -0.42      0.00
    8    5    7     -0.46      0.00
    9    5    7      0.11      0.00
   10    5    7     -0.77      0.00
   11    5    7      0.10      0.00
  -11    6    7     -0.02      0.00
  -10    6    7      0.24      0.00
   -9    6    7      0.08      0.00
   -8    6    7      0.28      0.00
   -7    6    7     -0.08      0.00
   -6    6    7      0.27      0.00
   -5    6    7      0.20      0.00
   -4    6    7     -0.61      0.00
   -3    6    7      1.13      0.00
   -2    6    7     -1.16      0.00
   -1    6    7      0.96      0.00
    0    6    7     -0.08      0.00
    1    6    7     -0.21      0.00
    2    6    7      0.84      0.00
    3    6    7     -0.41      0.00
    4    6    7      0.47      0.00
    5    6    7     -0.07      0.00
    6    6    7      0.34      0.00
    7    6    7     -0.35      0.00
    8    6    7      0.50      0.00
    9    6    7     -0.36      0.00
   10    6    7      0.02      0.00
  -10    7    7      0.19      0.00
   -9    7    7     -0.43      0.00
   -8    7    7      0.16      0.00
   -7    7    7     -0.11      0.00
   -6    7    7      0.40      0.00
   -5    7    7     -0.34      0.00
   -4    7    7      0.56      0.00
   -3    7    7     -0.16      0.00
   -2    7    7     -0.04      0.00
   -1    7    7      0.63      0.00
    0    7    7     -0.62      0.00
    1    7    7      0.62      0.00
    2    7    7     -0.23      0.00
    3    7    7      0.13      0.00
    4    7    7      0.17      0.00
    5    7    7      0.08      0.00
    6    7    7     -0.13      0.00
    7    7    7      0.06      0.00
    8    7    7     -0.12      0.00
    9    7    7     -0.05      0.00
   10    7    7      0.13      0.00
   -9    8    7      0.13      0.00
   -8    8    7      0.17      0.00
   -7    8    7      0.10      0.00
   -6    8    7      0.11      0.00
   -5    8    7     -0.34      0.00
   -4    8    7      0.31      0.00
   -3    8    7     -0.79      0.00
   -2    8    7      0.48      0.00
   -1    8    7     -0.43      0.00
    0    8    7      0.24      0.00
    1    8    7      0.12      0.00
    2    8    7     -0.06      0.00
    3    8    7      0.08      0.00
    4    8    7     -0.17      0.00
    5    8    7      0.04      0.00
    6    8    7     -0.26      0.00
    7    8    7      0.23      0.00
    8    8    7     -0.21      0.00
    9    8    7      0.07      0.00
   -8    9    7     -0.45      0.00
   -7    9    7      0.39      0.00
   -6    9    7     -0.60      0.00
   -5    9    7      0.68      0.00
   -4    9    7     -0.29      0.00
   -3    9    7      0.37      0.00
   -2    9    7      0.36      0.00
   -1    9    7      0.05      0.00
    0    9    7      0.45      0.00
    1    9    7     -0.01      0.00
    2    9    7      0.27      0.00
    3    9    7     -0.02      0.00
    4    9    7      0.33      0.00
    5    9    7      0.01      0.00
    6    9    7      0.12      0.00
    7    9    7      0.29      0.00
   -6   10    7     -0.19      0.00
   -5   10    7      0.23      0.00
   -4   10    7     -0.61      0.00
   -3   10    7      0.21      0.00
   -2   10    7     -0.33      0.00
   -1   10    7      0.00      0.00
    0   10    7      0.16      0.00
    1   10    7     -0.11      0.00
    2   10    7      0.14      0.00
    3   10    7     -0.28      0.00
    4   10    7      0.11      0.00
    5   10    7     -0.48      0.00
    6   10    7      0.29      0.00
   -4   11    7     -0.21      0.00
   -3   11    7      0.42      0.00
   -2   11    7     -0.21      0.00
   -1   11    7      0.37      0.00
    0   11    7      0.05      0.00
    1   11    7      0.06      0.00
    2   11    7      0.16      0.00
    3   11    7      0.10      0.00
    4   11    7      0.19      0.00
  -12    0    8     -1.15      0.00
  -11    0    8      1.14      0.00
  -10    0    8     -0.43      0.00
   -9    0    8      0.29      0.00
   -8    0    8      0.02      0.00
   -7    0    8      0.83      0.00
   -6    0    8      0.32      0.00
   -5    0    8     -1.34      0.00
   -4    0    8      5.35      0.00
   -2    0    8      9.30      0.00
   -1    0    8     -5.28      0.00
    0    0    8      4.45      0.00
    1    0    8      2.23      0.00
    2    0    8     -2.04      0.00
    3    0    8      3.87      0.00
    4    0    8     -2.97      0.00
    5    0    8      1.99      0.00
    6    0    8     -2.56      0.00
    7    0    8      2.61      0.00
    8    0    8     -2.11      0.00
    9    0    8      1.52      0.00
   10    0    8      0.38      0.00
   11    0    8     -0.91      0.00
   12    0    8      1.00      0.00
  -12    1    8      0.09      0.00
  -11    1    8      0.71      0.00
  -10    1    8     -1.16      0.00
   -9    1    8      1.17      0.00
   -8    1    8     -1.11      0.00
   -7    1    8      1.56      0.00
   -6    1    8     -2.62      0.00
   -5    1    8      3.29      0.00
   -4    1    8     -2.85      0.00
   -3    1    8      0.26      0.00
   -1    1    8     -6.77      0.00
    0    1    8      8.29      0.00
    1    1    8     -7.48      0.00
    2    1    8      5.02      0.00
    3    1    8     -2.87      0.00
    4    1    8      1.18      0.00
    5    1    8     -1.09      0.00
    6    1    8      0.64      0.00
    7    1    8     -0.29      0.00
    8    1    8     -0.85      0.00
    9    1    8      1.46      0.00
   10    1    8     -1.45      0.00
   11    1    8      0.57      0.00
   12    1    8      0.46      0.00
  -12    2    8      0.76      0.00
  -11    2    8     -0.94      0.00
  -10    2    8      0.73      0.00
   -9    2    8     -0.47      0.00
   -8    2    8      0.59      0.00
   -7    2    8     -0.31      0.00
   -6    2    8      0.19      0.00
   -5    2    8      1.96      0.00
   -4    2    8     -3.17      0.00
   -3    2    8      5.86      0.00
   -2    2    8     -4.67      0.00
   -1    2    8      4.84      0.00
    0    2    8      0.10      0.00
    1    2    8     -0.46      0.00
    2    2    8      3.56      0.00
    3    2    8     -2.73      0.00
    4    2    8      1.98      0.00
    5    2    8     -1.95      0.00
    6    2    8      1.44      0.00
    7    2    8     -1.63      0.00
    8    2    8      1.81      0.00
    9    2    8     -0.43      0.00
   10    2    8      0.08      0.00
   11    2    8      1.01      0.00
   12    2    8     -0.62      0.00
  -12    3    8     -0.13      0.00
  -11    3    8     -0.34      0.00
  -10    3    8      0.56      0.00
   -9    3    8     -0.79      0.00
   -8    3    8      0.75      0.00
   -7    3    8     -1.30      0.00
   -6    3    8      1.59      0.00
   -5    3    8     -2.33      0.00
   -4    3    8      1.61      0.00
   -3    3    8     -0.50      0.00
   -2    3    8     -1.69      0.00
   -1    3    8      3.53      0.00
    0    3    8     -4.42      0.00
    1    3    8      3.99      0.00
    2    3    8     -3.11      0.00
    3    3    8      1.38      0.00
    4    3    8     -1.18      0.00
    5    3    8      0.17      0.00
    6    3    8     -0.55      0.00
    7    3    8     -0.31      0.00
    8    3    8      0.49      0.00
    9    3    8     -1.02      0.00
   10    3    8      0.81      0.00
   11    3    8     -0.32      0.00
   12    3    8     -0.10      0.00
  -12    4    8     -0.55      0.00
  -11    4    8      0.53      0.00
  -10    4    8     -0.42      0.00
   -9    4    8     -0.02      0.00
   -8    4    8     -0.09      0.00
   -7    4    8     -0.10      0.00
   -6    4    8      0.24      0.00
   -5    4    8     -0.55      0.00
   -4    4    8      1.79      0.00
   -3    4    8     -2.00      0.00
   -2    4    8      2.95      0.00
   -1    4    8     -1.58      0.00
    0    4    8      1.41      0.00
    1    4    8      0.65      0.00
    2    4    8     -1.09      0.00
    3    4    8      1.35      0.00
    4    4    8     -1.81      0.00
    5    4    8      1.07      0.00
    6    4    8     -1.21      0.00
    7    4    8      1.18      0.00
    8    4    8     -0.42      0.00
    9    4    8      0.59      0.00
   10    4    8      0.39      0.00
   11    4    8     -0.07      0.00
  -11    5    8      0.26      0.00
  -10    5    8     -0.82      0.00
   -9    5    8      0.37      0.00
   -8    5    8     -0.72      0.00
   -7    5    8      0.12      0.00
   -6    5    8     -0.57      0.00
   -5    5    8      0.14      0.00
   -4    5    8     -0.34      0.00
   -3    5    8     -0.34      0.00
   -2    5    8      0.79      0.00
   -1    5    8     -1.53      0.00
    0    5    8      1.70      0.00
    1    5    8     -1.82      0.00
    2    5    8      1.13      0.00
    3    5    8     -0.98      0.00
    4    5    8      0.14      0.00
    5    5    8     -0.21      0.00
    6    5    8     -0.36      0.00
    7    5    8      0.33      0.00
    8    5    8     -0.61      0.00
    9    5    8      0.59      0.00
   10    5    8     -0.37      0.00
   11    5    8      0.15      0.00
  -11    6    8      0.07      0.00
  -10    6    8      0.12      0.00
   -9    6    8     -0.01      0.00
   -8    6    8     -0.05      0.00
   -7    6    8     -0.09      0.00
   -6    6    8     -0.18      0.00
   -5    6    8      0.18      0.00
   -4    6    8     -0.46      0.00
   -3    6    8      0.55      0.00
   -2    6    8     -0.61      0.00
   -1    6    8      0.43      0.00
    0    6    8     -0.15      0.00
    1    6    8     -0.12      0.00
    2    6    8      0.15      0.00
    4    6    8      0.14      0.00
    5    6    8     -0.51      0.00
    6    6    8      0.36      0.00
    7    6    8     -0.31      0.00
    8    6    8      0.27      0.00
    9    6    8     -0.05      0.00
   10    6    8     -0.13      0.00
  -10    7    8     -0.23      0.00
   -9    7    8     -0.35      0.00
   -8    7    8     -0.17      0.00
   -7    7    8     -0.43      0.00
   -6    7    8      0.15      0.00
   -5    7    8     -0.31      0.00
   -4    7    8      0.23      0.00
   -3    7    8     -0.02      0.00
   -2    7    8     -0.11      0.00
   -1    7    8      0.17      0.00
    0    7    8     -0.36      0.00
    1    7    8      0.23      0.00
    2    7    8     -0.26      0.00
    3    7    8      0.23      0.00
    4    7    8     -0.05      0.00
    5    7    8      0.08      0.00
    6    7    8      0.14      0.00
    7    7    8     -0.16      0.00
    8    7    8      0.32      0.00
    9    7    8     -0.20      0.00
   -9    8    8      0.46      0.00
   -8    8    8     -0.15      0.00
   -7    8    8      0.24      0.00
   -6    8    8     -0.13      0.00
   -5    8    8     -0.14      0.00
   -4    8    8     -0.06      0.00
   -3    8    8     -0.28      0.00
   -2    8    8     -0.18      0.00
   -1    8    8     -0.12      0.00
    0    8    8     -0.11      0.00
    1    8    8      0.04      0.00
    2    8    8     -0.04      0.00
    3    8    8      0.02      0.00
    4    8    8     -0.14      0.00
    5    8    8     -0.01      0.00
    6    8    8     -0.13      0.00
    7    8    8     -0.19      0.00
    8    8    8     -0.15      0.00
   -8    9    8     -0.24      0.00
   -7    9    8      0.07      0.00
   -6    9    8     -0.04      0.00
   -5    9    8      0.12      0.00
   -4    9    8      0.45      0.00
   -3    9    8     -0.14      0.00
   -2    9    8      0.44      0.00
   -1    9    8     -0.21      0.00
    0    9    8      0.13      0.00
    1    9    8      0.01      0.00
    2    9    8      0.12      0.00
    3    9    8      0.23      0.00
    4    9    8      0.12      0.00
    5    9    8      0.30      0.00
    6    9    8     -0.07      0.00
    7    9    8      0.20      0.00
   -6   10    8      0.01      0.00
   -5   10    8      0.09      0.00
   -4   10    8     -0.09      0.00
   -3   10    8     -0.15      0.00
   -2   10    8      0.00      0.00
   -1   10    8     -0.20      0.00
    0   10    8      0.10      0.00
    1   10    8      0.00      0.00
    2   10    8      0.08      0.00
    3   10    8     -0.04      0.00
    4   10    8     -0.02      0.00
    5   10    8     -0.14      0.00
    6   10    8     -0.13      0.00
   -4   11    8      0.43      0.00
   -3   11    8     -0.09      0.00
   -2   11    8      0.44      0.00
   -1   11    8     -0.31      0.00
    0   11    8      0.29      0.00
    1   11    8     -0.16      0.00
    2   11    8      0.22      0.00
    3   11    8      0.04      0.00
  -12    1    9     -0.33      0.00
  -11    1    9      0.28      0.00
  -10    1    9     -0.09      0.00
   -9    1    9     -0.05      0.00
   -8    1    9      0.22      0.00
   -7    1    9     -0.66      0.00
   -6    1    9      0.55      0.00
   -5    1    9     -1.39      0.00
   -4    1    9     -0.36      0.00
   -3    1    9     -0.95      0.00
   -1    1    9     -0.40      0.00
    0    1    9     -3.47      0.00
    1    1    9     -0.78      0.00
    2    1    9     -0.86      0.00
    3    1    9     -0.52      0.00
    4    1    9      0.61      0.00
    5    1    9      0.48      0.00
    6    1    9     -0.28      0.00
    7    1    9      0.48      0.00
    8    1    9     -0.51      0.00
    9    1    9     -0.21      0.00
   10    1    9     -0.28      0.00
   11    1    9     -0.11      0.00
   12    1    9     -0.47      0.00
  -12    2    9     -0.39      0.00
  -11    2    9      0.31      0.00
  -10    2    9     -0.22      0.00
   -9    2    9      0.09      0.00
   -8    2    9     -0.17      0.00
   -7    2    9      0.18      0.00
   -6    2    9      0.15      0.00
   -5    2    9     -0.89      0.00
   -4    2    9      1.68      0.00
   -3    2    9     -2.42      0.00
   -2    2    9      1.72      0.00
   -1    2    9     -1.02      0.00
    0    2    9     -0.68      0.00
    1    2    9      1.47      0.00
    2    2    9     -1.46      0.00
    3    2    9      1.25      0.00
    4    2    9     -0.14      0.00
    5    2    9      0.35      0.00
    6    2    9     -0.07      0.00
    7    2    9      0.73      0.00
    8    2    9     -0.46      0.00
    9    2    9      0.32      0.00
   10    2    9      0.32      0.00
   11    2    9     -0.57      0.00
   12    2    9      0.45      0.00
  -12    3    9     -0.22      0.00
  -11    3    9      0.58      0.00
  -10    3    9     -0.55      0.00
   -9    3    9      0.50      0.00
   -8    3    9     -0.32      0.00
   -7    3    9      0.49      0.00
   -6    3    9     -1.11      0.00
   -5    3    9      0.88      0.00
   -4    3    9     -1.38      0.00
   -3    3    9     -0.84      0.00
   -2    3    9      0.48      0.00
   -1    3    9     -3.38      0.00
    0    3    9      1.42      0.00
    1    3    9     -2.37      0.00
    2    3    9      0.63      0.00
    3    3    9      0.09      0.00
    4    3    9      0.52      0.00
    5    3    9      0.06      0.00
    6    3    9      0.50      0.00
    7    3    9     -0.15      0.00
    8    3    9     -0.61      0.00
    9    3    9      0.52      0.00
   10    3    9     -0.91      0.00
   11    3    9     -0.01      0.00
  -12    4    9      0.41      0.00
  -11    4    9     -0.19      0.00
  -10    4    9      0.28      0.00
   -9    4    9      0.05      0.00
   -8    4    9      0.39      0.00
   -7    4    9     -0.14      0.00
   -6    4    9      0.28      0.00
   -5    4    9      0.57      0.00
   -4    4    9     -1.23      0.00
   -3    4    9      1.64      0.00
   -2    4    9     -1.67      0.00
   -1    4    9      0.58      0.00
    0    4    9      0.22      0.00
    1    4    9     -0.93      0.00
    2    4    9      1.15      0.00
    3    4    9     -0.41      0.00
    4    4    9      0.47      0.00
    5    4    9      0.04      0.00
    6    4    9      0.62      0.00
    7    4    9     -0.56      0.00
    8    4    9      0.72      0.00
    9    4    9     -0.17      0.00
   10    4    9     -0.24      0.00
   11    4    9      0.49      0.00
  -11    5    9     -0.29      0.00
  -10    5    9      0.31      0.00
   -9    5    9     -0.38      0.00
   -8    5    9      0.53      0.00
   -7    5    9     -0.73      0.00
   -6    5    9      1.05      0.00
   -5    5    9     -1.20      0.00
   -4    5    9      0.69      0.00
   -3    5    9     -0.07      0.00
   -2    5    9     -1.05      0.00
   -1    5    9      1.27      0.00
    0    5    9     -1.41      0.00
    1    5    9      0.76      0.00
    2    5    9      0.25      0.00
    3    5    9      0.03      0.00
    4    5    9      0.69      0.00
    5    5    9      0.23      0.00
    6    5    9     -0.01      0.00
    7    5    9      0.05      0.00
    8    5    9      0.27      0.00
    9    5    9     -0.46      0.00
   10    5    9      0.29      0.00
   11    5    9     -0.22      0.00
  -11    6    9      0.25      0.00
  -10    6    9      0.37      0.00
   -9    6    9      0.25      0.00
   -8    6    9      0.28      0.00
   -7    6    9      0.42      0.00
   -6    6    9      0.18      0.00
   -5    6    9     -0.19      0.00
   -4    6    9      0.89      0.00
   -3    6    9     -1.04      0.00
   -2    6    9      1.01      0.00
   -1    6    9     -0.42      0.00
    0    6    9     -0.16      0.00
    1    6    9      0.66      0.00
    2    6    9     -0.70      0.00
    3    6    9      0.51      0.00
    4    6    9     -0.27      0.00
    5    6    9      0.23      0.00
    6    6    9     -0.32      0.00
    7    6    9      0.45      0.00
    8    6    9     -0.47      0.00
    9    6    9      0.19      0.00
   10    6    9     -0.04      0.00
  -10    7    9     -0.50      0.00
   -9    7    9      0.11      0.00
   -8    7    9     -0.22      0.00
   -7    7    9      0.23      0.00
   -6    7    9     -0.29      0.00
   -5    7    9      0.53      0.00
   -4    7    9     -0.20      0.00
   -3    7    9      0.18      0.00
   -2    7    9      0.50      0.00
   -1    7    9     -0.56      0.00
    0    7    9      0.65      0.00
    1    7    9     -0.42      0.00
    2    7    9      0.20      0.00
    3    7    9      0.12      0.00
    4    7    9      0.08      0.00
    5    7    9      0.09      0.00
    6    7    9      0.20      0.00
    7    7    9      0.21      0.00
    8    7    9      0.17      0.00
    9    7    9      0.37      0.00
   -9    8    9      0.32      0.00
   -8    8    9      0.19      0.00
   -7    8    9      0.24      0.00
   -6    8    9     -0.24      0.00
   -5    8    9      0.46      0.00
   -4    8    9     -0.78      0.00
   -3    8    9      0.74      0.00
   -2    8    9     -0.63      0.00
   -1    8    9      0.42      0.00
    0    8    9     -0.14      0.00
    1    8    9     -0.12      0.00
    2    8    9     -0.06      0.00
    3    8    9     -0.30      0.00
    4    8    9      0.00      0.00
    5    8    9     -0.36      0.00
    6    8    9      0.24      0.00
    7    8    9     -0.34      0.00
    8    8    9      0.08      0.00
   -8    9    9      0.29      0.00
   -7    9    9     -0.63      0.00
   -6    9    9      0.68      0.00
   -5    9    9     -0.53      0.00
   -4    9    9      0.40      0.00
   -3    9    9      0.11      0.00
   -2    9    9     -0.23      0.00
   -1    9    9      0.31      0.00
    0    9    9     -0.52      0.00
    1    9    9      0.07      0.00
    2    9    9     -0.44      0.00
    3    9    9      0.11      0.00
    4    9    9     -0.23      0.00
    5    9    9      0.10      0.00
    6    9    9      0.25      0.00
    7    9    9     -0.08      0.00
   -6   10    9      0.18      0.00
   -5   10    9     -0.81      0.00
   -4   10    9      0.39      0.00
   -3   10    9     -0.72      0.00
   -2   10    9      0.23      0.00
   -1   10    9     -0.17      0.00
    0   10    9     -0.15      0.00
    1   10    9      0.01      0.00
    2   10    9     -0.42      0.00
    3   10    9      0.11      0.00
    4   10    9     -0.55      0.00
    5   10    9      0.38      0.00
   -3   11    9     -0.39      0.00
   -2   11    9      0.38      0.00
   -1   11    9     -0.41      0.00
    0   11    9      0.11      0.00
    1   11    9     -0.30      0.00
    2   11    9      0.05      0.00
    3   11    9     -0.15      0.00
  -11    0   10     -0.93      0.00
  -10    0   10      0.20      0.00
   -9    0   10     -0.07      0.00
   -8    0   10     -0.15      0.00
   -7    0   10     -0.19      0.00
   -6    0   10     -0.60      0.00
   -5    0   10      2.95      0.00
   -4    0   10     -3.80      0.00
   -3    0   10      7.50      0.00
   -2    0   10     -3.30      0.00
   -1    0   10      4.99      0.00
    0    0   10      2.40      0.00
    1    0   10     -1.40      0.00
    3    0   10     -3.05      0.00
    4    0   10      1.98      0.00
    5    0   10     -2.43      0.00
    6    0   10      2.34      0.00
    7    0   10     -2.48      0.00
    8    0   10      1.91      0.00
    9    0   10     -0.16      0.00
   10    0   10     -0.60      0.00
   11    0   10      1.64      0.00
   12    0   10     -0.47      0.00
  -12    1   10      0.31      0.00
  -11    1   10     -0.98      0.00
  -10    1   10      1.39      0.00
   -9    1   10     -1.24      0.00
   -8    1   10      1.37      0.00
   -7    1   10     -1.76      0.00
   -6    1   10      2.56      0.00
   -5    1   10     -2.44      0.00
   -4    1   10      1.32      0.00
   -3    1   10      1.79      0.00
   -2    1   10     -4.48      0.00
   -1    1   10      6.88      0.00
    0    1   10     -6.62      0.00
    1    1   10      5.08      0.00
    2    1   10     -2.88      0.00
    3    1   10      1.15      0.00
    4    1   10     -0.73      0.00
    5    1   10      0.48      0.00
    6    1   10     -0.32      0.00
    7    1   10     -0.64      0.00
    8    1   10      1.41      0.00
    9    1   10     -1.79      0.00
   10    1   10      1.08      0.00
   11    1   10      0.03      0.00
   12    1   10     -0.85      0.00
  -12    2   10     -0.83      0.00
  -11    2   10      0.69      0.00
  -10    2   10     -0.45      0.00
   -9    2   10      0.16      0.00
   -8    2   10     -0.34      0.00
   -7    2   10      0.04      0.00
   -6    2   10      0.82      0.00
   -5    2   10     -1.89      0.00
   -4    2   10      4.57      0.00
   -3    2   10     -3.56      0.00
   -2    2   10      5.33      0.00
   -1    2   10     -0.20      0.00
    0    2   10      0.59      0.00
    1    2   10      3.37      0.00
    2    2   10     -2.84      0.00
    3    2   10      2.32      0.00
    4    2   10     -2.24      0.00
    5    2   10      1.27      0.00
    6    2   10     -1.75      0.00
    7    2   10      1.60      0.00
    8    2   10     -0.96      0.00
    9    2   10      0.25      0.00
   10    2   10      0.97      0.00
   11    2   10     -0.67      0.00
   12    2   10      0.76      0.00
  -12    3   10     -0.18      0.00
  -11    3   10      0.61      0.00
  -10    3   10     -0.78      0.00
   -9    3   10      0.77      0.00
   -8    3   10     -0.88      0.00
   -7    3   10      1.19      0.00
   -6    3   10     -1.60      0.00
   -5    3   10      1.87      0.00
   -4    3   10     -0.75      0.00
   -3    3   10     -0.17      0.00
   -2    3   10      2.65      0.00
   -1    3   10     -3.21      0.00
    0    3   10      3.89      0.00
    1    3   10     -2.91      0.00
    2    3   10      1.69      0.00
    3    3   10     -0.97      0.00
    4    3   10      0.17      0.00
    5    3   10     -0.26      0.00
    6    3   10     -0.27      0.00
    7    3   10      0.46      0.00
    8    3   10     -1.05      0.00
    9    3   10      0.91      0.00
   10    3   10     -0.65      0.00
   11    3   10     -0.01      0.00
  -12    4   10      0.56      0.00
  -11    4   10     -0.33      0.00
  -10    4   10      0.16      0.00
   -9    4   10      0.21      0.00
   -8    4   10     -0.21      0.00
   -7    4   10      0.29      0.00
   -6    4   10     -0.35      0.00
   -5    4   10      1.01      0.00
   -4    4   10     -1.28      0.00
   -3    4   10      2.18      0.00
   -2    4   10     -1.31      0.00
   -1    4   10      1.41      0.00
    0    4   10      0.29      0.00
    1    4   10     -0.91      0.00
    2    4   10      1.09      0.00
    3    4   10     -1.89      0.00
    4    4   10      0.92      0.00
    5    4   10     -1.47      0.00
    6    4   10      0.90      0.00
    7    4   10     -0.93      0.00
    8    4   10      0.37      0.00
    9    4   10      0.02      0.00
   10    4   10     -0.24      0.00
   11    4   10      0.51      0.00
  -11    5   10     -0.68      0.00
  -10    5   10      0.56      0.00
   -9    5   10     -0.87      0.00
   -8    5   10      0.31      0.00
   -7    5   10     -0.55      0.00
   -6    5   10      0.14      0.00
   -5    5   10     -0.19      0.00
   -4    5   10     -0.08      0.00
   -3    5   10      0.62      0.00
   -2    5   10     -0.87      0.00
   -1    5   10      1.45      0.00
    0    5   10     -1.30      0.00
    1    5   10      1.18      0.00
    2    5   10     -0.81      0.00
    3    5   10      0.38      0.00
    4    5   10     -0.20      0.00
    5    5   10     -0.18      0.00
    6    5   10      0.30      0.00
    7    5   10     -0.63      0.00
    8    5   10      0.67      0.00
    9    5   10     -0.64      0.00
   10    5   10      0.32      0.00
  -10    6   10      0.15      0.00
   -9    6   10      0.05      0.00
   -8    6   10      0.17      0.00
   -7    6   10     -0.13      0.00
   -6    6   10      0.22      0.00
   -5    6   10     -0.38      0.00
   -4    6   10      0.31      0.00
   -3    6   10     -0.53      0.00
   -2    6   10      0.24      0.00
   -1    6   10     -0.21      0.00
    0    6   10     -0.09      0.00
    1    6   10      0.02      0.00
    2    6   10     -0.43      0.00
    3    6   10      0.00      0.00
    4    6   10     -0.50      0.00
    5    6   10      0.15      0.00
    6    6   10     -0.55      0.00
    7    6   10      0.02      0.00
    8    6   10     -0.34      0.00
    9    6   10     -0.30      0.00
   10    6   10      0.24      0.00
  -10    7   10     -0.33      0.00
   -9    7   10     -0.09      0.00
   -8    7   10     -0.44      0.00
   -7    7   10      0.09      0.00
   -6    7   10     -0.41      0.00
   -5    7   10      0.12      0.00
   -4    7   10     -0.20      0.00
   -3    7   10     -0.11      0.00
   -2    7   10      0.02      0.00
   -1    7   10     -0.21      0.00
    0    7   10      0.20      0.00
    1    7   10     -0.09      0.00
    2    7   10      0.27      0.00
    3    7   10     -0.02      0.00
    4    7   10      0.08      0.00
    5    7   10      0.09      0.00
    6    7   10     -0.22      0.00
    7    7   10      0.34      0.00
    8    7   10     -0.32      0.00
    9    7   10      0.39      0.00
   -9    8   10     -0.21      0.00
   -8    8   10      0.27      0.00
   -7    8   10     -0.19      0.00
   -6    8   10     -0.02      0.00
   -5    8   10     -0.07      0.00
   -4    8   10     -0.14      0.00
   -3    8   10     -0.11      0.00
   -2    8   10      0.09      0.00
   -1    8   10      0.01      0.00
    0    8   10      0.31      0.00
    1    8   10      0.12      0.00
    2    8   10      0.25      0.00
    3    8   10     -0.01      0.00
    4    8   10      0.13      0.00
    5    8   10     -0.14      0.00
    6    8   10     -0.15      0.00
    7    8   10     -0.22      0.00
    8    8   10     -0.38      0.00
   -7    9   10     -0.10      0.00
   -6    9   10      0.10      0.00
   -5    9   10      0.25      0.00
   -4    9   10     -0.27      0.00
   -3    9   10      0.38      0.00
   -2    9   10     -0.37      0.00
   -1    9   10      0.25      0.00
    0    9   10     -0.04      0.00
    1    9   10      0.21      0.00
    2    9   10      0.19      0.00
    3    9   10      0.08      0.00
    4    9   10      0.17      0.00
    5    9   10     -0.16      0.00
    6    9   10      0.15      0.00
    7    9   10     -0.11      0.00
   -6   10   10      0.12      0.00
   -5   10   10     -0.17      0.00
   -4   10   10      0.02      0.00
   -3   10   10      0.05      0.00
   -2   10   10     -0.01      0.00
   -1   10   10      0.30      0.00
    0   10   10      0.19      0.00
    1   10   10      0.29      0.00
    2   10   10      0.18      0.00
    3   10   10      0.15      0.00
    4   10   10      0.05      0.00
    5   10   10      0.00      0.00
   -3   11   10      0.35      0.00
   -2   11   10     -0.18      0.00
   -1   11   10      0.35      0.00
    0   11   10     -0.06      0.00
    1   11   10      0.25      0.00
    2   11   10      0.09      0.00
  -12    1   11      0.39      0.00
  -11    1   11     -0.23      0.00
  -10    1   11      0.25      0.00
   -9    1   11      0.24      0.00
   -8    1   11      0.03      0.00
   -7    1   11      0.85      0.00
   -6    1   11     -0.68      0.00
   -5    1   11      0.50      0.00
   -4    1   11     -0.77      0.00
   -3    1   11     -1.69      0.00
   -2    1   11     -0.14      0.00
   -1    1   11     -2.81      0.00
    0    1   11     -0.11      0.00
    1    1   11     -0.84      0.00
    2    1   11     -0.37      0.00
    3    1   11      0.60      0.00
    4    1   11      0.03      0.00
    5    1   11     -0.15      0.00
    6    1   11      0.47      0.00
    7    1   11     -0.34      0.00
    8    1   11      0.15      0.00
    9    1   11     -0.13      0.00
   10    1   11     -0.11      0.00
   11    1   11     -0.69      0.00
  -12    2   11      0.28      0.00
  -11    2   11     -0.30      0.00
  -10    2   11      0.08      0.00
   -9    2   11     -0.14      0.00
   -8    2   11      0.09      0.00
   -7    2   11     -0.12      0.00
   -6    2   11     -0.57      0.00
   -5    2   11      0.92      0.00
   -4    2   11     -2.13      0.00
   -3    2   11      1.48      0.00
   -2    2   11     -1.50      0.00
   -1    2   11     -0.29      0.00
    0    2   11      0.96      0.00
    1    2   11     -1.56      0.00
    2    2   11      1.27      0.00
    3    2   11     -0.60      0.00
    4    2   11      0.23      0.00
    5    2   11     -0.21      0.00
    6    2   11      0.51      0.00
    7    2   11     -0.63      0.00
    8    2   11      0.50      0.00
    9    2   11      0.07      0.00
   10    2   11     -0.41      0.00
   11    2   11      0.57      0.00
  -12    3   11      0.31      0.00
  -11    3   11     -0.67      0.00
  -10    3   11      0.47      0.00
   -9    3   11     -0.40      0.00
   -8    3   11      0.41      0.00
   -7    3   11     -0.52      0.00
   -6    3   11      0.91      0.00
   -5    3   11     -0.92      0.00
   -4    3   11      0.01      0.00
   -3    3   11      0.34      0.00
   -2    3   11     -2.36      0.00
   -1    3   11      1.56      0.00
    0    3   11     -2.12      0.00
    1    3   11      0.86      0.00
    2    3   11      0.01      0.00
    3    3   11      0.20      0.00
    4    3   11      0.13      0.00
    5    3   11      0.42      0.00
    6    3   11     -0.07      0.00
    7    3   11     -0.09      0.00
    8    3   11      0.81      0.00
    9    3   11     -0.72      0.00
   10    3   11      0.36      0.00
   11    3   11     -0.15      0.00
  -11    4   11      0.08      0.00
  -10    4   11      0.04      0.00
   -9    4   11     -0.01      0.00
   -8    4   11     -0.08      0.00
   -7    4   11      0.13      0.00
   -6    4   11      0.10      0.00
   -5    4   11     -0.96      0.00
   -4    4   11      1.11      0.00
   -3    4   11     -1.79      0.00
   -2    4   11      0.66      0.00
   -1    4   11     -0.24      0.00
    0    4   11     -0.94      0.00
    1    4   11      1.06      0.00
    2    4   11     -0.87      0.00
    3    4   11      0.42      0.00
    4    4   11     -0.12      0.00
    5    4   11      0.27      0.00
    6    4   11     -0.51      0.00
    7    4   11      0.72      0.00
    8    4   11     -0.42      0.00
    9    4   11      0.12      0.00
   10    4   11      0.37      0.00
   11    4   11     -0.29      0.00
  -11    5   11      0.12      0.00
  -10    5   11     -0.45      0.00
   -9    5   11      0.11      0.00
   -8    5   11     -0.47      0.00
   -7    5   11      0.61      0.00
   -6    5   11     -0.93      0.00
   -5    5   11      0.95      0.00
   -4    5   11     -0.29      0.00
   -3    5   11     -0.39      0.00
   -2    5   11      1.20      0.00
   -1    5   11     -1.37      0.00
    0    5   11      1.12      0.00
    1    5   11     -0.12      0.00
    2    5   11     -0.03      0.00
    3    5   11      0.73      0.00
    4    5   11     -0.15      0.00
    5    5   11      0.26      0.00
    6    5   11      0.19      0.00
    7    5   11      0.43      0.00
    8    5   11     -0.11      0.00
    9    5   11      0.52      0.00
   10    5   11     -0.21      0.00
  -10    6   11     -0.19      0.00
   -9    6   11      0.26      0.00
   -8    6   11      0.09      0.00
   -7    6   11      0.01      0.00
   -6    6   11      0.02      0.00
   -5    6   11      0.50      0.00
   -4    6   11     -0.77      0.00
   -3    6   11      0.95      0.00
   -2    6   11     -0.64      0.00
   -1    6   11      0.03      0.00
    0    6   11      0.42      0.00
    1    6   11     -0.81      0.00
    2    6   11      0.62      0.00
    3    6   11     -0.45      0.00
    4    6   11      0.31      0.00
    5    6   11     -0.22      0.00
    6    6   11      0.46      0.00
    7    6   11     -0.40      0.00
    8    6   11      0.38      0.00
    9    6   11     -0.12      0.00
   10    6   11      0.04      0.00
  -10    7   11      0.17      0.00
   -9    7   11     -0.19      0.00
   -8    7   11      0.14      0.00
   -7    7   11     -0.19      0.00
   -6    7   11      0.42      0.00
   -5    7   11     -0.23      0.00
   -4    7   11      0.28      0.00
   -3    7   11      0.29      0.00
   -2    7   11     -0.48      0.00
   -1    7   11      0.59      0.00
    0    7   11     -0.59      0.00
    1    7   11      0.23      0.00
    2    7   11     -0.04      0.00
    3    7   11     -0.03      0.00
    4    7   11      0.12      0.00
    5    7   11      0.08      0.00
    6    7   11      0.30      0.00
    7    7   11      0.09      0.00
    8    7   11      0.42      0.00
    9    7   11     -0.05      0.00
   -9    8   11     -0.01      0.00
   -8    8   11      0.13      0.00
   -7    8   11     -0.20      0.00
   -6    8   11      0.53      0.00
   -5    8   11     -0.62      0.00
   -4    8   11      1.03      0.00
   -3    8   11     -0.67      0.00
   -2    8   11      0.74      0.00
   -1    8   11     -0.31      0.00
    0    8   11      0.03      0.00
    1    8   11     -0.07      0.00
    2    8   11     -0.18      0.00
    3    8   11      0.17      0.00
    4    8   11     -0.16      0.00
    5    8   11      0.46      0.00
    6    8   11     -0.24      0.00
    7    8   11      0.26      0.00
    8    8   11     -0.07      0.00
   -7    9   11      0.75      0.00
   -6    9   11     -0.51      0.00
   -5    9   11      0.55      0.00
   -4    9   11     -0.03      0.00
   -3    9   11     -0.25      0.00
   -2    9   11      0.34      0.00
   -1    9   11     -0.74      0.00
    0    9   11      0.21      0.00
    1    9   11     -0.59      0.00
    2    9   11      0.15      0.00
    3    9   11     -0.33      0.00
    4    9   11      0.08      0.00
    5    9   11      0.10      0.00
    6    9   11     -0.17      0.00
    7    9   11      0.55      0.00
   -6   10   11     -0.60      0.00
   -5   10   11      0.71      0.00
   -4   10   11     -0.71      0.00
   -3   10   11      0.67      0.00
   -2   10   11     -0.34      0.00
   -1   10   11      0.07      0.00
    0   10   11     -0.03      0.00
    1   10   11     -0.34      0.00
    2   10   11      0.27      0.00
    3   10   11     -0.41      0.00
    4   10   11      0.63      0.00
    5   10   11     -0.40      0.00
   -3   11   11      0.49      0.00
   -2   11   11     -0.51      0.00
   -1   11   11      0.36      0.00
    0   11   11     -0.48      0.00
    1   11   11      0.25      0.00
    2   11   11     -0.31      0.00
  -10    0   12     -0.11      0.00
   -9    0   12     -0.65      0.00
   -8    0   12     -0.05      0.00
   -7    0   12     -0.95      0.00
   -6    0   12      1.18      0.00
   -5    0   12     -2.99      0.00
   -4    0   12      4.40      0.00
   -3    0   12     -3.52      0.00
   -2    0   12      3.11      0.00
   -1    0   12      0.76      0.00
    0    0   12     -2.10      0.00
    1    0   12      3.41      0.00
    2    0   12     -3.14      0.00
    3    0   12      2.19      0.00
    4    0   12     -1.72      0.00
    5    0   12      2.16      0.00
    6    0   12     -2.33      0.00
    7    0   12      1.98      0.00
    8    0   12     -1.02      0.00
    9    0   12     -0.48      0.00
   10    0   12      1.57      0.00
   11    0   12     -0.85      0.00
  -11    1   12      1.28      0.00
  -10    1   12     -1.43      0.00
   -9    1   12      1.39      0.00
   -8    1   12     -1.46      0.00
   -7    1   12      1.91      0.00
   -6    1   12     -2.05      0.00
   -5    1   12      1.64      0.00
   -4    1   12      0.47      0.00
   -3    1   12     -2.70      0.00
   -2    1   12      5.14      0.00
   -1    1   12     -5.63      0.00
    0    1   12      4.76      0.00
    1    1   12     -2.84      0.00
    2    1   12      1.18      0.00
    3    1   12     -0.35      0.00
    4    1   12      0.34      0.00
    5    1   12     -0.18      0.00
    6    1   12     -0.31      0.00
    7    1   12      1.27      0.00
    8    1   12     -1.84      0.00
    9    1   12      1.56      0.00
   10    1   12     -0.51      0.00
   11    1   12     -0.64      0.00
  -12    2   12      0.70      0.00
  -11    2   12     -0.31      0.00
  -10    2   12     -0.01      0.00
   -9    2   12     -0.02      0.00
   -8    2   12     -0.37      0.00
   -7    2   12      0.19      0.00
   -6    2   12     -1.60      0.00
   -5    2   12      2.64      0.00
   -4    2   12     -3.69      0.00
   -3    2   12      4.10      0.00
   -2    2   12     -1.98      0.00
   -1    2   12      0.59      0.00
    0    2   12      1.92      0.00
    1    2   12     -2.79      0.00
    2    2   12      2.57      0.00
    3    2   12     -2.05      0.00
    4    2   12      1.65      0.00
    5    2   12     -1.40      0.00
    6    2   12      1.49      0.00
    7    2   12     -1.37      0.00
    8    2   12      0.22      0.00
    9    2   12      0.47      0.00
   10    2   12     -0.93      0.00
   11    2   12      1.07      0.00
  -12    3   12      0.59      0.00
  -11    3   12     -0.72      0.00
  -10    3   12      0.87      0.00
   -9    3   12     -0.68      0.00
   -8    3   12      0.83      0.00
   -7    3   12     -0.98      0.00
   -6    3   12      1.53      0.00
   -5    3   12     -0.93      0.00
   -4    3   12      0.56      0.00
   -3    3   12      1.45      0.00
   -2    3   12     -2.28      0.00
   -1    3   12      3.26      0.00
    0    3   12     -2.77      0.00
    1    3   12      1.93      0.00
    2    3   12     -0.88      0.00
    3    3   12      0.34      0.00
    4    3   12      0.11      0.00
    5    3   12     -0.14      0.00
    6    3   12      0.58      0.00
    7    3   12     -0.90      0.00
    8    3   12      1.04      0.00
    9    3   12     -0.86      0.00
   10    3   12      0.19      0.00
   11    3   12      0.23      0.00
  -11    4   12      0.29      0.00
  -10    4   12      0.37      0.00
   -9    4   12     -0.33      0.00
   -8    4   12      0.48      0.00
   -7    4   12     -0.51      0.00
   -6    4   12      0.49      0.00
   -5    4   12     -1.11      0.00
   -4    4   12      1.19      0.00
   -3    4   12     -1.43      0.00
   -2    4   12      0.97      0.00
   -1    4   12     -0.24      0.00
    0    4   12     -0.63      0.00
    1    4   12      0.98      0.00
    2    4   12     -1.36      0.00
    3    4   12      1.21      0.00
    4    4   12     -1.05      0.00
    5    4   12      0.98      0.00
    6    4   12     -1.01      0.00
    7    4   12      0.26      0.00
    8    4   12     -0.36      0.00
    9    4   12     -0.45      0.00
   10    4   12      0.45      0.00
   11    4   12     -0.23      0.00
  -11    5   12      0.78      0.00
  -10    5   12     -0.64      0.00
   -9    5   12      0.74      0.00
   -8    5   12     -0.42      0.00
   -7    5   12      0.37      0.00
   -6    5   12     -0.08      0.00
   -5    5   12      0.06      0.00
   -4    5   12      0.43      0.00
   -3    5   12     -0.53      0.00
   -2    5   12      1.04      0.00
   -1    5   12     -0.95      0.00
    0    5   12      1.01      0.00
    1    5   12     -0.64      0.00
    3    5   12     -0.22      0.00
    4    5   12      0.02      0.00
    5    5   12      0.16      0.00
    6    5   12     -0.52      0.00
    7    5   12      0.60      0.00
    8    5   12     -0.80      0.00
    9    5   12      0.44      0.00
   10    5   12     -0.29      0.00
  -10    6   12     -0.01      0.00
   -9    6   12      0.25      0.00
   -8    6   12     -0.26      0.00
   -7    6   12      0.29      0.00
   -6    6   12     -0.47      0.00
   -5    6   12      0.24      0.00
   -4    6   12     -0.53      0.00
   -3    6   12      0.14      0.00
   -2    6   12     -0.23      0.00
   -1    6   12     -0.02      0.00
    0    6   12      0.00      0.00
    1    6   12     -0.14      0.00
    2    6   12      0.05      0.00
    3    6   12     -0.17      0.00
    4    6   12      0.18      0.00
    5    6   12     -0.40      0.00
    6    6   12      0.05      0.00
    7    6   12     -0.35      0.00
    8    6   12     -0.27      0.00
    9    6   12      0.29      0.00
   -9    7   12     -0.16      0.00
   -8    7   12      0.32      0.00
   -7    7   12     -0.27      0.00
   -6    7   12      0.14      0.00
   -5    7   12     -0.25      0.00
   -4    7   12     -0.13      0.00
   -3    7   12     -0.08      0.00
   -2    7   12     -0.14      0.00
   -1    7   12      0.11      0.00
    0    7   12     -0.03      0.00
    1    7   12      0.16      0.00
    2    7   12     -0.13      0.00
    3    7   12     -0.04      0.00
    4    7   12     -0.16      0.00
    5    7   12     -0.37      0.00
    6    7   12      0.16      0.00
    7    7   12     -0.51      0.00
    8    7   12      0.34      0.00
    9    7   12     -0.35      0.00
   -8    8   12     -0.33      0.00
   -7    8   12     -0.06      0.00
   -6    8   12     -0.17      0.00
   -5    8   12     -0.12      0.00
   -4    8   12     -0.16      0.00
   -3    8   12      0.10      0.00
   -2    8   12     -0.12      0.00
   -1    8   12      0.26      0.00
    0    8   12     -0.07      0.00
    1    8   12      0.13      0.00
    2    8   12     -0.14      0.00
    3    8   12      0.07      0.00
    4    8   12     -0.19      0.00
    5    8   12     -0.05      0.00
    6    8   12     -0.12      0.00
    7    8   12     -0.19      0.00
    8    8   12      0.12      0.00
   -7    9   12      0.02      0.00
   -6    9   12     -0.02      0.00
   -5    9   12     -0.46      0.00
   -4    9   12      0.12      0.00
   -3    9   12     -0.58      0.00
   -2    9   12      0.19      0.00
   -1    9   12     -0.19      0.00
    0    9   12      0.15      0.00
    1    9   12      0.00      0.00
    2    9   12     -0.12      0.00
    3    9   12     -0.11      0.00
    4    9   12     -0.41      0.00
    5    9   12     -0.07      0.00
    6    9   12     -0.29      0.00
   -5   10   12     -0.04      0.00
   -4   10   12     -0.11      0.00
   -3   10   12     -0.14      0.00
   -2   10   12      0.14      0.00
   -1   10   12     -0.06      0.00
    0   10   12      0.10      0.00
    1   10   12     -0.06      0.00
    2   10   12     -0.01      0.00
    3   10   12     -0.06      0.00
    4   10   12     -0.02      0.00
    5   10   12      0.02      0.00
   -2   11   12      0.17      0.00
   -1   11   12     -0.14      0.00
    0   11   12      0.15      0.00
    1   11   12     -0.02      0.00
  -11    1   13      0.27      0.00
  -10    1   13     -0.05      0.00
   -9    1   13      0.22      0.00
   -8    1   13      0.56      0.00
   -7    1   13     -0.23      0.00
   -6    1   13      0.98      0.00
   -5    1   13     -0.21      0.00
   -4    1   13      0.02      0.00
   -3    1   13      0.81      0.00
   -2    1   13     -1.03      0.00
   -1    1   13      1.19      0.00
    0    1   13     -0.23      0.00
    1    1   13      0.13      0.00
    2    1   13      0.36      0.00
    3    1   13     -0.52      0.00
    4    1   13     -0.39      0.00
    5    1   13      0.06      0.00
    6    1   13     -0.32      0.00
    7    1   13      0.32      0.00
    8    1   13      0.17      0.00
    9    1   13      0.10      0.00
   10    1   13     -0.40      0.00
   11    1   13      0.25      0.00
  -12    2   13     -0.31      0.00
  -11    2   13      0.13      0.00
  -10    2   13     -0.08      0.00
   -9    2   13      0.07      0.00
   -8    2   13     -0.10      0.00
   -7    2   13     -0.16      0.00
   -6    2   13      0.56      0.00
   -5    2   13     -1.36      0.00
   -4    2   13      1.50      0.00
   -3    2   13     -1.35      0.00
   -2    2   13      0.45      0.00
   -1    2   13      0.63      0.00
    0    2   13     -1.17      0.00
    1    2   13      1.24      0.00
    2    2   13     -0.85      0.00
    3    2   13      0.21      0.00
    4    2   13     -0.32      0.00
    5    2   13      0.30      0.00
    6    2   13     -0.73      0.00
    7    2   13      0.58      0.00
    8    2   13     -0.24      0.00
    9    2   13     -0.25      0.00
   10    2   13      0.52      0.00
   11    2   13     -0.34      0.00
  -12    3   13     -0.52      0.00
  -11    3   13      0.43      0.00
  -10    3   13     -0.46      0.00
   -9    3   13      0.33      0.00
   -8    3   13     -0.19      0.00
   -7    3   13      0.74      0.00
   -6    3   13     -0.43      0.00
   -5    3   13      0.68      0.00
   -4    3   13      0.52      0.00
   -3    3   13     -1.05      0.00
   -2    3   13      1.89      0.00
   -1    3   13     -1.56      0.00
    0    3   13      1.13      0.00
    1    3   13     -0.24      0.00
    2    3   13     -0.36      0.00
    3    3   13     -0.14      0.00
    4    3   13     -0.24      0.00
    5    3   13     -0.29      0.00
    6    3   13     -0.01      0.00
    7    3   13      0.79      0.00
    8    3   13     -0.55      0.00
    9    3   13      0.77      0.00
   10    3   13     -0.20      0.00
   11    3   13     -0.31      0.00
  -11    4   13     -0.08      0.00
  -10    4   13     -0.33      0.00
   -9    4   13      0.01      0.00
   -8    4   13     -0.08      0.00
   -7    4   13     -0.10      0.00
   -6    4   13     -0.51      0.00
   -5    4   13      0.82      0.00
   -4    4   13     -1.39      0.00
   -3    4   13      1.02      0.00
   -2    4   13     -0.40      0.00
   -1    4   13     -0.50      0.00
    0    4   13      1.06      0.00
    1    4   13     -1.09      0.00
    2    4   13      0.59      0.00
    3    4   13     -0.32      0.00
    4    4   13      0.05      0.00
    5    4   13     -0.34      0.00
    6    4   13      0.55      0.00
    7    4   13     -0.50      0.00
    8    4   13      0.34      0.00
    9    4   13      0.13      0.00
   10    4   13     -0.16      0.00
  -11    5   13     -0.33      0.00
  -10    5   13      0.03      0.00
   -9    5   13     -0.05      0.00
   -8    5   13      0.23      0.00
   -7    5   13     -0.39      0.00
   -6    5   13      0.91      0.00
   -5    5   13     -0.37      0.00
   -4    5   13      0.22      0.00
   -3    5   13      0.90      0.00
   -2    5   13     -1.15      0.00
   -1    5   13      1.27      0.00
    0    5   13     -0.67      0.00
    1    5   13     -0.06      0.00
    2    5   13      0.33      0.00
    3    5   13     -0.75      0.00
    4    5   13      0.26      0.00
    5    5   13     -0.19      0.00
    6    5   13      0.37      0.00
    7    5   13     -0.10      0.00
    8    5   13      0.53      0.00
    9    5   13     -0.27      0.00
   10    5   13      0.04      0.00
  -10    6   13      0.11      0.00
   -9    6   13     -0.38      0.00
   -8    6   13     -0.17      0.00
   -7    6   13      0.02      0.00
   -6    6   13      0.04      0.00
   -5    6   13     -0.42      0.00
   -4    6   13      0.73      0.00
   -3    6   13     -0.68      0.00
   -2    6   13      0.26      0.00
   -1    6   13      0.16      0.00
    0    6   13     -0.70      0.00
    1    6   13      0.72      0.00
    2    6   13     -0.55      0.00
    3    6   13      0.49      0.00
    4    6   13     -0.11      0.00
    5    6   13      0.47      0.00
    6    6   13     -0.22      0.00
    7    6   13      0.48      0.00
    8    6   13     -0.13      0.00
    9    6   13      0.20      0.00
   -9    7   13      0.15      0.00
   -8    7   13      0.03      0.00
   -7    7   13      0.33      0.00
   -6    7   13     -0.15      0.00
   -5    7   13      0.38      0.00
   -4    7   13      0.14      0.00
   -3    7   13     -0.25      0.00
   -2    7   13      0.59      0.00
   -1    7   13     -0.51      0.00
    0    7   13      0.45      0.00
    1    7   13     -0.04      0.00
    2    7   13      0.06      0.00
    3    7   13      0.21      0.00
    4    7   13     -0.03      0.00
    5    7   13      0.33      0.00
    6    7   13     -0.12      0.00
    7    7   13      0.36      0.00
    8    7   13     -0.33      0.00
   -8    8   13     -0.22      0.00
   -7    8   13      0.41      0.00
   -6    8   13     -0.47      0.00
   -5    8   13      1.08      0.00
   -4    8   13     -0.70      0.00
   -3    8   13      0.95      0.00
   -2    8   13     -0.50      0.00
   -1    8   13      0.23      0.00
    0    8   13     -0.08      0.00
    1    8   13      0.02      0.00
    2    8   13      0.32      0.00
    3    8   13      0.10      0.00
    4    8   13      0.63      0.00
    5    8   13     -0.06      0.00
    6    8   13      0.44      0.00
    7    8   13     -0.01      0.00
   -7    9   13     -0.39      0.00
   -6    9   13      0.63      0.00
   -5    9   13     -0.07      0.00
   -4    9   13     -0.03      0.00
   -3    9   13      0.52      0.00
   -2    9   13     -0.54      0.00
   -1    9   13      0.71      0.00
    0    9   13     -0.33      0.00
    1    9   13      0.62      0.00
    2    9   13     -0.05      0.00
    3    9   13      0.36      0.00
    4    9   13      0.17      0.00
    5    9   13     -0.12      0.00
    6    9   13      0.43      0.00
   -5   10   13     -0.46      0.00
   -4   10   13      1.04      0.00
   -3   10   13     -0.36      0.00
   -2   10   13      0.41      0.00
   -1   10   13     -0.02      0.00
    0   10   13     -0.11      0.00
    1   10   13      0.44      0.00
    2   10   13     -0.19      0.00
    3   10   13      0.84      0.00
    4   10   13     -0.25      0.00
   -1   11   13     -0.36      0.00
    0   11   13      0.62      0.00
  -11    0   14     -0.21      0.00
  -10    0   14     -0.50      0.00
   -9    0   14      0.56      0.00
   -8    0   14     -0.96      0.00
   -7    0   14      1.05      0.00
   -6    0   14     -2.33      0.00
   -5    0   14      2.78      0.00
   -4    0   14     -3.58      0.00
   -3    0   14      1.75      0.00
   -2    0   14     -0.63      0.00
   -1    0   14     -2.64      0.00
    0    0   14      2.77      0.00
    1    0   14     -3.32      0.00
    2    0   14      2.48      0.00
    3    0   14     -1.11      0.00
    4    0   14      2.01      0.00
    5    0   14     -1.70      0.00
    6    0   14      2.03      0.00
    7    0   14     -1.49      0.00
    8    0   14     -0.10      0.00
    9    0   14      1.15      0.00
   10    0   14     -1.33      0.00
   11    0   14      0.93      0.00
  -12    1   14      0.89      0.00
  -11    1   14     -1.34      0.00
  -10    1   14      1.39      0.00
   -9    1   14     -1.37      0.00
   -8    1   14      1.42      0.00
   -7    1   14     -1.71      0.00
   -6    1   14      1.45      0.00
   -5    1   14     -0.43      0.00
   -4    1   14     -1.62      0.00
   -3    1   14      3.48      0.00
   -2    1   14     -4.83      0.00
   -1    1   14      4.26      0.00
    0    1   14     -2.99      0.00
    1    1   14      1.26      0.00
    2    1   14     -0.23      0.00
    3    1   14      0.12      0.00
    4    1   14     -0.07      0.00
    5    1   14     -0.10      0.00
    6    1   14      0.94      0.00
    7    1   14     -1.68      0.00
    8    1   14      1.83      0.00
    9    1   14     -1.05      0.00
   10    1   14     -0.16      0.00
   11    1   14      1.04      0.00
  -12    2   14     -0.30      0.00
  -11    2   14     -0.04      0.00
  -10    2   14      0.33      0.00
   -9    2   14     -0.58      0.00
   -8    2   14      0.40      0.00
   -7    2   14     -1.18      0.00
   -6    2   14      1.69      0.00
   -5    2   14     -3.27      0.00
   -4    2   14      3.16      0.00
   -3    2   14     -3.17      0.00
   -2    2   14      0.82      0.00
   -1    2   14      0.39      0.00
    0    2   14     -2.33      0.00
    1    2   14      2.53      0.00
    2    2   14     -1.78      0.00
    3    2   14      2.12      0.00
    4    2   14     -0.96      0.00
    5    2   14      1.60      0.00
    6    2   14     -1.33      0.00
    7    2   14      0.48      0.00
    8    2   14      0.09      0.00
    9    2   14     -0.98      0.00
   10    2   14      1.10      0.00
   11    2   14     -0.46      0.00
  -11    3   14      0.90      0.00
  -10    3   14     -0.61      0.00
   -9    3   14      0.55      0.00
   -8    3   14     -0.54      0.00
   -7    3   14      0.81      0.00
   -6    3   14     -0.94      0.00
   -5    3   14      0.49      0.00
   -4    3   14      0.31      0.00
   -3    3   14     -1.79      0.00
   -2    3   14      2.30      0.00
   -1    3   14     -2.78      0.00
    0    3   14      1.95      0.00
    1    3   14     -1.13      0.00
    2    3   14      0.47      0.00
    3    3   14      0.15      0.00
    4    3   14     -0.17      0.00
    5    3   14      0.53      0.00
    6    3   14     -0.82      0.00
    7    3   14      1.02      0.00
    8    3   14     -0.98      0.00
    9    3   14      0.46      0.00
   10    3   14      0.10      0.00
   11    3   14     -0.49      0.00
  -11    4   14      0.21      0.00
  -10    4   14     -0.51      0.00
   -9    4   14      0.55      0.00
   -8    4   14     -0.73      0.00
   -7    4   14      0.39      0.00
   -6    4   14     -0.95      0.00
   -5    4   14      0.69      0.00
   -4    4   14     -1.31      0.00
   -3    4   14      0.74      0.00
   -2    4   14     -0.49      0.00
   -1    4   14     -0.28      0.00
    0    4   14      0.92      0.00
    1    4   14     -0.79      0.00
    2    4   14      1.47      0.00
    3    4   14     -0.52      0.00
    4    4   14      1.15      0.00
    5    4   14     -0.71      0.00
    6    4   14      0.43      0.00
    7    4   14     -0.38      0.00
    8    4   14     -0.31      0.00
    9    4   14      0.46      0.00
   10    4   14     -0.42      0.00
  -11    5   14     -0.41      0.00
  -10    5   14      0.85      0.00
   -9    5   14     -0.37      0.00
   -8    5   14      0.50      0.00
   -7    5   14     -0.10      0.00
   -6    5   14      0.06      0.00
   -5    5   14      0.21      0.00
   -4    5   14     -0.47      0.00
   -3    5   14      0.67      0.00
   -2    5   14     -0.81      0.00
   -1    5   14      0.77      0.00
    0    5   14     -0.58      0.00
    1    5   14      0.43      0.00
    2    5   14     -0.28      0.00
    3    5   14      0.11      0.00
    4    5   14     -0.09      0.00
    5    5   14     -0.34      0.00
    6    5   14      0.38      0.00
    7    5   14     -0.75      0.00
    8    5   14      0.52      0.00
    9    5   14     -0.41      0.00
   10    5   14      0.01      0.00
  -10    6   14      0.16      0.00
   -9    6   14     -0.43      0.00
   -8    6   14      0.31      0.00
   -7    6   14     -0.61      0.00
   -6    6   14      0.31      0.00
   -5    6   14     -0.57      0.00
   -4    6   14      0.18      0.00
   -3    6   14     -0.25      0.00
   -2    6   14      0.03      0.00
   -1    6   14     -0.02      0.00
    0    6   14      0.00      0.00
    1    6   14      0.02      0.00
    2    6   14      0.06      0.00
    3    6   14      0.15      0.00
    4    6   14     -0.22      0.00
    5    6   14      0.14      0.00
    6    6   14     -0.25      0.00
    7    6   14     -0.09      0.00
    8    6   14      0.38      0.00
    9    6   14     -0.27      0.00
   -9    7   14      0.44      0.00
   -8    7   14     -0.16      0.00
   -7    7   14      0.19      0.00
   -6    7   14     -0.15      0.00
   -5    7   14     -0.09      0.00
   -4    7   14      0.01      0.00
   -3    7   14     -0.06      0.00
   -2    7   14      0.14      0.00
   -1    7   14      0.02      0.00
    0    7   14      0.11      0.00
    1    7   14     -0.21      0.00
    2    7   14     -0.08      0.00
    3    7   14     -0.34      0.00
    4    7   14     -0.36      0.00
    5    7   14      0.03      0.00
    6    7   14     -0.52      0.00
    7    7   14      0.32      0.00
    8    7   14     -0.39      0.00
   -8    8   14      0.01      0.00
   -7    8   14     -0.12      0.00
   -6    8   14     -0.06      0.00
   -5    8   14     -0.19      0.00
   -4    8   14      0.07      0.00
   -3    8   14     -0.32      0.00
   -2    8   14      0.06      0.00
   -1    8   14     -0.41      0.00
    0    8   14     -0.18      0.00
    1    8   14     -0.46      0.00
    2    8   14     -0.21      0.00
    3    8   14     -0.40      0.00
    4    8   14     -0.14      0.00
    5    8   14     -0.17      0.00
    6    8   14     -0.11      0.00
    7    8   14      0.22      0.00
   -7    9   14     -0.14      0.00
   -6    9   14     -0.47      0.00
   -5    9   14      0.01      0.00
   -4    9   14     -0.56      0.00
   -3    9   14      0.17      0.00
   -2    9   14     -0.24      0.00
   -1    9   14      0.09      0.00
    0    9   14     -0.14      0.00
    1    9   14     -0.25      0.00
    2    9   14     -0.27      0.00
    3    9   14     -0.50      0.00
    4    9   14     -0.16      0.00
    5    9   14     -0.35      0.00
    6    9   14      0.04      0.00
   -5   10   14     -0.14      0.00
   -4   10   14     -0.24      0.00
   -3   10   14     -0.01      0.00
   -2   10   14     -0.37      0.00
   -1   10   14     -0.15      0.00
    0   10   14     -0.44      0.00
    1   10   14     -0.28      0.00
    2   10   14     -0.35      0.00
    3   10   14     -0.20      0.00
    4   10   14     -0.13      0.00
  -12    1   15      0.24      0.00
  -11    1   15     -0.24      0.00
  -10    1   15      0.17      0.00
   -9    1   15     -0.04      0.00
   -8    1   15     -0.27      0.00
   -7    1   15      0.47      0.00
   -6    1   15     -0.42      0.00
   -5    1   15      0.42      0.00
   -4    1   15      0.61      0.00
   -3    1   15     -0.25      0.00
   -2    1   15      1.37      0.00
   -1    1   15     -0.10      0.00
    0    1   15      0.37      0.00
    1    1   15      0.09      0.00
    2    1   15     -0.67      0.00
    3    1   15     -0.46      0.00
    4    1   15     -0.18      0.00
    5    1   15     -0.37      0.00
    6    1   15      0.15      0.00
    7    1   15      0.13      0.00
    8    1   15     -0.11      0.00
    9    1   15     -0.21      0.00
   10    1   15      0.29      0.00
   11    1   15     -0.55      0.00
  -12    2   15      0.15      0.00
  -11    2   15     -0.10      0.00
  -10    2   15      0.01      0.00
   -9    2   15     -0.03      0.00
   -8    2   15      0.09      0.00
   -7    2   15      0.35      0.00
   -6    2   15     -0.58      0.00
   -5    2   15      1.41      0.00
   -4    2   15     -0.97      0.00
   -3    2   15      1.06      0.00
   -2    2   15      0.34      0.00
   -1    2   15     -0.59      0.00
    0    2   15      1.12      0.00
    1    2   15     -0.81      0.00
    2    2   15      0.33      0.00
    3    2   15     -0.21      0.00
    4    2   15      0.29      0.00
    5    2   15     -0.53      0.00
    6    2   15      0.74      0.00
    7    2   15     -0.39      0.00
    8    2   15     -0.01      0.00
    9    2   15      0.39      0.00
   10    2   15     -0.43      0.00
   11    2   15      0.12      0.00
  -11    3   15     -0.39      0.00
  -10    3   15      0.31      0.00
   -9    3   15     -0.07      0.00
   -8    3   15      0.33      0.00
   -7    3   15     -0.29      0.00
   -6    3   15      0.57      0.00
   -5    3   15      0.18      0.00
   -4    3   15     -0.51      0.00
   -3    3   15      1.53      0.00
   -2    3   15     -1.39      0.00
   -1    3   15      1.14      0.00
    0    3   15     -0.56      0.00
    1    3   15     -0.60      0.00
    2    3   15     -0.14      0.00
    3    3   15     -0.71      0.00
    4    3   15     -0.26      0.00
    5    3   15     -0.15      0.00
    6    3   15      0.50      0.00
    7    3   15     -0.69      0.00
    8    3   15      0.74      0.00
    9    3   15     -0.55      0.00
   10    3   15     -0.08      0.00
  -11    4   15     -0.33      0.00
  -10    4   15      0.17      0.00
   -9    4   15     -0.17      0.00
   -8    4   15     -0.04      0.00
   -7    4   15     -0.04      0.00
   -6    4   15      0.59      0.00
   -5    4   15     -0.78      0.00
   -4    4   15      1.26      0.00
   -3    4   15     -0.46      0.00
   -2    4   15      0.07      0.00
   -1    4   15      0.91      0.00
    0    4   15     -1.07      0.00
    1    4   15      0.88      0.00
    2    4   15     -0.46      0.00
    3    4   15      0.14      0.00
    4    4   15     -0.02      0.00
    5    4   15      0.37      0.00
    6    4   15     -0.30      0.00
    7    4   15      0.40      0.00
    8    4   15     -0.05      0.00
    9    4   15     -0.10      0.00
   10    4   15      0.03      0.00
  -10    5   15      0.22      0.00
   -9    5   15     -0.08      0.00
   -8    5   15      0.12      0.00
   -7    5   15      0.49      0.00
   -6    5   15     -0.37      0.00
   -5    5   15      0.44      0.00
   -4    5   15      0.32      0.00
   -3    5   15     -0.89      0.00
   -2    5   15      1.09      0.00
   -1    5   15     -1.10      0.00
    0    5   15      0.14      0.00
    1    5   15     -0.06      0.00
    2    5   15     -0.89      0.00
    3    5   15      0.38      0.00
    4    5   15     -0.52      0.00
    5    5   15      0.40      0.00
    6    5   15     -0.28      0.00
    7    5   15      0.37      0.00
    8    5   15     -0.47      0.00
    9    5   15      0.07      0.00
  -10    6   15     -0.46      0.00
   -9    6   15      0.00      0.00
   -8    6   15      0.09      0.00
   -7    6   15     -0.20      0.00
   -6    6   15      0.01      0.00
   -5    6   15      0.36      0.00
   -4    6   15     -0.54      0.00
   -3    6   15      0.35      0.00
   -2    6   15     -0.10      0.00
   -1    6   15     -0.48      0.00
    0    6   15      0.66      0.00
    1    6   15     -0.59      0.00
    2    6   15      0.62      0.00
    3    6   15     -0.12      0.00
    4    6   15      0.40      0.00
    5    6   15     -0.11      0.00
    6    6   15      0.36      0.00
    7    6   15     -0.16      0.00
    8    6   15      0.16      0.00
    9    6   15     -0.12      0.00
   -9    7   15      0.05      0.00
   -8    7   15      0.07      0.00
   -7    7   15     -0.16      0.00
   -6    7   15      0.29      0.00
   -5    7   15     -0.08      0.00
   -4    7   15     -0.08      0.00
   -3    7   15      0.45      0.00
   -2    7   15     -0.42      0.00
   -1    7   15      0.60      0.00
    0    7   15     -0.05      0.00
    1    7   15      0.22      0.00
    2    7   15      0.29      0.00
    3    7   15     -0.02      0.00
    4    7   15      0.42      0.00
    5    7   15     -0.20      0.00
    6    7   15      0.40      0.00
    7    7   15     -0.47      0.00
    8    7   15      0.04      0.00
   -8    8   15      0.28      0.00
   -7    8   15     -0.30      0.00
   -6    8   15      0.84      0.00
   -5    8   15     -0.77      0.00
   -4    8   15      0.89      0.00
   -3    8   15     -0.76      0.00
   -2    8   15      0.34      0.00
   -1    8   15     -0.22      0.00
    0    8   15      0.14      0.00
    1    8   15      0.28      0.00
    2    8   15      0.19      0.00
    3    8   15      0.48      0.00
    4    8   15     -0.04      0.00
    5    8   15      0.32      0.00
    6    8   15     -0.07      0.00
    7    8   15     -0.08      0.00
   -6    9   15     -0.26      0.00
   -5    9   15      0.01      0.00
   -4    9   15      0.44      0.00
   -3    9   15     -0.42      0.00
   -2    9   15      0.93      0.00
   -1    9   15     -0.23      0.00
    0    9   15      0.92      0.00
    1    9   15      0.09      0.00
    2    9   15      0.56      0.00
    3    9   15      0.26      0.00
    4    9   15      0.05      0.00
    5    9   15      0.44      0.00
   -4   10   15     -0.48      0.00
   -3   10   15      0.51      0.00
   -2   10   15     -0.14      0.00
   -1   10   15      0.08      0.00
    0   10   15      0.42      0.00
    1   10   15     -0.07      0.00
    2   10   15      0.79      0.00
    3   10   15     -0.24      0.00
  -11    0   16     -0.12      0.00
  -10    0   16      0.84      0.00
   -9    0   16     -0.75      0.00
   -8    0   16      1.47      0.00
   -7    0   16     -1.61      0.00
   -6    0   16      2.57      0.00
   -5    0   16     -2.92      0.00
   -4    0   16      1.94      0.00
   -3    0   16     -0.88      0.00
   -2    0   16     -1.99      0.00
   -1    0   16      2.76      0.00
    0    0   16     -3.40      0.00
    1    0   16      2.84      0.00
    2    0   16     -1.30      0.00
    3    0   16      1.57      0.00
    4    0   16     -1.34      0.00
    5    0   16      1.80      0.00
    6    0   16     -1.53      0.00
    7    0   16      0.65      0.00
    8    0   16      0.95      0.00
    9    0   16     -1.20      0.00
   10    0   16      1.25      0.00
   11    0   16     -0.29      0.00
  -12    1   16     -0.94      0.00
  -11    1   16      1.24      0.00
  -10    1   16     -1.18      0.00
   -9    1   16      1.12      0.00
   -8    1   16     -1.31      0.00
   -7    1   16      1.15      0.00
   -6    1   16     -0.78      0.00
   -5    1   16     -0.91      0.00
   -4    1   16      2.32      0.00
   -3    1   16     -4.08      0.00
   -2    1   16      3.96      0.00
   -1    1   16     -3.23      0.00
    0    1   16      1.59      0.00
    1    1   16     -0.39      0.00
    2    1   16     -0.07      0.00
    3    1   16     -0.03      0.00
    4    1   16     -0.10      0.00
    5    1   16      0.47      0.00
    6    1   16     -1.42      0.00
    7    1   16      1.76      0.00
    8    1   16     -1.48      0.00
    9    1   16      0.42      0.00
   10    1   16      0.70      0.00
   11    1   16     -1.17      0.00
  -11    2   16      0.45      0.00
  -10    2   16     -0.63      0.00
   -9    2   16      0.82      0.00
   -8    2   16     -0.77      0.00
   -7    2   16      1.48      0.00
   -6    2   16     -2.25      0.00
   -5    2   16      2.88      0.00
   -4    2   16     -3.04      0.00
   -3    2   16      1.67      0.00
   -2    2   16     -0.39      0.00
   -1    2   16     -1.37      0.00
    0    2   16      2.28      0.00
    1    2   16     -1.78      0.00
    2    2   16      2.13      0.00
    3    2   16     -1.09      0.00
    4    2   16      1.44      0.00
    5    2   16     -1.29      0.00
    6    2   16      0.90      0.00
    7    2   16      0.00      0.00
    8    2   16     -0.45      0.00
    9    2   16      1.29      0.00
   10    2   16     -0.67      0.00
  -11    3   16     -0.60      0.00
  -10    3   16      0.40      0.00
   -9    3   16     -0.22      0.00
   -8    3   16      0.15      0.00
   -7    3   16     -0.60      0.00
   -6    3   16      0.14      0.00
   -5    3   16     -0.19      0.00
   -4    3   16     -1.35      0.00
   -3    3   16      1.64      0.00
   -2    3   16     -2.57      0.00
   -1    3   16      2.02      0.00
    0    3   16     -1.45      0.00
    1    3   16      0.64      0.00
    2    3   16     -0.11      0.00
    3    3   16     -0.32      0.00
    4    3   16      0.27      0.00
    5    3   16     -0.88      0.00
    6    3   16      0.80      0.00
    7    3   16     -1.07      0.00
    8    3   16      0.67      0.00
    9    3   16     -0.08      0.00
   10    3   16     -0.31      0.00
  -11    4   16     -0.46      0.00
  -10    4   16      0.58      0.00
   -9    4   16     -0.73      0.00
   -8    4   16      0.55      0.00
   -7    4   16     -0.65      0.00
   -6    4   16      0.65      0.00
   -5    4   16     -0.86      0.00
   -4    4   16      0.82      0.00
   -3    4   16     -0.38      0.00
   -2    4   16      0.11      0.00
   -1    4   16      0.85      0.00
    0    4   16     -0.55      0.00
    1    4   16      1.37      0.00
    2    4   16     -0.50      0.00
    3    4   16      0.93      0.00
    4    4   16     -0.62      0.00
    5    4   16      0.46      0.00
    6    4   16     -0.27      0.00
    7    4   16      0.06      0.00
    8    4   16      0.62      0.00
    9    4   16     -0.27      0.00
   10    4   16      0.50      0.00
  -10    5   16     -0.45      0.00
   -9    5   16      0.34      0.00
   -8    5   16     -0.27      0.00
   -7    5   16     -0.05      0.00
   -6    5   16     -0.01      0.00
   -5    5   16     -0.47      0.00
   -4    5   16      0.45      0.00
   -3    5   16     -0.75      0.00
   -2    5   16      0.66      0.00
   -1    5   16     -0.56      0.00
    0    5   16      0.38      0.00
    1    5   16     -0.34      0.00
    2    5   16      0.11      0.00
    3    5   16     -0.30      0.00
    4    5   16     -0.15      0.00
    5    5   16      0.10      0.00
    6    5   16     -0.54      0.00
    7    5   16      0.51      0.00
    8    5   16     -0.38      0.00
    9    5   16      0.24      0.00
  -10    6   16     -0.32      0.00
   -9    6   16      0.46      0.00
   -8    6   16     -0.51      0.00
   -7    6   16      0.54      0.00
   -6    6   16     -0.50      0.00
   -5    6   16      0.40      0.00
   -4    6   16     -0.18      0.00
   -3    6   16      0.17      0.00
   -2    6   16      0.08      0.00
   -1    6   16      0.09      0.00
    0    6   16      0.07      0.00
    1    6   16      0.14      0.00
    2    6   16      0.07      0.00
    3    6   16     -0.15      0.00
    4    6   16      0.13      0.00
    5    6   16     -0.26      0.00
    6    6   16      0.06      0.00
    7    6   16      0.34      0.00
    8    6   16     -0.20      0.00
    9    6   16      0.58      0.00
   -9    7   16     -0.29      0.00
   -8    7   16      0.07      0.00
   -7    7   16     -0.14      0.00
   -6    7   16     -0.11      0.00
   -5    7   16      0.14      0.00
   -4    7   16     -0.03      0.00
   -3    7   16      0.24      0.00
   -2    7   16      0.04      0.00
   -1    7   16      0.11      0.00
    0    7   16     -0.22      0.00
    1    7   16      0.00      0.00
    2    7   16     -0.35      0.00
    3    7   16     -0.11      0.00
    4    7   16      0.04      0.00
    5    7   16     -0.29      0.00
    6    7   16      0.40      0.00
    7    7   16     -0.28      0.00
    8    7   16      0.26      0.00
   -8    8   16      0.14      0.00
   -7    8   16      0.17      0.00
   -6    8   16     -0.02      0.00
   -5    8   16      0.21      0.00
   -4    8   16     -0.28      0.00
   -3    8   16      0.15      0.00
   -2    8   16     -0.40      0.00
   -1    8   16     -0.11      0.00
    0    8   16     -0.38      0.00
    1    8   16     -0.14      0.00
    2    8   16     -0.32      0.00
    3    8   16     -0.07      0.00
    4    8   16     -0.18      0.00
    5    8   16     -0.11      0.00
    6    8   16      0.14      0.00
    7    8   16     -0.05      0.00
   -6    9   16      0.12      0.00
   -5    9   16     -0.29      0.00
   -4    9   16      0.30      0.00
   -3    9   16     -0.06      0.00
   -2    9   16      0.12      0.00
   -1    9   16     -0.10      0.00
    0    9   16     -0.21      0.00
    1    9   16     -0.20      0.00
    2    9   16     -0.34      0.00
    3    9   16      0.01      0.00
    4    9   16     -0.17      0.00
    5    9   16      0.18      0.00
   -4   10   16      0.14      0.00
   -3   10   16     -0.32      0.00
   -2   10   16     -0.01      0.00
   -1   10   16     -0.40      0.00
    0   10   16     -0.14      0.00
    1   10   16     -0.30      0.00
    2   10   16     -0.09      0.00
    3   10   16     -0.14      0.00
  -11    1   17      0.08      0.00
  -10    1   17     -0.40      0.00
   -9    1   17     -0.24      0.00
   -8    1   17     -0.08      0.00
   -7    1   17     -0.57      0.00
   -6    1   17      0.22      0.00
   -5    1   17     -0.05      0.00
   -4    1   17     -0.24      0.00
   -3    1   17      0.70      0.00
   -2    1   17     -0.43      0.00
   -1    1   17      0.23      0.00
    0    1   17     -0.13      0.00
    1    1   17     -0.39      0.00
    2    1   17     -0.15      0.00
    3    1   17      0.15      0.00
    4    1   17     -0.12      0.00
    5    1   17      0.16      0.00
    6    1   17      0.01      0.00
    7    1   17     -0.55      0.00
    8    1   17     -0.26      0.00
    9    1   17     -0.13      0.00
   10    1   17     -0.54      0.00
  -11    2   17     -0.04      0.00
  -10    2   17     -0.02      0.00
   -9    2   17      0.11      0.00
   -8    2   17      0.09      0.00
   -7    2   17     -0.13      0.00
   -6    2   17      0.93      0.00
   -5    2   17     -0.75      0.00
   -4    2   17      1.07      0.00
   -3    2   17     -0.15      0.00
   -2    2   17     -0.25      0.00
   -1    2   17      0.74      0.00
    0    2   17     -0.71      0.00
    1    2   17      0.43      0.00
    2    2   17     -0.03      0.00
    3    2   17      0.36      0.00
    4    2   17     -0.19      0.00
    5    2   17      0.85      0.00
    6    2   17     -0.39      0.00
    7    2   17      0.25      0.00
    8    2   17      0.27      0.00
    9    2   17     -0.45      0.00
   10    2   17      0.21      0.00
  -11    3   17      0.18      0.00
  -10    3   17     -0.13      0.00
   -9    3   17     -0.11      0.00
   -8    3   17     -0.26      0.00
   -7    3   17      0.18      0.00
   -6    3   17     -0.23      0.00
   -5    3   17     -0.38      0.00
   -4    3   17      0.83      0.00
   -3    3   17     -1.40      0.00
   -2    3   17      1.00      0.00
   -1    3   17     -0.83      0.00
    0    3   17     -0.36      0.00
    1    3   17      0.19      0.00
    2    3   17     -0.63      0.00
    3    3   17      0.31      0.00
    4    3   17     -0.08      0.00
    5    3   17      0.44      0.00
    6    3   17     -0.78      0.00
    7    3   17      0.50      0.00
    8    3   17     -1.01      0.00
    9    3   17     -0.07      0.00
   10    3   17     -0.09      0.00
  -11    4   17      0.30      0.00
  -10    4   17     -0.18      0.00
   -9    4   17      0.10      0.00
   -8    4   17      0.26      0.00
   -7    4   17      0.28      0.00
   -6    4   17     -0.25      0.00
   -5    4   17      1.05      0.00
   -4    4   17     -0.59      0.00
   -3    4   17      0.39      0.00
   -2    4   17      0.48      0.00
   -1    4   17     -0.92      0.00
    0    4   17      1.04      0.00
    1    4   17     -0.58      0.00
    2    4   17      0.42      0.00
    3    4   17      0.24      0.00
    4    4   17      0.24      0.00
    5    4   17      0.08      0.00
    6    4   17      0.29      0.00
    7    4   17     -0.05      0.00
    8    4   17     -0.10      0.00
    9    4   17     -0.05      0.00
   10    4   17     -0.01      0.00
  -10    5   17     -0.42      0.00
   -9    5   17      0.28      0.00
   -8    5   17     -0.17      0.00
   -7    5   17     -0.32      0.00
   -6    5   17      0.32      0.00
   -5    5   17     -0.23      0.00
   -4    5   17     -0.56      0.00
   -3    5   17      0.68      0.00
   -2    5   17     -1.24      0.00
   -1    5   17      0.41      0.00
    0    5   17     -0.38      0.00
    1    5   17     -0.60      0.00
    2    5   17      0.53      0.00
    3    5   17     -0.57      0.00
    4    5   17      0.58      0.00
    5    5   17     -0.39      0.00
    6    5   17      0.29      0.00
    7    5   17     -0.61      0.00
    8    5   17      0.03      0.00
    9    5   17     -0.37      0.00
   -9    6   17      0.22      0.00
   -8    6   17     -0.16      0.00
   -7    6   17      0.46      0.00
   -6    6   17      0.03      0.00
   -5    6   17     -0.19      0.00
   -4    6   17      0.32      0.00
   -3    6   17     -0.22      0.00
   -2    6   17     -0.20      0.00
   -1    6   17      0.53      0.00
    0    6   17     -0.51      0.00
    1    6   17      0.68      0.00
    2    6   17     -0.18      0.00
    3    6   17      0.30      0.00
    4    6   17     -0.05      0.00
    5    6   17      0.13      0.00
    6    6   17     -0.14      0.00
    7    6   17      0.01      0.00
    8    6   17     -0.18      0.00
   -8    7   17     -0.26      0.00
   -7    7   17      0.06      0.00
   -6    7   17     -0.32      0.00
   -5    7   17      0.00      0.00
   -4    7   17      0.13      0.00
   -3    7   17     -0.43      0.00
   -2    7   17      0.42      0.00
   -1    7   17     -0.34      0.00
    0    7   17      0.07      0.00
    1    7   17      0.00      0.00
    2    7   17     -0.22      0.00
    3    7   17      0.26      0.00
    4    7   17     -0.31      0.00
    5    7   17      0.39      0.00
    6    7   17     -0.49      0.00
    7    7   17      0.24      0.00
   -7    8   17      0.53      0.00
   -6    8   17     -0.69      0.00
   -5    8   17      0.69      0.00
   -4    8   17     -0.91      0.00
   -3    8   17      0.41      0.00
   -2    8   17     -0.37      0.00
   -1    8   17      0.21      0.00
    0    8   17      0.12      0.00
    1    8   17      0.16      0.00
    2    8   17      0.14      0.00
    3    8   17     -0.11      0.00
    4    8   17      0.00      0.00
    5    8   17     -0.17      0.00
    6    8   17     -0.20      0.00
   -6    9   17     -0.07      0.00
   -5    9   17      0.17      0.00
   -4    9   17     -0.46      0.00
   -3    9   17      0.68      0.00
   -2    9   17     -0.51      0.00
   -1    9   17      0.63      0.00
    0    9   17     -0.32      0.00
    1    9   17      0.25      0.00
    2    9   17     -0.10      0.00
    3    9   17     -0.08      0.00
    4    9   17      0.25      0.00
    5    9   17     -0.31      0.00
   -3   10   17     -0.39      0.00
   -2   10   17      0.09      0.00
   -1   10   17      0.18      0.00
    0   10   17     -0.08      0.00
    1   10   17      0.47      0.00
    2   10   17     -0.35      0.00
  -11    0   18      0.68      0.00
  -10    0   18     -0.52      0.00
   -9    0   18      1.40      0.00
   -8    0   18     -1.25      0.00
   -7    0   18      2.28      0.00
   -6    0   18     -2.51      0.00
   -5    0   18      2.36      0.00
   -4    0   18     -1.06      0.00
   -3    0   18     -0.86      0.00
   -1    0   18     -3.32      0.00
    0    0   18      3.37      0.00
    1    0   18     -2.05      0.00
    2    0   18      1.32      0.00
    3    0   18     -1.43      0.00
    4    0   18      1.26      0.00
    5    0   18     -1.56      0.00
    6    0   18      1.14      0.00
    7    0   18      0.61      0.00
    8    0   18     -0.74      0.00
    9    0   18      1.60      0.00
   10    0   18     -0.58      0.00
  -11    1   18     -0.89      0.00
  -10    1   18      0.87      0.00
   -9    1   18     -0.88      0.00
   -8    1   18      0.90      0.00
   -7    1   18     -0.73      0.00
   -6    1   18     -0.30      0.00
   -5    1   18      1.65      0.00
   -4    1   18     -3.22      0.00
   -3    1   18      3.88      0.00
   -2    1   18     -3.39      0.00
   -1    1   18      2.19      0.00
    0    1   18     -0.77      0.00
    1    1   18     -0.06      0.00
    2    1   18      0.02      0.00
    3    1   18     -0.22      0.00
    4    1   18      0.13      0.00
    5    1   18     -1.07      0.00
    6    1   18      1.49      0.00
    7    1   18     -1.69      0.00
    8    1   18      0.95      0.00
    9    1   18      0.13      0.00
   10    1   18     -0.92      0.00
  -11    2   18     -0.47      0.00
  -10    2   18      1.02      0.00
   -9    2   18     -0.55      0.00
   -8    2   18      1.25      0.00
   -7    2   18     -1.45      0.00
   -6    2   18      2.40      0.00
   -5    2   18     -2.52      0.00
   -3    2   18     -0.77      0.00
   -2    2   18     -0.45      0.00
   -1    2   18      1.90      0.00
    0    2   18     -1.87      0.00
    1    2   18      1.94      0.00
    2    2   18     -1.60      0.00
    3    2   18      1.09      0.00
    4    2   18     -1.50      0.00
    5    2   18      1.05      0.00
    6    2   18     -0.28      0.00
    7    2   18      0.14      0.00
    8    2   18      1.28      0.00
    9    2   18     -0.60      0.00
   10    2   18      0.61      0.00
  -11    3   18      0.36      0.00
  -10    3   18     -0.06      0.00
   -9    3   18     -0.20      0.00
   -8    3   18     -0.07      0.00
   -7    3   18     -0.11      0.00
   -6    3   18     -0.01      0.00
   -5    3   18     -0.84      0.00
   -4    3   18      1.45      0.00
   -3    3   18     -2.06      0.00
   -2    3   18      2.20      0.00
   -1    3   18     -1.62      0.00
    0    3   18      0.90      0.00
    1    3   18     -0.43      0.00
    2    3   18     -0.40      0.00
    3    3   18      0.04      0.00
    4    3   18     -0.89      0.00
    5    3   18      0.55      0.00
    6    3   18     -1.07      0.00
    7    3   18      0.75      0.00
    8    3   18     -0.34      0.00
    9    3   18     -0.08      0.00
   10    3   18      0.51      0.00
  -10    4   18     -0.43      0.00
   -9    4   18      0.75      0.00
   -8    4   18     -0.31      0.00
   -7    4   18      0.63      0.00
   -6    4   18     -0.47      0.00
   -5    4   18      0.78      0.00
   -4    4   18     -0.26      0.00
   -3    4   18      0.26      0.00
   -2    4   18      0.69      0.00
   -1    4   18     -0.59      0.00
    0    4   18      1.13      0.00
    1    4   18     -0.80      0.00
    2    4   18      0.59      0.00
    3    4   18     -0.75      0.00
    4    4   18      0.28      0.00
    5    4   18     -0.29      0.00
    6    4   18      0.25      0.00
    7    4   18      0.58      0.00
    8    4   18     -0.09      0.00
    9    4   18      0.68      0.00
  -10    5   18      0.11      0.00
   -9    5   18     -0.34      0.00
   -8    5   18     -0.12      0.00
   -7    5   18     -0.14      0.00
   -6    5   18     -0.38      0.00
   -5    5   18      0.34      0.00
   -4    5   18     -0.65      0.00
   -3    5   18      0.65      0.00
   -2    5   18     -0.60      0.00
   -1    5   18      0.35      0.00
    0    5   18     -0.42      0.00
    1    5   18      0.02      0.00
    2    5   18     -0.42      0.00
    3    5   18     -0.07      0.00
    4    5   18     -0.17      0.00
    5    5   18     -0.32      0.00
    6    5   18      0.36      0.00
    7    5   18     -0.34      0.00
    8    5   18      0.34      0.00
    9    5   18      0.12      0.00
   -9    6   18     -0.25      0.00
   -8    6   18      0.73      0.00
   -7    6   18     -0.40      0.00
   -6    6   18      0.55      0.00
   -5    6   18     -0.20      0.00
   -4    6   18      0.24      0.00
   -3    6   18      0.16      0.00
   -2    6   18      0.10      0.00
   -1    6   18      0.25      0.00
    0    6   18      0.18      0.00
    1    6   18      0.20      0.00
    2    6   18     -0.03      0.00
    3    6   18      0.23      0.00
    4    6   18     -0.25      0.00
    5    6   18      0.23      0.00
    6    6   18      0.16      0.00
    7    6   18     -0.12      0.00
    8    6   18      0.47      0.00
   -8    7   18     -0.19      0.00
   -7    7   18     -0.21      0.00
   -6    7   18      0.16      0.00
   -5    7   18     -0.16      0.00
   -4    7   18      0.23      0.00
   -3    7   18     -0.09      0.00
   -2    7   18      0.04      0.00
   -1    7   18     -0.26      0.00
    0    7   18      0.03      0.00
    1    7   18     -0.34      0.00
    2    7   18      0.11      0.00
    3    7   18      0.02      0.00
    4    7   18     -0.07      0.00
    5    7   18      0.38      0.00
    6    7   18     -0.21      0.00
    7    7   18      0.28      0.00
   -7    8   18      0.04      0.00
   -6    8   18      0.25      0.00
   -5    8   18     -0.25      0.00
   -4    8   18      0.31      0.00
   -3    8   18     -0.23      0.00
   -2    8   18      0.23      0.00
   -1    8   18      0.04      0.00
    0    8   18      0.30      0.00
    1    8   18      0.17      0.00
    2    8   18      0.34      0.00
    3    8   18      0.10      0.00
    4    8   18      0.10      0.00
    5    8   18      0.14      0.00
    6    8   18     -0.12      0.00
   -5    9   18      0.34      0.00
   -4    9   18      0.10      0.00
   -3    9   18      0.11      0.00
   -2    9   18      0.04      0.00
   -1    9   18     -0.14      0.00
    0    9   18     -0.01      0.00
    1    9   18     -0.10      0.00
    2    9   18      0.22      0.00
    3    9   18      0.04      0.00
    4    9   18      0.31      0.00
   -2   10   18     -0.13      0.00
   -1   10   18      0.26      0.00
    0   10   18      0.05      0.00
    1   10   18      0.31      0.00
  -11    1   19     -0.43      0.00
  -10    1   19     -0.10      0.00
   -9    1   19     -0.27      0.00
   -8    1   19     -0.27      0.00
   -7    1   19      0.21      0.00
   -6    1   19     -0.19      0.00
   -5    1   19     -0.11      0.00
   -4    1   19      0.20      0.00
   -2    1   19      0.01      0.00
   -1    1   19     -0.37      0.00
    0    1   19     -0.26      0.00
    1    1   19     -0.06      0.00
    2    1   19      0.36      0.00
    3    1   19      0.00      0.00
    4    1   19      0.32      0.00
    5    1   19      0.05      0.00
    6    1   19     -0.62      0.00
    7    1   19     -0.02      0.00
    8    1   19     -0.43      0.00
    9    1   19     -0.39      0.00
   10    1   19      0.26      0.00
  -11    2   19      0.02      0.00
  -10    2   19      0.04      0.00
   -9    2   19     -0.08      0.00
   -8    2   19      0.04      0.00
   -7    2   19      0.29      0.00
   -6    2   19     -0.65      0.00
   -5    2   19      0.64      0.00
   -4    2   19     -0.64      0.00
   -3    2   19     -0.18      0.00
   -2    2   19      0.25      0.00
   -1    2   19     -0.64      0.00
    0    2   19      0.42      0.00
    1    2   19      0.05      0.00
    2    2   19      0.33      0.00
    3    2   19      0.05      0.00
    4    2   19      0.75      0.00
    5    2   19     -0.38      0.00
    6    2   19      0.40      0.00
    7    2   19      0.13      0.00
    8    2   19     -0.41      0.00
    9    2   19      0.37      0.00
   10    2   19     -0.07      0.00
  -11    3   19     -0.27      0.00
  -10    3   19     -0.40      0.00
   -9    3   19     -0.16      0.00
   -8    3   19     -0.11      0.00
   -7    3   19     -0.28      0.00
   -6    3   19     -0.15      0.00
   -5    3   19      0.39      0.00
   -4    3   19     -1.12      0.00
   -3    3   19      0.92      0.00
   -2    3   19     -0.98      0.00
   -1    3   19      0.03      0.00
    0    3   19      0.29      0.00
    1    3   19     -0.47      0.00
    2    3   19      0.76      0.00
    3    3   19     -0.10      0.00
    4    3   19      0.54      0.00
    5    3   19     -0.65      0.00
    6    3   19      0.48      0.00
    7    3   19     -1.05      0.00
    8    3   19      0.14      0.00
    9    3   19     -0.30      0.00
  -10    4   19      0.17      0.00
   -9    4   19      0.29      0.00
   -8    4   19     -0.09      0.00
   -7    4   19      0.07      0.00
   -6    4   19      0.47      0.00
   -5    4   19     -0.69      0.00
   -4    4   19      0.42      0.00
   -3    4   19     -0.08      0.00
   -2    4   19     -0.67      0.00
   -1    4   19      0.95      0.00
    0    4   19     -0.67      0.00
    1    4   19      0.69      0.00
    2    4   19      0.28      0.00
    3    4   19      0.16      0.00
    4    4   19      0.42      0.00
    5    4   19      0.08      0.00
    6    4   19      0.15      0.00
    7    4   19     -0.12      0.00
    8    4   19      0.07      0.00
    9    4   19     -0.04      0.00
  -10    5   19      0.20      0.00
   -9    5   19     -0.66      0.00
   -8    5   19     -0.13      0.00
   -7    5   19      0.14      0.00
   -6    5   19     -0.43      0.00
   -5    5   19     -0.06      0.00
   -4    5   19      0.33      0.00
   -3    5   19     -0.92      0.00
   -2    5   19      0.64      0.00
   -1    5   19     -0.55      0.00
    0    5   19     -0.16      0.00
    1    5   19      0.45      0.00
    2    5   19     -0.50      0.00
    3    5   19      0.64      0.00
    4    5   19     -0.41      0.00
    5    5   19      0.29      0.00
    6    5   19     -0.52      0.00
    7    5   19      0.13      0.00
    8    5   19     -0.34      0.00
   -9    6   19     -0.11      0.00
   -8    6   19      0.64      0.00
   -7    6   19     -0.25      0.00
   -6    6   19      0.20      0.00
   -5    6   19      0.18      0.00
   -4    6   19     -0.15      0.00
   -3    6   19      0.08      0.00
   -2    6   19      0.39      0.00
   -1    6   19     -0.31      0.00
    0    6   19      0.67      0.00
    1    6   19     -0.17      0.00
    2    6   19      0.28      0.00
    3    6   19      0.07      0.00
    4    6   19      0.03      0.00
    5    6   19      0.07      0.00
    6    6   19     -0.02      0.00
    7    6   19      0.00      0.00
    8    6   19     -0.02      0.00
   -8    7   19      0.01      0.00
   -7    7   19     -0.30      0.00
   -6    7   19      0.25      0.00
   -5    7   19     -0.02      0.00
   -4    7   19     -0.20      0.00
   -3    7   19      0.29      0.00
   -2    7   19     -0.50      0.00
   -1    7   19     -0.04      0.00
    0    7   19     -0.35      0.00
    1    7   19     -0.42      0.00
    2    7   19     -0.05      0.00
    3    7   19     -0.45      0.00
    4    7   19      0.21      0.00
    5    7   19     -0.46      0.00
    6    7   19      0.33      0.00
    7    7   19     -0.19      0.00
   -7    8   19     -0.40      0.00
   -6    8   19      0.55      0.00
   -5    8   19     -0.74      0.00
   -4    8   19      0.56      0.00
   -3    8   19     -0.38      0.00
   -2    8   19      0.33      0.00
   -1    8   19     -0.01      0.00
    0    8   19      0.14      0.00
    1    8   19     -0.11      0.00
    2    8   19     -0.06      0.00
    3    8   19     -0.20      0.00
    4    8   19     -0.03      0.00
    5    8   19     -0.20      0.00
   -5    9   19     -0.27      0.00
   -4    9   19      0.51      0.00
   -3    9   19     -0.60      0.00
   -2    9   19      0.36      0.00
   -1    9   19     -0.69      0.00
    0    9   19     -0.10      0.00
    1    9   19     -0.54      0.00
    2    9   19     -0.31      0.00
    3    9   19     -0.11      0.00
    4    9   19     -0.30      0.00
  -11    0   20     -0.31      0.00
  -10    0   20      0.91      0.00
   -9    0   20     -1.00      0.00
   -8    0   20      1.52      0.00
   -7    0   20     -2.29      0.00
   -6    0   20      2.29      0.00
   -5    0   20     -1.56      0.00
   -4    0   20      0.17      0.00
   -1    0   20      4.10      0.00
    0    0   20     -2.56      0.00
    1    0   20      2.08      0.00
    2    0   20     -1.37      0.00
    3    0   20      1.21      0.00
    4    0   20     -1.40      0.00
    5    0   20      1.27      0.00
    6    0   20     -0.05      0.00
    7    0   20     -0.52      0.00
    8    0   20      1.38      0.00
    9    0   20     -0.94      0.00
   10    0   20      0.32      0.00
  -11    1   20      0.54      0.00
  -10    1   20     -0.53      0.00
   -9    1   20      0.61      0.00
   -8    1   20     -0.58      0.00
   -7    1   20      0.16      0.00
   -6    1   20      1.11      0.00
   -5    1   20     -2.29      0.00
   -4    1   20      3.67      0.00
   -3    1   20     -3.42      0.00
   -2    1   20      2.84      0.00
   -1    1   20     -1.30      0.00
    0    1   20      0.21      0.00
    1    1   20      0.09      0.00
    2    1   20     -0.35      0.00
    3    1   20      0.08      0.00
    4    1   20     -0.71      0.00
    5    1   20      1.18      0.00
    6    1   20     -1.62      0.00
    7    1   20      1.33      0.00
    8    1   20     -0.47      0.00
    9    1   20     -0.45      0.00
   10    1   20      0.86      0.00
  -11    2   20      0.87      0.00
  -10    2   20     -0.45      0.00
   -9    2   20      0.85      0.00
   -8    2   20     -0.99      0.00
   -7    2   20      1.57      0.00
   -6    2   20     -2.05      0.00
   -5    2   20      2.07      0.00
   -4    2   20     -1.03      0.00
   -3    2   20      0.17      0.00
   -2    2   20      1.59      0.00
   -1    2   20     -1.68      0.00
    0    2   20      2.15      0.00
    1    2   20     -1.69      0.00
    2    2   20      1.26      0.00
    3    2   20     -1.43      0.00
    4    2   20      1.18      0.00
    5    2   20     -0.69      0.00
    6    2   20      0.42      0.00
    7    2   20      0.67      0.00
    8    2   20     -0.69      0.00
    9    2   20      0.71      0.00
  -10    3   20     -0.29      0.00
   -9    3   20      0.28      0.00
   -8    3   20     -0.24      0.00
   -7    3   20      0.35      0.00
   -6    3   20     -0.42      0.00
   -5    3   20      1.41      0.00
   -4    3   20     -1.48      0.00
   -3    3   20      2.27      0.00
   -2    3   20     -1.59      0.00
   -1    3   20      1.16      0.00
    0    3   20     -0.59      0.00
    1    3   20     -0.31      0.00
    2    3   20      0.01      0.00
    3    3   20     -0.77      0.00
    4    3   20      0.43      0.00
    5    3   20     -0.94      0.00
    6    3   20      0.74      0.00
    7    3   20     -0.60      0.00
    8    3   20      0.12      0.00
    9    3   20      0.21      0.00
  -10    4   20      0.70      0.00
   -9    4   20     -0.09      0.00
   -8    4   20      0.42      0.00
   -7    4   20     -0.26      0.00
   -6    4   20      0.47      0.00
   -5    4   20     -0.30      0.00
   -4    4   20      0.14      0.00
   -3    4   20      0.44      0.00
   -2    4   20     -0.72      0.00
   -1    4   20      1.02      0.00
    0    4   20     -1.00      0.00
    1    4   20      0.61      0.00
    2    4   20     -0.71      0.00
    3    4   20      0.26      0.00
    4    4   20     -0.27      0.00
    5    4   20      0.24      0.00
    6    4   20      0.25      0.00
    7    4   20     -0.19      0.00
    8    4   20      0.43      0.00
    9    4   20     -0.23      0.00
   -9    5   20     -0.06      0.00
   -8    5   20     -0.10      0.00
   -7    5   20     -0.14      0.00
   -6    5   20      0.28      0.00
   -5    5   20     -0.43      0.00
   -4    5   20      0.65      0.00
   -3    5   20     -0.57      0.00
   -2    5   20      0.40      0.00
   -1    5   20     -0.40      0.00
    0    5   20     -0.02      0.00
    1    5   20     -0.37      0.00
    2    5   20     -0.09      0.00
    3    5   20     -0.33      0.00
    4    5   20     -0.22      0.00
    5    5   20      0.05      0.00
    6    5   20     -0.40      0.00
    7    5   20      0.20      0.00
    8    5   20     -0.15      0.00
   -9    6   20      0.60      0.00
   -8    6   20     -0.41      0.00
   -7    6   20      0.43      0.00
   -6    6   20     -0.40      0.00
   -5    6   20      0.10      0.00
   -4    6   20     -0.04      0.00
   -3    6   20     -0.15      0.00
   -2    6   20      0.24      0.00
   -1    6   20     -0.06      0.00
    0    6   20      0.27      0.00
    1    6   20     -0.08      0.00
    2    6   20      0.32      0.00
    3    6   20     -0.27      0.00
    4    6   20      0.36      0.00
    5    6   20     -0.10      0.00
    6    6   20     -0.07      0.00
    7    6   20      0.17      0.00
   -8    7   20     -0.20      0.00
   -7    7   20      0.14      0.00
   -6    7   20     -0.33      0.00
   -5    7   20      0.16      0.00
   -4    7   20     -0.28      0.00
   -3    7   20     -0.03      0.00
   -2    7   20     -0.28      0.00
   -1    7   20      0.03      0.00
    0    7   20     -0.29      0.00
    1    7   20      0.19      0.00
    2    7   20     -0.12      0.00
    3    7   20     -0.06      0.00
    4    7   20      0.10      0.00
    5    7   20     -0.37      0.00
    6    7   20      0.08      0.00
   -6    8   20     -0.45      0.00
   -5    8   20      0.16      0.00
   -4    8   20     -0.38      0.00
   -3    8   20      0.21      0.00
   -2    8   20      0.06      0.00
   -1    8   20      0.34      0.00
    0    8   20      0.33      0.00
    1    8   20      0.43      0.00
    2    8   20      0.21      0.00
    3    8   20      0.21      0.00
    4    8   20      0.12      0.00
    5    8   20     -0.13      0.00
   -4    9   20     -0.11      0.00
   -3    9   20      0.08      0.00
   -2    9   20     -0.18      0.00
   -1    9   20      0.14      0.00
    0    9   20      0.00      0.00
    1    9   20      0.28      0.00
    2    9   20      0.03      0.00
    3    9   20      0.21      0.00
  -11    1   21      0.05      0.00
  -10    1   21     -0.18      0.00
   -9    1   21      0.11      0.00
   -8    1   21      0.28      0.00
   -7    1   21     -0.02      0.00
   -6    1   21      0.10      0.00
   -5    1   21      0.00      0.00
   -4    1   21     -0.57      0.00
   -3    1   21     -0.22      0.00
   -2    1   21     -0.70      0.00
   -1    1   21     -0.55      0.00
    0    1   21     -0.52      0.00
    1    1   21     -0.10      0.00
    2    1   21     -0.49      0.00
    3    1   21      0.11      0.00
    4    1   21     -0.16      0.00
    5    1   21     -0.47      0.00
    6    1   21      0.40      0.00
    7    1   21     -0.35      0.00
    8    1   21      0.15      0.00
    9    1   21      0.18      0.00
  -10    2   21     -0.06      0.00
   -9    2   21      0.15      0.00
   -8    2   21     -0.11      0.00
   -7    2   21     -0.41      0.00
   -6    2   21      0.23      0.00
   -5    2   21     -0.77      0.00
   -4    2   21     -0.12      0.00
   -3    2   21     -0.07      0.00
   -2    2   21     -0.56      0.00
   -1    2   21      0.35      0.00
    0    2   21     -0.06      0.00
    1    2   21      0.19      0.00
    2    2   21      0.08      0.00
    3    2   21      0.46      0.00
    4    2   21     -0.39      0.00
    5    2   21      0.41      0.00
    6    2   21      0.00      0.00
    7    2   21     -0.30      0.00
    8    2   21      0.52      0.00
    9    2   21     -0.21      0.00
  -10    3   21      0.07      0.00
   -9    3   21     -0.19      0.00
   -8    3   21     -0.06      0.00
   -7    3   21      0.11      0.00
   -6    3   21      0.18      0.00
   -5    3   21     -0.65      0.00
   -4    3   21      0.81      0.00
   -3    3   21     -1.02      0.00
   -2    3   21      0.28      0.00
   -1    3   21     -0.08      0.00
    0    3   21     -0.58      0.00
    1    3   21      0.57      0.00
    2    3   21     -0.53      0.00
    3    3   21      0.40      0.00
    4    3   21     -0.63      0.00
    5    3   21      0.52      0.00
    6    3   21     -0.71      0.00
    7    3   21      0.57      0.00
    8    3   21     -0.12      0.00
    9    3   21      0.01      0.00
  -10    4   21      0.16      0.00
   -9    4   21     -0.31      0.00
   -8    4   21      0.26      0.00
   -7    4   21     -0.10      0.00
   -6    4   21     -0.56      0.00
   -5    4   21      0.28      0.00
   -4    4   21     -0.51      0.00
   -3    4   21     -0.38      0.00
   -2    4   21      0.57      0.00
   -1    4   21     -0.74      0.00
    0    4   21      0.72      0.00
    1    4   21      0.02      0.00
    2    4   21      0.07      0.00
    3    4   21      0.52      0.00
    4    4   21     -0.14      0.00
    5    4   21      0.43      0.00
    6    4   21     -0.12      0.00
    7    4   21      0.35      0.00
    8    4   21      0.02      0.00
   -9    5   21      0.17      0.00
   -8    5   21      0.08      0.00
   -7    5   21     -0.31      0.00
   -6    5   21      0.42      0.00
   -5    5   21      0.10      0.00
   -4    5   21     -0.31      0.00
   -3    5   21      0.74      0.00
   -2    5   21     -0.48      0.00
   -1    5   21      0.28      0.00
    0    5   21      0.24      0.00
    1    5   21     -0.33      0.00
    2    5   21      0.50      0.00
    3    5   21     -0.36      0.00
    4    5   21      0.25      0.00
    5    5   21     -0.25      0.00
    6    5   21      0.30      0.00
    7    5   21     -0.05      0.00
    8    5   21      0.32      0.00
   -8    6   21     -0.46      0.00
   -7    6   21      0.42      0.00
   -6    6   21     -0.05      0.00
   -5    6   21     -0.07      0.00
   -4    6   21      0.16      0.00
   -3    6   21      0.15      0.00
   -2    6   21     -0.22      0.00
   -1    6   21      0.46      0.00
    0    6   21     -0.23      0.00
    1    6   21      0.22      0.00
    2    6   21      0.17      0.00
    3    6   21      0.07      0.00
    4    6   21      0.39      0.00
    5    6   21      0.13      0.00
    6    6   21      0.34      0.00
    7    6   21      0.11      0.00
   -7    7   21      0.55      0.00
   -6    7   21     -0.02      0.00
   -5    7   21      0.25      0.00
   -4    7   21      0.37      0.00
   -3    7   21     -0.22      0.00
   -2    7   21      0.27      0.00
   -1    7   21     -0.23      0.00
    0    7   21     -0.10      0.00
    1    7   21      0.00      0.00
    2    7   21     -0.19      0.00
    3    7   21      0.20      0.00
    4    7   21     -0.20      0.00
    5    7   21      0.38      0.00
    6    7   21     -0.04      0.00
   -6    8   21     -0.39      0.00
   -5    8   21      0.67      0.00
   -4    8   21     -0.29      0.00
   -3    8   21      0.44      0.00
   -2    8   21     -0.11      0.00
   -1    8   21      0.13      0.00
    0    8   21     -0.21      0.00
    1    8   21      0.11      0.00
    2    8   21     -0.17      0.00
    3    8   21      0.33      0.00
    4    8   21      0.01      0.00
    5    8   21      0.53      0.00
   -4    9   21     -0.29      0.00
   -3    9   21      0.46      0.00
   -2    9   21     -0.47      0.00
   -1    9   21      0.11      0.00
    0    9   21     -0.41      0.00
    1    9   21     -0.06      0.00
    2    9   21     -0.11      0.00
  -10    0   22     -0.65      0.00
   -9    0   22      0.67      0.00
   -8    0   22     -1.76      0.00
   -7    0   22      1.91      0.00
   -6    0   22     -1.87      0.00
   -5    0   22      1.03      0.00
   -4    0   22      1.46      0.00
   -3    0   22     -2.12      0.00
   -2    0   22      4.45      0.00
   -1    0   22     -2.75      0.00
    0    0   22      3.36      0.00
    1    0   22     -1.24      0.00
    2    0   22      1.80      0.00
    3    0   22     -0.96      0.00
    4    0   22      1.43      0.00
    5    0   22     -0.55      0.00
    6    0   22     -0.35      0.00
    7    0   22      0.83      0.00
    8    0   22     -1.30      0.00
    9    0   22      0.69      0.00
  -10    1   22      0.29      0.00
   -9    1   22     -0.47      0.00
   -8    1   22      0.39      0.00
   -7    1   22      0.45      0.00
   -6    1   22     -1.44      0.00
   -5    1   22      2.97      0.00
   -4    1   22     -3.26      0.00
   -3    1   22      3.16      0.00
   -2    1   22     -1.86      0.00
   -1    1   22      0.64      0.00
    0    1   22      0.11      0.00
    1    1   22     -0.43      0.00
    2    1   22      0.30      0.00
    3    1   22     -0.47      0.00
    4    1   22      0.92      0.00
    5    1   22     -1.37      0.00
    6    1   22      1.45      0.00
    7    1   22     -0.98      0.00
    8    1   22      0.09      0.00
    9    1   22      0.48      0.00
  -10    2   22      0.36      0.00
   -9    2   22     -0.66      0.00
   -8    2   22      0.77      0.00
   -7    2   22     -1.51      0.00
   -6    2   22      1.64      0.00
   -5    2   22     -1.08      0.00
   -4    2   22      0.53      0.00
   -3    2   22      1.34      0.00
   -2    2   22     -1.30      0.00
   -1    2   22      2.58      0.00
    0    2   22     -1.40      0.00
    1    2   22      1.89      0.00
    2    2   22     -0.96      0.00
    3    2   22      1.48      0.00
    4    2   22     -0.83      0.00
    5    2   22      0.66      0.00
    6    2   22     -0.11      0.00
    7    2   22     -0.73      0.00
    8    2   22      0.45      0.00
    9    2   22     -0.38      0.00
  -10    3   22      0.30      0.00
   -9    3   22     -0.32      0.00
   -8    3   22      0.41      0.00
   -7    3   22     -0.28      0.00
   -6    3   22      1.11      0.00
   -5    3   22     -1.12      0.00
   -4    3   22      2.00      0.00
   -3    3   22     -1.49      0.00
   -2    3   22      1.31      0.00
   -1    3   22     -0.55      0.00
    0    3   22     -0.07      0.00
    1    3   22      0.26      0.00
    2    3   22     -0.54      0.00
    3    3   22      0.48      0.00
    4    3   22     -0.71      0.00
    5    3   22      0.64      0.00
    6    3   22     -0.78      0.00
    7    3   22      0.25      0.00
    8    3   22     -0.19      0.00
   -9    4   22      0.05      0.00
   -8    4   22     -0.17      0.00
   -7    4   22      0.10      0.00
   -6    4   22     -0.31      0.00
   -5    4   22      0.00      0.00
   -4    4   22      0.23      0.00
   -3    4   22     -0.73      0.00
   -2    4   22      1.00      0.00
   -1    4   22     -0.99      0.00
    0    4   22      0.89      0.00
    1    4   22     -0.51      0.00
    2    4   22      0.44      0.00
    3    4   22     -0.12      0.00
    4    4   22      0.21      0.00
    5    4   22     -0.06      0.00
    6    4   22     -0.34      0.00
    7    4   22      0.01      0.00
    8    4   22     -0.53      0.00
   -9    5   22     -0.04      0.00
   -8    5   22      0.04      0.00
   -7    5   22      0.12      0.00
   -6    5   22     -0.17      0.00
   -5    5   22      0.53      0.00
   -4    5   22     -0.41      0.00
   -3    5   22      0.53      0.00
   -2    5   22     -0.20      0.00
   -1    5   22      0.14      0.00
    0    5   22     -0.03      0.00
    1    5   22     -0.02      0.00
    2    5   22     -0.20      0.00
    3    5   22     -0.16      0.00
    4    5   22     -0.18      0.00
    5    5   22     -0.47      0.00
    6    5   22     -0.02      0.00
    7    5   22     -0.44      0.00
   -8    6   22      0.23      0.00
   -7    6   22     -0.52      0.00
   -6    6   22      0.00      0.00
   -5    6   22     -0.24      0.00
   -4    6   22     -0.38      0.00
   -3    6   22      0.08      0.00
   -2    6   22     -0.47      0.00
   -1    6   22      0.16      0.00
    0    6   22     -0.40      0.00
    1    6   22      0.20      0.00
    2    6   22     -0.48      0.00
    3    6   22      0.29      0.00
    4    6   22     -0.44      0.00
    5    6   22     -0.06      0.00
    6    6   22     -0.21      0.00
    7    6   22     -0.47      0.00
   -7    7   22     -0.37      0.00
   -6    7   22      0.14      0.00
   -5    7   22     -0.34      0.00
   -4    7   22      0.03      0.00
   -3    7   22     -0.14      0.00
   -2    7   22      0.13      0.00
   -1    7   22     -0.09      0.00
    0    7   22      0.23      0.00
    1    7   22     -0.19      0.00
    2    7   22     -0.13      0.00
    3    7   22     -0.21      0.00
    4    7   22     -0.58      0.00
    5    7   22     -0.18      0.00
   -5    8   22     -0.52      0.00
   -4    8   22      0.04      0.00
   -3    8   22     -0.22      0.00
   -2    8   22     -0.05      0.00
   -1    8   22     -0.02      0.00
    0    8   22     -0.05      0.00
    1    8   22     -0.15      0.00
    2    8   22     -0.12      0.00
    3    8   22     -0.17      0.00
    4    8   22     -0.29      0.00
   -3    9   22     -0.30      0.00
   -2    9   22      0.19      0.00
   -1    9   22     -0.07      0.00
    0    9   22      0.17      0.00
    1    9   22     -0.15      0.00
  -10    1   23      0.29      0.00
   -9    1   23      0.22      0.00
   -8    1   23      0.06      0.00
   -7    1   23      0.13      0.00
   -6    1   23     -0.10      0.00
   -5    1   23     -0.45      0.00
   -4    1   23     -0.23      0.00
   -3    1   23     -0.75      0.00
   -2    1   23     -0.63      0.00
   -1    1   23     -0.76      0.00
    0    1   23     -0.49      0.00
    1    1   23     -0.86      0.00
    2    1   23     -0.14      0.00
    3    1   23     -0.48      0.00
    4    1   23     -0.34      0.00
    5    1   23      0.52      0.00
    6    1   23     -0.30      0.00
    7    1   23      0.59      0.00
    8    1   23      0.05      0.00
    9    1   23     -0.22      0.00
  -10    2   23      0.19      0.00
   -9    2   23     -0.20      0.00
   -8    2   23     -0.01      0.00
   -7    2   23      0.11      0.00
   -6    2   23     -0.45      0.00
   -5    2   23      0.12      0.00
   -4    2   23     -0.07      0.00
   -3    2   23     -0.37      0.00
   -2    2   23      0.34      0.00
   -1    2   23     -0.26      0.00
    0    2   23      0.05      0.00
    1    2   23     -0.08      0.00
    2    2   23      0.10      0.00
    3    2   23     -0.40      0.00
    4    2   23      0.34      0.00
    5    2   23     -0.09      0.00
    6    2   23     -0.13      0.00
    7    2   23      0.59      0.00
    8    2   23     -0.32      0.00
  -10    3   23     -0.14      0.00
   -9    3   23      0.21      0.00
   -8    3   23      0.22      0.00
   -7    3   23      0.04      0.00
   -6    3   23     -0.23      0.00
   -5    3   23      0.58      0.00
   -4    3   23     -0.91      0.00
   -3    3   23      0.44      0.00
   -2    3   23     -0.50      0.00
   -1    3   23     -0.56      0.00
    0    3   23      0.16      0.00
    1    3   23     -0.90      0.00
    2    3   23      0.18      0.00
    3    3   23     -0.71      0.00
    4    3   23      0.44      0.00
    5    3   23     -0.44      0.00
    6    3   23      0.77      0.00
    7    3   23      0.05      0.00
    8    3   23      0.25      0.00
   -9    4   23      0.41      0.00
   -8    4   23     -0.32      0.00
   -7    4   23     -0.13      0.00
   -6    4   23      0.25      0.00
   -5    4   23     -0.53      0.00
   -4    4   23     -0.01      0.00
   -3    4   23      0.15      0.00
   -2    4   23     -0.70      0.00
   -1    4   23      0.47      0.00
    0    4   23     -0.41      0.00
    1    4   23     -0.09      0.00
    2    4   23      0.30      0.00
    3    4   23     -0.35      0.00
    4    4   23      0.55      0.00
    5    4   23     -0.17      0.00
    6    4   23      0.55      0.00
    7    4   23      0.01      0.00
    8    4   23      0.29      0.00
   -8    5   23     -0.14      0.00
   -7    5   23      0.58      0.00
   -6    5   23     -0.16      0.00
   -5    5   23      0.14      0.00
   -4    5   23      0.54      0.00
   -3    5   23     -0.35      0.00
   -2    5   23      0.48      0.00
   -1    5   23     -0.02      0.00
    0    5   23     -0.11      0.00
    1    5   23      0.25      0.00
    2    5   23     -0.19      0.00
    3    5   23      0.13      0.00
    4    5   23      0.07      0.00
    5    5   23      0.31      0.00
    6    5   23      0.25      0.00
    7    5   23      0.43      0.00
   -8    6   23      0.50      0.00
   -7    6   23     -0.18      0.00
   -6    6   23      0.03      0.00
   -5    6   23      0.12      0.00
   -4    6   23     -0.11      0.00
   -3    6   23     -0.24      0.00
   -2    6   23      0.09      0.00
   -1    6   23     -0.41      0.00
    0    6   23      0.03      0.00
    1    6   23      0.08      0.00
    2    6   23      0.01      0.00
    3    6   23      0.49      0.00
    4    6   23      0.19      0.00
    5    6   23      0.51      0.00
    6    6   23      0.19      0.00
   -6    7   23      0.40      0.00
   -5    7   23      0.17      0.00
   -4    7   23     -0.02      0.00
   -3    7   23      0.46      0.00
   -2    7   23     -0.05      0.00
   -1    7   23      0.36      0.00
    0    7   23      0.20      0.00
    1    7   23      0.29      0.00
    2    7   23      0.31      0.00
    3    7   23      0.23      0.00
    4    7   23      0.41      0.00
    5    7   23      0.18      0.00
   -5    8   23     -0.24      0.00
   -4    8   23      0.40      0.00
   -3    8   23     -0.22      0.00
   -2    8   23      0.07      0.00
   -1    8   23     -0.24      0.00
    0    8   23      0.21      0.00
    1    8   23     -0.07      0.00
    2    8   23      0.58      0.00
    3    8   23      0.16      0.00
  -10    0   24      0.09      0.00
   -9    0   24     -0.85      0.00
   -8    0   24      1.38      0.00
   -7    0   24     -1.69      0.00
   -6    0   24      1.54      0.00
   -5    0   24      0.27      0.00
   -4    0   24     -1.35      0.00
   -3    0   24      3.65      0.00
   -2    0   24     -3.11      0.00
   -1    0   24      3.75      0.00
    0    0   24     -1.88      0.00
    1    0   24      2.04      0.00
    2    0   24     -1.01      0.00
    3    0   24      1.36      0.00
    4    0   24     -0.82      0.00
    5    0   24     -0.02      0.00
    6    0   24      0.44      0.00
    7    0   24     -1.25      0.00
    8    0   24      1.00      0.00
  -10    1   24     -0.29      0.00
   -9    1   24      0.42      0.00
   -8    1   24     -0.20      0.00
   -7    1   24     -0.69      0.00
   -6    1   24      1.83      0.00
   -5    1   24     -2.84      0.00
   -4    1   24      2.94      0.00
   -3    1   24     -2.31      0.00
   -2    1   24      1.07      0.00
   -1    1   24     -0.03      0.00
    0    1   24     -0.43      0.00
    1    1   24      0.61      0.00
    2    1   24     -0.43      0.00
    3    1   24      0.75      0.00
    4    1   24     -1.10      0.00
    5    1   24      1.34      0.00
    6    1   24     -1.28      0.00
    7    1   24      0.56      0.00
    8    1   24      0.00      0.00
  -10    2   24     -0.30      0.00
   -9    2   24      0.24      0.00
   -8    2   24     -0.88      0.00
   -7    2   24      1.18      0.00
   -6    2   24     -1.02      0.00
   -5    2   24      0.61      0.00
   -4    2   24      0.82      0.00
   -3    2   24     -1.19      0.00
   -2    2   24      2.42      0.00
   -1    2   24     -1.51      0.00
    0    2   24      2.01      0.00
    1    2   24     -0.86      0.00
    2    2   24      1.42      0.00
    3    2   24     -0.86      0.00
    4    2   24      0.84      0.00
    5    2   24     -0.61      0.00
    6    2   24     -0.37      0.00
    7    2   24      0.25      0.00
    8    2   24     -0.48      0.00
   -9    3   24      0.18      0.00
   -8    3   24     -0.30      0.00
   -7    3   24      0.51      0.00
   -6    3   24     -1.02      0.00
   -5    3   24      1.36      0.00
   -4    3   24     -1.48      0.00
   -3    3   24      1.18      0.00
   -2    3   24     -0.50      0.00
   -1    3   24      0.09      0.00
    0    3   24      0.55      0.00
    1    3   24     -0.36      0.00
    2    3   24      0.62      0.00
    3    3   24     -0.47      0.00
    4    3   24      0.53      0.00
    5    3   24     -0.76      0.00
    6    3   24      0.36      0.00
    7    3   24     -0.47      0.00
    8    3   24     -0.12      0.00
   -9    4   24     -0.04      0.00
   -8    4   24     -0.11      0.00
   -7    4   24     -0.19      0.00
   -6    4   24     -0.02      0.00
   -5    4   24      0.10      0.00
   -4    4   24     -0.58      0.00
   -3    4   24      0.91      0.00
   -2    4   24     -0.89      0.00
   -1    4   24      1.05      0.00
    0    4   24     -0.38      0.00
    1    4   24      0.54      0.00
    2    4   24      0.02      0.00
    3    4   24      0.16      0.00
    4    4   24     -0.16      0.00
    5    4   24     -0.30      0.00
    6    4   24     -0.17      0.00
    7    4   24     -0.52      0.00
   -8    5   24     -0.14      0.00
   -7    5   24     -0.06      0.00
   -6    5   24      0.17      0.00
   -5    5   24     -0.30      0.00
   -4    5   24      0.45      0.00
   -3    5   24     -0.06      0.00
   -2    5   24      0.25      0.00
   -1    5   24      0.30      0.00
    0    5   24      0.05      0.00
    1    5   24      0.12      0.00
    2    5   24     -0.05      0.00
    3    5   24     -0.13      0.00
    4    5   24     -0.35      0.00
    5    5   24     -0.03      0.00
    6    5   24     -0.48      0.00
    7    5   24     -0.02      0.00
   -7    6   24      0.15      0.00
   -6    6   24     -0.16      0.00
   -5    6   24     -0.21      0.00
   -4    6   24      0.16      0.00
   -3    6   24     -0.50      0.00
   -2    6   24      0.28      0.00
   -1    6   24     -0.51      0.00
    0    6   24      0.23      0.00
    1    6   24     -0.54      0.00
    2    6   24      0.26      0.00
    3    6   24     -0.60      0.00
    4    6   24      0.03      0.00
    5    6   24     -0.43      0.00
    6    6   24     -0.34      0.00
   -6    7   24     -0.30      0.00
   -5    7   24      0.13      0.00
   -4    7   24      0.01      0.00
   -3    7   24      0.20      0.00
   -2    7   24      0.12      0.00
   -1    7   24      0.24      0.00
    0    7   24     -0.11      0.00
    1    7   24     -0.10      0.00
    2    7   24     -0.26      0.00
    3    7   24     -0.51      0.00
    4    7   24     -0.16      0.00
   -4    8   24     -0.16      0.00
   -3    8   24     -0.12      0.00
   -2    8   24     -0.09      0.00
   -1    8   24     -0.34      0.00
    0    8   24     -0.30      0.00
    1    8   24     -0.37      0.00
    2    8   24     -0.34      0.00
   -9    1   25     -0.07      0.00
   -8    1   25      0.01      0.00
   -7    1   25     -0.16      0.00
   -6    1   25     -0.22      0.00
   -5    1   25      0.06      0.00
   -4    1   25     -0.33      0.00
   -3    1   25     -0.06      0.00
   -2    1   25     -0.21      0.00
   -1    1   25     -0.06      0.00
    0    1   25     -0.32      0.00
    1    1   25      0.21      0.00
    2    1   25     -0.28      0.00
    3    1   25      0.00      0.00
    4    1   25      0.45      0.00
    5    1   25     -0.36      0.00
    6    1   25      0.62      0.00
    7    1   25     -0.29      0.00
    8    1   25     -0.11      0.00
   -9    2   25      0.25      0.00
   -8    2   25      0.08      0.00
   -7    2   25      0.00      0.00
   -6    2   25      0.38      0.00
   -5    2   25      0.14      0.00
   -4    2   25     -0.06      0.00
   -3    2   25      0.46      0.00
   -2    2   25     -0.35      0.00
   -1    2   25      0.13      0.00
    0    2   25     -0.21      0.00
    1    2   25     -0.04      0.00
    2    2   25     -0.32      0.00
    3    2   25      0.27      0.00
    4    2   25     -0.13      0.00
    5    2   25      0.01      0.00
    6    2   25      0.51      0.00
    7    2   25     -0.40      0.00
    8    2   25      0.41      0.00
   -9    3   25      0.07      0.00
   -8    3   25     -0.09      0.00
   -7    3   25      0.00      0.00
   -6    3   25      0.32      0.00
   -5    3   25     -0.58      0.00
   -4    3   25      0.61      0.00
   -3    3   25     -0.55      0.00
   -2    3   25     -0.13      0.00
   -1    3   25      0.06      0.00
    0    3   25     -0.69      0.00
    1    3   25      0.25      0.00
    2    3   25     -0.57      0.00
    3    3   25      0.42      0.00
    4    3   25     -0.30      0.00
    5    3   25      0.64      0.00
    6    3   25     -0.05      0.00
    7    3   25      0.14      0.00
   -8    4   25      0.29      0.00
   -7    4   25      0.29      0.00
   -6    4   25     -0.21      0.00
   -5    4   25      0.41      0.00
   -4    4   25      0.01      0.00
   -3    4   25     -0.34      0.00
   -2    4   25      0.33      0.00
   -1    4   25     -0.52      0.00
    0    4   25     -0.06      0.00
    1    4   25      0.06      0.00
    2    4   25     -0.38      0.00
    3    4   25      0.45      0.00
    4    4   25     -0.26      0.00
    5    4   25      0.48      0.00
    6    4   25     -0.13      0.00
    7    4   25      0.29      0.00
   -8    5   25      0.44      0.00
   -7    5   25     -0.42      0.00
   -6    5   25      0.28      0.00
   -5    5   25      0.11      0.00
   -4    5   25     -0.31      0.00
   -3    5   25      0.32      0.00
   -2    5   25     -0.35      0.00
   -1    5   25     -0.05      0.00
    0    5   25     -0.13      0.00
    1    5   25     -0.09      0.00
    2    5   25     -0.16      0.00
    3    5   25      0.25      0.00
    4    5   25      0.03      0.00
    5    5   25      0.34      0.00
    6    5   25      0.22      0.00
   -7    6   25      0.12      0.00
   -6    6   25      0.16      0.00
   -5    6   25     -0.18      0.00
   -4    6   25     -0.11      0.00
   -3    6   25     -0.06      0.00
   -2    6   25     -0.38      0.00
   -1    6   25     -0.02      0.00
    0    6   25     -0.02      0.00
    1    6   25     -0.06      0.00
    2    6   25      0.34      0.00
    3    6   25      0.05      0.00
    4    6   25      0.28      0.00
    5    6   25      0.04      0.00
   -5    7   25     -0.12      0.00
   -4    7   25      0.20      0.00
   -3    7   25     -0.26      0.00
   -2    7   25      0.29      0.00
   -1    7   25     -0.06      0.00
    0    7   25      0.31      0.00
    1    7   25      0.03      0.00
    2    7   25      0.31      0.00
    3    7   25      0.11      0.00
    4    7   25      0.21      0.00
   -3    8   25      0.03      0.00
   -2    8   25     -0.19      0.00
   -1    8   25      0.19      0.00
    0    8   25     -0.03      0.00
    1    8   25      0.51      0.00
   -9    0   26      0.81      0.00
   -8    0   26     -1.09      0.00
   -7    0   26      1.59      0.00
   -6    0   26     -0.77      0.00
   -5    0   26     -0.65      0.00
   -4    0   26      2.02      0.00
   -3    0   26     -3.33      0.00
   -2    0   26      3.03      0.00
   -1    0   26     -3.00      0.00
    0    0   26      1.65      0.00
    1    0   26     -1.67      0.00
    2    0   26      0.96      0.00
    3    0   26     -1.09      0.00
    4    0   26      0.29      0.00
    5    0   26      0.22      0.00
    6    0   26     -0.84      0.00
    7    0   26      1.24      0.00
   -9    1   26     -0.51      0.00
   -8    1   26     -0.03      0.00
   -7    1   26      0.71      0.00
   -6    1   26     -2.04      0.00
   -5    1   26      2.34      0.00
   -4    1   26     -2.41      0.00
   -3    1   26      1.34      0.00
   -2    1   26     -0.35      0.00
   -1    1   26     -0.39      0.00
    0    1   26      0.74      0.00
    1    1   26     -0.57      0.00
    2    1   26      0.64      0.00
    3    1   26     -0.88      0.00
    4    1   26      1.09      0.00
    5    1   26     -1.32      0.00
    6    1   26      0.88      0.00
    7    1   26     -0.41      0.00
   -9    2   26     -0.22      0.00
   -8    2   26      0.84      0.00
   -7    2   26     -0.85      0.00
   -6    2   26      0.57      0.00
   -5    2   26      0.14      0.00
   -4    2   26     -1.21      0.00
   -3    2   26      1.69      0.00
   -2    2   26     -1.97      0.00
   -1    2   26      1.50      0.00
    0    2   26     -1.27      0.00
    1    2   26      0.85      0.00
    2    2   26     -0.98      0.00
    3    2   26      0.74      0.00
    4    2   26     -0.83      0.00
    5    2   26      0.17      0.00
    6    2   26      0.13      0.00
    7    2   26     -0.23      0.00
   -8    3   26      0.01      0.00
   -7    3   26     -0.81      0.00
   -6    3   26      0.70      0.00
   -5    3   26     -1.41      0.00
   -4    3   26      0.85      0.00
   -3    3   26     -0.63      0.00
   -2    3   26     -0.03      0.00
   -1    3   26      0.51      0.00
    0    3   26     -0.51      0.00
    1    3   26      0.57      0.00
    2    3   26     -0.41      0.00
    3    3   26      0.33      0.00
    4    3   26     -0.58      0.00
    5    3   26      0.42      0.00
    6    3   26     -0.53      0.00
    7    3   26      0.23      0.00
   -8    4   26      0.02      0.00
   -7    4   26      0.06      0.00
   -6    4   26      0.01      0.00
   -5    4   26     -0.34      0.00
   -4    4   26      0.69      0.00
   -3    4   26     -0.72      0.00
   -2    4   26      0.98      0.00
   -1    4   26     -0.35      0.00
    0    4   26      0.47      0.00
    1    4   26      0.08      0.00
    2    4   26      0.07      0.00
    3    4   26     -0.09      0.00
    4    4   26     -0.13      0.00
    5    4   26     -0.10      0.00
    6    4   26     -0.24      0.00
   -7    5   26     -0.19      0.00
   -6    5   26     -0.22      0.00
   -5    5   26      0.12      0.00
   -4    5   26     -0.14      0.00
   -3    5   26      0.04      0.00
   -2    5   26      0.23      0.00
   -1    5   26     -0.19      0.00
    0    5   26      0.19      0.00
    1    5   26     -0.15      0.00
    2    5   26     -0.04      0.00
    3    5   26     -0.17      0.00
    4    5   26      0.12      0.00
    5    5   26     -0.28      0.00
    6    5   26      0.27      0.00
   -6    6   26      0.07      0.00
   -5    6   26      0.27      0.00
   -4    6   26     -0.22      0.00
   -3    6   26      0.57      0.00
   -2    6   26     -0.25      0.00
   -1    6   26      0.57      0.00
    0    6   26     -0.23      0.00
    1    6   26      0.52      0.00
    2    6   26     -0.36      0.00
    3    6   26      0.33      0.00
    4    6   26     -0.34      0.00
   -5    7   26      0.03      0.00
   -4    7   26      0.11      0.00
   -3    7   26      0.12      0.00
   -2    7   26      0.05      0.00
   -1    7   26     -0.09      0.00
    0    7   26     -0.11      0.00
    1    7   26     -0.15      0.00
    2    7   26     -0.25      0.00
    3    7   26      0.09      0.00
   -9    1   27     -0.13      0.00
   -8    1   27     -0.25      0.00
   -7    1   27     -0.05      0.00
   -6    1   27      0.25      0.00
   -5    1   27      0.03      0.00
   -4    1   27      0.47      0.00
   -3    1   27      0.31      0.00
   -2    1   27      0.48      0.00
   -1    1   27      0.37      0.00
    0    1   27      0.59      0.00
    1    1   27      0.11      0.00
    2    1   27      0.29      0.00
    3    1   27      0.31      0.00
    4    1   27     -0.37      0.00
    5    1   27      0.45      0.00
    6    1   27     -0.58      0.00
    7    1   27     -0.01      0.00
   -8    2   27      0.16      0.00
   -7    2   27      0.32      0.00
   -6    2   27      0.14      0.00
   -5    2   27      0.08      0.00
   -4    2   27      0.48      0.00
   -3    2   27     -0.33      0.00
   -2    2   27      0.40      0.00
   -1    2   27     -0.20      0.00
    0    2   27      0.15      0.00
    1    2   27     -0.11      0.00
    2    2   27      0.32      0.00
    3    2   27     -0.08      0.00
    4    2   27      0.13      0.00
    5    2   27      0.34      0.00
    6    2   27     -0.42      0.00
    7    2   27      0.43      0.00
   -8    3   27      0.02      0.00
   -7    3   27      0.07      0.00
   -6    3   27     -0.27      0.00
   -5    3   27      0.61      0.00
   -4    3   27     -0.45      0.00
   -3    3   27      0.30      0.00
   -2    3   27      0.06      0.00
   -1    3   27     -0.24      0.00
    0    3   27      0.39      0.00
    1    3   27     -0.31      0.00
    2    3   27      0.41      0.00
    3    3   27     -0.23      0.00
    4    3   27      0.41      0.00
    5    3   27     -0.21      0.00
    6    3   27     -0.04      0.00
   -7    4   27     -0.02      0.00
   -6    4   27      0.52      0.00
   -5    4   27     -0.04      0.00
   -4    4   27      0.09      0.00
   -3    4   27      0.33      0.00
   -2    4   27     -0.22      0.00
   -1    4   27      0.25      0.00
    0    4   27      0.13      0.00
    1    4   27     -0.07      0.00
    2    4   27      0.39      0.00
    3    4   27     -0.15      0.00
    4    4   27      0.30      0.00
    5    4   27     -0.21      0.00
    6    4   27      0.13      0.00
   -7    5   27      0.30      0.00
   -6    5   27     -0.15      0.00
   -5    5   27     -0.21      0.00
   -4    5   27      0.12      0.00
   -3    5   27     -0.51      0.00
   -2    5   27     -0.09      0.00
   -1    5   27     -0.44      0.00
    0    5   27     -0.07      0.00
    1    5   27     -0.50      0.00
    2    5   27      0.30      0.00
    3    5   27     -0.38      0.00
    4    5   27      0.32      0.00
    5    5   27     -0.13      0.00
   -5    6   27      0.11      0.00
   -4    6   27      0.03      0.00
   -3    6   27     -0.11      0.00
   -2    6   27      0.22      0.00
   -1    6   27      0.09      0.00
    0    6   27      0.10      0.00
    1    6   27      0.24      0.00
    2    6   27      0.00      0.00
    3    6   27     -0.01      0.00
    4    6   27     -0.07      0.00
   -4    7   27     -0.39      0.00
   -3    7   27      0.08      0.00
   -2    7   27     -0.46      0.00
   -1    7   27      0.02      0.00
    0    7   27     -0.48      0.00
    1    7   27      0.05      0.00
    2    7   27     -0.39      0.00
   -8    0   28      1.23      0.00
   -7    0   28     -1.19      0.00
   -6    0   28      0.13      0.00
   -5    0   28      0.65      0.00
   -4    0   28     -2.56      0.00
   -3    0   28      2.30      0.00
   -2    0   28     -3.15      0.00
   -1    0   28      1.60      0.00
    0    0   28     -1.84      0.00
    1    0   28      0.94      0.00
    2    0   28     -0.99      0.00
    3    0   28      0.64      0.00
    4    0   28      0.07      0.00
    5    0   28     -0.40      0.00
    6    0   28      1.19      0.00
    7    0   28     -0.78      0.00
   -8    1   28     -0.02      0.00
   -7    1   28     -0.98      0.00
   -6    1   28      1.64      0.00
   -5    1   28     -2.00      0.00
   -4    1   28      1.47      0.00
   -3    1   28     -0.64      0.00
   -2    1   28     -0.25      0.00
   -1    1   28      0.64      0.00
    0    1   28     -0.77      0.00
    1    1   28      0.53      0.00
    2    1   28     -0.76      0.00
    3    1   28      0.79      0.00
    4    1   28     -1.16      0.00
    5    1   28      1.00      0.00
    6    1   28     -0.66      0.00
   -8    2   28     -0.61      0.00
   -7    2   28      0.60      0.00
   -6    2   28     -0.29      0.00
   -5    2   28     -0.83      0.00
   -4    2   28      1.14      0.00
   -3    2   28     -1.90      0.00
   -2    2   28      1.24      0.00
   -1    2   28     -1.34      0.00
    0    2   28      0.55      0.00
    1    2   28     -0.77      0.00
    2    2   28      0.64      0.00
    3    2   28     -0.74      0.00
    4    2   28      0.59      0.00
    5    2   28     -0.05      0.00
    6    2   28      0.05      0.00
   -8    3   28     -0.28      0.00
   -7    3   28      0.43      0.00
   -6    3   28     -0.97      0.00
   -5    3   28      0.75      0.00
   -4    3   28     -0.62      0.00
   -3    3   28     -0.08      0.00
   -2    3   28      0.32      0.00
   -1    3   28     -0.77      0.00
    0    3   28      0.35      0.00
    1    3   28     -0.57      0.00
    2    3   28      0.03      0.00
    3    3   28     -0.45      0.00
    4    3   28      0.29      0.00
    5    3   28     -0.49      0.00
    6    3   28      0.43      0.00
   -7    4   28     -0.08      0.00
   -6    4   28     -0.11      0.00
   -5    4   28      0.39      0.00
   -4    4   28     -0.48      0.00
   -3    4   28      0.76      0.00
   -2    4   28     -0.29      0.00
   -1    4   28      0.32      0.00
    0    4   28      0.14      0.00
    1    4   28     -0.04      0.00
    2    4   28      0.04      0.00
    3    4   28     -0.01      0.00
    4    4   28     -0.02      0.00
    5    4   28      0.00      0.00
   -6    5   28     -0.05      0.00
   -5    5   28     -0.11      0.00
   -4    5   28     -0.15      0.00
   -3    5   28      0.04      0.00
   -2    5   28     -0.48      0.00
   -1    5   28      0.03      0.00
    0    5   28     -0.42      0.00
    1    5   28     -0.13      0.00
    2    5   28     -0.19      0.00
    3    5   28      0.08      0.00
    4    5   28     -0.20      0.00
   -5    6   28     -0.13      0.00
   -4    6   28      0.48      0.00
   -3    6   28     -0.13      0.00
   -2    6   28      0.65      0.00
   -1    6   28     -0.03      0.00
    0    6   28      0.63      0.00
    1    6   28     -0.10      0.00
    2    6   28      0.50      0.00
    3    6   28     -0.19      0.00
   -2    7   28     -0.14      0.00
   -1    7   28     -0.21      0.00
    0    7   28     -0.10      0.00
   -8    1   29      0.10      0.00
   -7    1   29      0.18      0.00
   -6    1   29      0.01      0.00
   -5    1   29      0.39      0.00
   -4    1   29      0.08      0.00
   -3    1   29      0.26      0.00
   -2    1   29      0.19      0.00
   -1    1   29      0.15      0.00
    0    1   29     -0.10      0.00
    1    1   29     -0.05      0.00
    2    1   29     -0.10      0.00
    3    1   29     -0.47      0.00
    4    1   29      0.22      0.00
    5    1   29     -0.62      0.00
    6    1   29      0.16      0.00
   -7    2   29     -0.09      0.00
   -6    2   29     -0.08      0.00
   -5    2   29      0.19      0.00
   -4    2   29     -0.45      0.00
   -3    2   29      0.46      0.00
   -2    2   29     -0.30      0.00
   -1    2   29      0.37      0.00
    0    2   29      0.01      0.00
    1    2   29      0.40      0.00
    2    2   29      0.03      0.00
    3    2   29      0.24      0.00
    4    2   29      0.23      0.00
    5    2   29     -0.31      0.00
    6    2   29      0.40      0.00
   -7    3   29     -0.09      0.00
   -6    3   29      0.39      0.00
   -5    3   29     -0.43      0.00
   -4    3   29      0.33      0.00
   -3    3   29     -0.17      0.00
   -2    3   29     -0.09      0.00
   -1    3   29      0.20      0.00
    0    3   29     -0.27      0.00
    1    3   29      0.22      0.00
    2    3   29     -0.27      0.00
    3    3   29      0.20      0.00
    4    3   29     -0.28      0.00
    5    3   29     -0.06      0.00
   -6    4   29     -0.26      0.00
   -5    4   29      0.10      0.00
   -4    4   29      0.12      0.00
   -3    4   29     -0.06      0.00
   -2    4   29      0.35      0.00
   -1    4   29      0.19      0.00
    0    4   29      0.23      0.00
    1    4   29      0.36      0.00
    2    4   29      0.15      0.00
    3    4   29      0.20      0.00
    4    4   29      0.03      0.00
    5    4   29      0.07      0.00
   -5    5   29      0.11      0.00
   -4    5   29     -0.36      0.00
   -3    5   29      0.03      0.00
   -2    5   29     -0.38      0.00
   -1    5   29      0.09      0.00
    0    5   29     -0.51      0.00
    1    5   29      0.44      0.00
    2    5   29     -0.55      0.00
    3    5   29      0.44      0.00
    4    5   29     -0.30      0.00
   -4    6   29      0.03      0.00
   -3    6   29      0.34      0.00
   -2    6   29      0.12      0.00
   -1    6   29      0.27      0.00
    0    6   29      0.19      0.00
    1    6   29      0.14      0.00
    2    6   29     -0.06      0.00
   -7    0   30      0.63      0.00
   -6    0   30     -0.10      0.00
   -5    0   30     -1.12      0.00
   -4    0   30      1.89      0.00
   -3    0   30     -2.08      0.00
   -2    0   30      2.06      0.00
   -1    0   30     -1.12      0.00
    0    0   30      1.49      0.00
    1    0   30     -0.41      0.00
    2    0   30      1.09      0.00
    3    0   30      0.02      0.00
   -7    1   30      0.96      0.00
   -6    1   30     -1.27      0.00
   -5    1   30      1.44      0.00
   -4    1   30     -0.71      0.00
   -3    1   30      0.08      0.00
   -2    1   30      0.50      0.00
   -1    1   30     -0.75      0.00
    0    1   30      0.50      0.00
    1    1   30     -0.65      0.00
    2    1   30      0.52      0.00
    3    1   30     -0.92      0.00
    4    1   30      0.91      0.00
    5    1   30     -0.79      0.00
   -7    2   30     -0.48      0.00
   -6    2   30     -0.20      0.00
   -5    2   30      0.86      0.00
   -4    2   30     -1.21      0.00
   -3    2   30      1.39      0.00
   -2    2   30     -0.84      0.00
   -1    2   30      0.80      0.00
    0    2   30     -0.15      0.00
    1    2   30      0.72      0.00
    2    2   30     -0.35      0.00
    3    2   30      0.79      0.00
    4    2   30     -0.25      0.00
    5    2   30      0.21      0.00
   -6    3   30      0.86      0.00
   -5    3   30     -0.37      0.00
   -4    3   30      0.23      0.00
   -3    3   30      0.33      0.00
   -2    3   30     -0.63      0.00
   -1    3   30      0.37      0.00
    0    3   30     -0.53      0.00
    1    3   30     -0.12      0.00
    2    3   30     -0.30      0.00
    3    3   30      0.02      0.00
    4    3   30     -0.47      0.00
    5    3   30      0.36      0.00
   -6    4   30      0.13      0.00
   -5    4   30     -0.23      0.00
   -4    4   30      0.48      0.00
   -3    4   30     -0.20      0.00
   -2    4   30      0.14      0.00
   -1    4   30      0.16      0.00
    0    4   30     -0.19      0.00
    1    4   30      0.12      0.00
    2    4   30     -0.03      0.00
    3    4   30     -0.07      0.00
    4    4   30      0.04      0.00
   -4    5   30      0.13      0.00
   -3    5   30     -0.36      0.00
   -2    5   30      0.11      0.00
   -1    5   30     -0.39      0.00
    0    5   30     -0.11      0.00
    1    5   30     -0.21      0.00
    2    5   30     -0.09      0.00
    3    5   30     -0.30      0.00
   -2    6   30     -0.23      0.00
   -1    6   30      0.27      0.00
    0    6   30     -0.25      0.00
   -7    1   31      0.01      0.00
   -6    1   31      0.13      0.00
   -5    1   31     -0.33      0.00
   -4    1   31     -0.16      0.00
   -3    1   31     -0.36      0.00
   -2    1   31     -0.52      0.00
   -1    1   31     -0.54      0.00
    0    1   31     -0.62      0.00
    1    1   31     -0.45      0.00
    2    1   31     -0.56      0.00
    3    1   31      0.08      0.00
    4    1   31     -0.45      0.00
   -6    2   31     -0.10      0.00
   -5    2   31     -0.53      0.00
   -4    2   31      0.27      0.00
   -3    2   31     -0.55      0.00
   -2    2   31      0.32      0.00
   -1    2   31     -0.21      0.00
    0    2   31      0.29      0.00
    1    2   31     -0.03      0.00
    2    2   31      0.24      0.00
    3    2   31      0.15      0.00
    4    2   31     -0.12      0.00
   -6    3   31     -0.37      0.00
   -5    3   31      0.19      0.00
   -4    3   31     -0.35      0.00
   -3    3   31     -0.10      0.00
   -2    3   31     -0.07      0.00
   -1    3   31     -0.31      0.00
    0    3   31      0.00      0.00
    1    3   31     -0.29      0.00
    2    3   31      0.09      0.00
    3    3   31     -0.23      0.00
    4    3   31      0.07      0.00
   -5    4   31     -0.18      0.00
   -4    4   31     -0.22      0.00
   -3    4   31      0.05      0.00
   -2    4   31     -0.08      0.00
   -1    4   31      0.09      0.00
    0    4   31      0.07      0.00
    1    4   31      0.24      0.00
    2    4   31      0.02      0.00
    3    4   31      0.34      0.00
   -3    5   31     -0.08      0.00
   -2    5   31      0.32      0.00
   -1    5   31     -0.20      0.00
    0    5   31      0.64      0.00
    1    5   31     -0.39      0.00
   -6    0   32     -0.08      0.00
   -5    0   32      1.23      0.00
   -4    0   32     -1.02      0.00
   -3    0   32      1.98      0.00
   -2    0   32     -0.54      0.00
   -1    0   32      1.62      0.00
    0    0   32     -0.11      0.00
    1    0   32      1.11      0.00
    2    0   32     -0.20      0.00
    3    0   32      0.09      0.00
   -6    1   32      1.10      0.00
   -5    1   32     -0.65      0.00
   -4    1   32      0.35      0.00
   -3    1   32      0.36      0.00
   -2    1   32     -0.50      0.00
   -1    1   32      0.55      0.00
    0    1   32     -0.45      0.00
    1    1   32      0.39      0.00
    2    1   32     -0.63      0.00
    3    1   32      0.71      0.00
    4    1   32     -0.79      0.00
   -5    2   32     -0.62      0.00
   -4    2   32      1.27      0.00
   -3    2   32     -0.52      0.00
   -2    2   32      0.90      0.00
   -1    2   32      0.17      0.00
    0    2   32      0.60      0.00
    1    2   32     -0.09      0.00
    2    2   32      0.64      0.00
    3    2   32     -0.44      0.00
   -5    3   32      0.48      0.00
   -4    3   32      0.32      0.00
   -3    3   32     -0.21      0.00
   -2    3   32      0.57      0.00
   -1    3   32     -0.20      0.00
    0    3   32      0.06      0.00
    1    3   32      0.01      0.00
    2    3   32     -0.09      0.00
    3    3   32     -0.32      0.00
   -4    4   32     -0.16      0.00
   -3    4   32     -0.07      0.00
   -2    4   32      0.12      0.00
   -1    4   32     -0.35      0.00
    0    4   32      0.12      0.00
    1    4   32     -0.14      0.00
    2    4   32     -0.17      0.00
   -5    1   33     -0.10      0.00
   -4    1   33     -0.38      0.00
   -3    1   33     -0.45      0.00
   -2    1   33     -0.38      0.00
   -1    1   33     -0.56      0.00
    0    1   33     -0.20      0.00
    1    1   33     -0.30      0.00
    2    1   33      0.24      0.00
    3    1   33     -0.13      0.00
   -4    2   33     -0.56      0.00
   -3    2   33      0.25      0.00
   -2    2   33     -0.46      0.00
   -1    2   33      0.12      0.00
    0    2   33     -0.22      0.00
    1    2   33      0.09      0.00
    2    2   33      0.02      0.00
   -4    3   33      0.03      0.00
   -3    3   33     -0.04      0.00
   -2    3   33     -0.16      0.00
   -1    3   33      0.00      0.00
    0    3   33     -0.16      0.00
    1    3   33      0.12      0.00
    2    3   33     -0.10      0.00
   -1    4   33     -0.24      0.00
   -4    0   34      1.11      0.00
   -3    0   34     -0.56      0.00
   -2    0   34      0.92      0.00
   -1    0   34     -0.38      0.00
    0    0   34      0.53      0.00
    1    0   34     -0.62      0.00
    2    0   34     -0.03      0.00
   -4    1   34      0.14      0.00
   -3    1   34     -0.29      0.00
   -2    1   34      0.51      0.00
   -1    1   34     -0.28      0.00
    0    1   34      0.33      0.00
    1    1   34     -0.35      0.00
    2    1   34      0.53      0.00
   -3    2   34      0.56      0.00
   -2    2   34     -0.06      0.00
   -1    2   34      0.18      0.00
    0    2   34     -0.16      0.00
    1    2   34      0.23      0.00
   -1    1   35      0.29      0.00
    2    1    0      8.09      0.00
   13    2    0      0.51      0.00
   13    3    0     -0.32      0.00
    0    4    0      5.92      0.00
   13    4    0     -0.10      0.00
   12    5    0     -0.01      0.00
    4    6    0     -0.14      0.00
   12    6    0     -0.05      0.00
   11    7    0      0.21      0.00
   10    8    0      0.10      0.00
    9    9    0      0.43      0.00
    8   10    0      0.10      0.00
    5   11    0     -0.26      0.00
    6   11    0      0.13      0.00
   -1    1    1     -3.37      0.00
   13    1    1     -0.34      0.00
  -13    2    1     -0.15      0.00
   13    2    1     -0.23      0.00
  -13    3    1     -0.31      0.00
   13    3    1      0.22      0.00
  -13    4    1      0.22      0.00
    0    4    1     -2.66      0.00
   13    4    1      0.42      0.00
  -12    5    1     -0.45      0.00
   12    5    1      0.43      0.00
  -12    6    1     -0.01      0.00
    4    6    1     -0.60      0.00
   12    6    1      0.01      0.00
  -11    7    1      0.14      0.00
   11    7    1     -0.11      0.00
  -10    8    1      0.24      0.00
   10    8    1     -0.01      0.00
   -9    9    1      0.21      0.00
    9    9    1     -0.16      0.00
   -8   10    1      0.06      0.00
    8   10    1     -0.21      0.00
   -6   11    1      0.24      0.00
   -5   11    1     -0.31      0.00
    5   11    1      0.19      0.00
    6   11    1     -0.24      0.00
    0    0    2    -13.61      0.00
   13    0    2      0.78      0.00
   -2    1    2      5.66      0.00
   -1    1    2     -1.15      0.00
   13    1    2     -0.09      0.00
  -13    2    2     -0.25      0.00
   -1    2    2     -7.24      0.00
   13    2    2     -0.42      0.00
  -13    3    2     -0.34      0.00
   13    3    2      0.01      0.00
  -13    4    2      0.11      0.00
    0    4    2     -4.25      0.00
   13    4    2      0.22      0.00
  -12    5    2      0.12      0.00
   12    5    2      0.04      0.00
  -12    6    2      0.10      0.00
   12    6    2      0.23      0.00
  -11    7    2      0.19      0.00
   11    7    2      0.05      0.00
  -10    8    2     -0.30      0.00
   10    8    2      0.10      0.00
   -9    9    2      0.29      0.00
    9    9    2     -0.04      0.00
   -8   10    2     -0.42      0.00
    7   10    2      0.20      0.00
    8   10    2      0.00      0.00
   -6   11    2      0.05      0.00
   -5   11    2     -0.06      0.00
    5   11    2      0.08      0.00
    6   11    2     -0.26      0.00
   13    1    3     -0.07      0.00
  -13    2    3      0.07      0.00
   13    2    3      0.49      0.00
  -13    3    3      0.11      0.00
   13    3    3     -0.23      0.00
  -13    4    3     -0.17      0.00
  -12    5    3      0.16      0.00
   12    5    3     -0.46      0.00
  -12    6    3     -0.10      0.00
   12    6    3     -0.26      0.00
  -11    7    3     -0.22      0.00
   11    7    3     -0.32      0.00
  -10    8    3     -0.23      0.00
   10    8    3     -0.17      0.00
   -9    9    3      0.17      0.00
    9    9    3     -0.06      0.00
   -8   10    3     -0.05      0.00
    7   10    3     -0.22      0.00
    8   10    3      0.05      0.00
   -6   11    3     -0.04      0.00
   -5   11    3      0.37      0.00
    5   11    3     -0.13      0.00
    6   11    3      0.17      0.00
    3    0    4      1.24      0.00
   13    0    4     -0.57      0.00
    0    1    4      7.21      0.00
   13    1    4     -0.31      0.00
  -13    2    4      0.32      0.00
   -1    2    4      6.62      0.00
   13    2    4      0.60      0.00
  -13    3    4      0.43      0.00
   13    3    4      0.08      0.00
  -13    4    4      0.20      0.00
  -12    5    4      0.10      0.00
   12    5    4      0.08      0.00
  -12    6    4      0.10      0.00
    4    6    4      0.44      0.00
  -11    7    4      0.10      0.00
   11    7    4     -0.01      0.00
  -10    8    4      0.07      0.00
   10    8    4      0.39      0.00
   -9    9    4     -0.12      0.00
    9    9    4      0.08      0.00
   -8   10    4      0.22      0.00
    7   10    4     -0.09      0.00
    8   10    4      0.10      0.00
   -6   11    4     -0.09      0.00
   -5   11    4     -0.24      0.00
    5   11    4     -0.26      0.00
    6   11    4      0.19      0.00
   13    1    5      0.10      0.00
  -13    2    5      0.07      0.00
   13    2    5     -0.45      0.00
  -13    3    5     -0.35      0.00
   13    3    5     -0.12      0.00
  -13    4    5     -0.06      0.00
   12    4    5     -0.61      0.00
  -12    5    5     -0.44      0.00
   12    5    5      0.01      0.00
  -12    6    5     -0.23      0.00
   11    6    5     -0.13      0.00
  -11    7    5      0.15      0.00
   11    7    5     -0.08      0.00
  -10    8    5     -0.12      0.00
   10    8    5      0.10      0.00
   -9    9    5     -0.14      0.00
    9    9    5     -0.43      0.00
   -8   10    5      0.01      0.00
   -7   10    5      0.13      0.00
    7   10    5      0.25      0.00
    8   10    5     -0.11      0.00
   -6   11    5      0.19      0.00
   -5   11    5     -0.01      0.00
    5   11    5      0.32      0.00
    6   11    5      0.11      0.00
   -1    0    6      8.95      0.00
    3    0    6     -3.10      0.00
    7    0    6     -2.23      0.00
   13    0    6      0.40      0.00
  -13    1    6      0.67      0.00
    3    1    6      4.65      0.00
   13    1    6      0.63      0.00
  -13    2    6      0.18      0.00
   13    2    6     -0.43      0.00
  -13    3    6     -0.42      0.00
   13    3    6     -0.20      0.00
  -13    4    6     -0.04      0.00
   12    4    6     -0.06      0.00
  -12    5    6      0.08      0.00
   12    5    6     -0.05      0.00
  -12    6    6      0.19      0.00
   11    6    6      0.01      0.00
  -11    7    6      0.11      0.00
   11    7    6      0.13      0.00
  -10    8    6      0.24      0.00
   10    8    6     -0.06      0.00
   -9    9    6      0.15      0.00
    9    9    6     -0.10      0.00
   -8   10    6     -0.13      0.00
   -7   10    6      0.23      0.00
    7   10    6     -0.09      0.00
   -6   11    6     -0.19      0.00
   -5   11    6      0.09      0.00
    5   11    6      0.22      0.00
    6   11    6     -0.08      0.00
  -13    1    7     -0.44      0.00
   -2    1    7      1.04      0.00
    7    1    7     -0.66      0.00
   13    1    7     -0.08      0.00
  -13    2    7     -0.17      0.00
   13    2    7      0.28      0.00
  -13    3    7      0.04      0.00
    1    3    7      2.05      0.00
  -13    4    7      0.16      0.00
   12    4    7      0.49      0.00
  -12    5    7     -0.03      0.00
   12    5    7     -0.09      0.00
  -12    6    7      0.23      0.00
   11    6    7      0.12      0.00
  -11    7    7     -0.54      0.00
  -10    8    7      0.14      0.00
   10    8    7      0.00      0.00
   -9    9    7     -0.12      0.00
    8    9    7     -0.18      0.00
    9    9    7      0.49      0.00
   -8   10    7      0.10      0.00
   -7   10    7      0.11      0.00
    7   10    7     -0.32      0.00
   -6   11    7     -0.03      0.00
   -5   11    7      0.08      0.00
    5   11    7      0.18      0.00
    6   11    7      0.22      0.00
  -13    0    8      0.49      0.00
   -3    0    8     -6.86      0.00
   13    0    8     -0.41      0.00
  -13    1    8     -0.56      0.00
   -2    1    8      3.40      0.00
   13    1    8     -0.76      0.00
  -13    2    8     -0.32      0.00
   13    2    8      0.09      0.00
  -13    3    8      0.35      0.00
  -13    4    8      0.33      0.00
   12    4    8      0.35      0.00
  -12    5    8     -0.33      0.00
   12    5    8      0.16      0.00
  -12    6    8      0.13      0.00
    3    6    8     -0.54      0.00
   11    6    8      0.26      0.00
  -11    7    8     -0.31      0.00
   10    7    8      0.31      0.00
  -10    8    8      0.11      0.00
    9    8    8     -0.35      0.00
   10    8    8     -0.18      0.00
   -9    9    8     -0.26      0.00
    8    9    8     -0.05      0.00
   -8   10    8      0.30      0.00
   -7   10    8      0.06      0.00
    7   10    8     -0.13      0.00
   -6   11    8      0.25      0.00
   -5   11    8      0.07      0.00
    4   11    8      0.22      0.00
    5   11    8      0.02      0.00
  -13    1    9      0.53      0.00
   -2    1    9     -2.86      0.00
   13    1    9      0.31      0.00
  -13    2    9      0.14      0.00
  -13    3    9      0.02      0.00
   12    3    9      0.02      0.00
   12    4    9     -0.41      0.00
  -12    5    9      0.02      0.00
   11    6    9     -0.16      0.00
  -11    7    9      0.17      0.00
   10    7    9      0.10      0.00
  -10    8    9      0.22      0.00
    9    8    9     -0.09      0.00
   -9    9    9     -0.36      0.00
    8    9    9      0.67      0.00
   -8   10    9      0.09      0.00
   -7   10    9     -0.24      0.00
    6   10    9     -0.47      0.00
    7   10    9      0.29      0.00
   -6   11    9     -0.13      0.00
   -5   11    9     -0.13      0.00
   -4   11    9      0.23      0.00
    4   11    9      0.09      0.00
    5   11    9      0.04      0.00
  -13    0   10     -0.90      0.00
  -12    0   10      1.11      0.00
    2    0   10      4.06      0.00
   13    0   10      0.13      0.00
  -13    1   10      0.46      0.00
  -13    2   10      0.38      0.00
  -13    3   10     -0.13      0.00
   12    3   10      0.37      0.00
   12    4   10      0.05      0.00
  -12    5   10      0.24      0.00
   11    5   10     -0.05      0.00
  -11    6   10      0.16      0.00
   11    6   10     -0.21      0.00
  -11    7   10     -0.05      0.00
   10    7   10     -0.20      0.00
  -10    8   10      0.31      0.00
    9    8   10     -0.12      0.00
   -9    9   10     -0.14      0.00
   -8    9   10      0.08      0.00
    8    9   10      0.15      0.00
   -7   10   10     -0.12      0.00
    6   10   10     -0.03      0.00
    7   10   10     -0.18      0.00
   -5   11   10      0.29      0.00
   -4   11   10      0.02      0.00
    3   11   10      0.10      0.00
    4   11   10      0.00      0.00
    5   11   10     -0.02      0.00
  -13    1   11     -0.36      0.00
   12    1   11      0.09      0.00
  -13    2   11     -0.26      0.00
   12    2   11     -0.28      0.00
  -13    3   11     -0.04      0.00
   12    3   11     -0.56      0.00
  -12    4   11     -0.33      0.00
   12    4   11      0.15      0.00
  -12    5   11     -0.28      0.00
   11    5   11     -0.15      0.00
  -11    6   11      0.15      0.00
   11    6   11      0.06      0.00
  -11    7   11     -0.37      0.00
   10    7   11     -0.06      0.00
  -10    8   11      0.09      0.00
    9    8   11     -0.16      0.00
   -9    9   11      0.36      0.00
   -8    9   11     -0.34      0.00
    8    9   11     -0.30      0.00
   -7   10   11      0.24      0.00
    6   10   11      0.51      0.00
    7   10   11     -0.30      0.00
   -5   11   11      0.19      0.00
   -4   11   11     -0.24      0.00
    3   11   11      0.15      0.00
    4   11   11     -0.10      0.00
    5   11   11     -0.09      0.00
  -13    0   12      0.94      0.00
  -12    0   12     -1.05      0.00
  -11    0   12      0.52      0.00
   12    0   12      0.73      0.00
  -13    1   12     -0.18      0.00
  -12    1   12     -0.60      0.00
   12    1   12      1.09      0.00
  -13    2   12     -0.53      0.00
   12    2   12      0.08      0.00
  -13    3   12     -0.01      0.00
   12    3   12     -0.50      0.00
  -12    4   12     -0.27      0.00
  -12    5   12     -0.22      0.00
    2    5   12      0.48      0.00
   11    5   12     -0.14      0.00
  -11    6   12      0.12      0.00
   10    6   12     -0.28      0.00
  -10    7   12      0.31      0.00
   10    7   12      0.14      0.00
  -10    8   12     -0.31      0.00
   -9    8   12      0.10      0.00
    9    8   12      0.01      0.00
   -8    9   12     -0.08      0.00
    7    9   12      0.07      0.00
    8    9   12     -0.01      0.00
   -7   10   12      0.01      0.00
   -6   10   12     -0.34      0.00
    6   10   12     -0.07      0.00
   -5   11   12     -0.14      0.00
   -4   11   12     -0.06      0.00
   -3   11   12     -0.27      0.00
    2   11   12     -0.10      0.00
    3   11   12     -0.13      0.00
    4   11   12     -0.22      0.00
  -13    1   13      0.34      0.00
  -12    1   13     -0.38      0.00
   12    1   13     -0.75      0.00
  -13    2   13      0.22      0.00
   12    2   13      0.08      0.00
   12    3   13      0.28      0.00
  -12    4   13     -0.01      0.00
   11    4   13      0.16      0.00
  -12    5   13      0.15      0.00
   11    5   13      0.02      0.00
  -11    6   13     -0.52      0.00
   10    6   13      0.01      0.00
  -10    7   13     -0.05      0.00
    9    7   13     -0.08      0.00
   10    7   13     -0.17      0.00
   -9    8   13     -0.05      0.00
    8    8   13     -0.06      0.00
    9    8   13      0.19      0.00
   -8    9   13      0.63      0.00
    7    9   13     -0.48      0.00
   -7   10   13     -0.27      0.00
   -6   10   13      0.90      0.00
    5   10   13      0.70      0.00
    6   10   13     -0.26      0.00
   -5   11   13     -0.01      0.00
   -4   11   13      0.53      0.00
   -3   11   13     -0.35      0.00
   -2   11   13      0.65      0.00
    1   11   13     -0.21      0.00
    2   11   13      0.43      0.00
    3   11   13     -0.06      0.00
    4   11   13      0.01      0.00
  -13    0   14     -0.92      0.00
  -12    0   14      0.83      0.00
   12    0   14      0.29      0.00
  -13    1   14     -0.10      0.00
   12    1   14     -1.15      0.00
  -13    2   14      0.58      0.00
   12    2   14     -0.09      0.00
  -12    3   14     -0.61      0.00
  -12    4   14      0.22      0.00
   11    4   14      0.22      0.00
  -12    5   14      0.61      0.00
   11    5   14      0.16      0.00
  -11    6   14     -0.12      0.00
   10    6   14      0.53      0.00
  -10    7   14     -0.05      0.00
    9    7   14      0.17      0.00
   -9    8   14     -0.24      0.00
    8    8   14      0.08      0.00
   -8    9   14     -0.04      0.00
    7    9   14     -0.07      0.00
   -7   10   14     -0.25      0.00
   -6   10   14      0.02      0.00
    5   10   14     -0.12      0.00
    6   10   14      0.03      0.00
   -4   11   14     -0.30      0.00
   -3   11   14     -0.04      0.00
   -2   11   14     -0.24      0.00
   -1   11   14      0.02      0.00
    0   11   14     -0.17      0.00
    1   11   14     -0.24      0.00
    2   11   14     -0.22      0.00
    3   11   14     -0.32      0.00
  -13    1   15     -0.36      0.00
   12    1   15      0.46      0.00
  -12    3   15      0.39      0.00
   11    3   15      0.26      0.00
  -12    4   15     -0.12      0.00
   11    4   15      0.09      0.00
  -11    5   15      0.13      0.00
   10    5   15     -0.16      0.00
  -11    6   15      0.21      0.00
   10    6   15      0.10      0.00
  -10    7   15      0.02      0.00
    9    7   15     -0.25      0.00
   -9    8   15     -0.09      0.00
    8    8   15      0.18      0.00
   -8    9   15     -0.47      0.00
   -7    9   15      0.35      0.00
    6    9   15     -0.41      0.00
    7    9   15      0.28      0.00
   -6   10   15     -0.36      0.00
   -5   10   15      0.94      0.00
    4   10   15      0.62      0.00
    5   10   15     -0.31      0.00
   -4   11   15     -0.28      0.00
   -3   11   15      0.60      0.00
   -2   11   15     -0.33      0.00
   -1   11   15      0.69      0.00
    0   11   15     -0.20      0.00
    1   11   15      0.55      0.00
    2   11   15     -0.07      0.00
    3   11   15      0.14      0.00
  -12    0   16     -0.41      0.00
  -12    2   16      0.04      0.00
   11    2   16      0.16      0.00
  -12    3   16      0.79      0.00
   11    3   16      0.56      0.00
  -12    4   16      0.08      0.00
   11    4   16     -0.02      0.00
  -11    5   16      0.52      0.00
   10    5   16      0.19      0.00
  -11    6   16      0.20      0.00
   10    6   16     -0.25      0.00
  -10    7   16      0.23      0.00
    9    7   16      0.01      0.00
   -9    8   16      0.23      0.00
    8    8   16      0.23      0.00
   -8    9   16     -0.11      0.00
   -7    9   16     -0.31      0.00
    6    9   16      0.00      0.00
    7    9   16      0.09      0.00
   -6   10   16      0.06      0.00
   -5   10   16     -0.09      0.00
    4   10   16     -0.12      0.00
    5   10   16     -0.03      0.00
   -3   11   16     -0.12      0.00
   -2   11   16      0.06      0.00
   -1   11   16     -0.19      0.00
    0   11   16     -0.19      0.00
    1   11   16     -0.18      0.00
    2   11   16     -0.22      0.00
  -12    1   17     -0.27      0.00
   11    1   17      0.49      0.00
  -12    2   17     -0.17      0.00
   11    2   17      0.08      0.00
  -12    3   17     -0.38      0.00
   11    3   17     -0.31      0.00
  -12    4   17     -0.14      0.00
  -11    5   17      0.06      0.00
   10    5   17     -0.03      0.00
  -10    6   17      0.32      0.00
    9    6   17     -0.01      0.00
  -10    7   17     -0.09      0.00
   -9    7   17     -0.28      0.00
    8    7   17     -0.24      0.00
    9    7   17      0.03      0.00
   -9    8   17      0.22      0.00
   -8    8   17     -0.07      0.00
    7    8   17      0.14      0.00
    8    8   17     -0.28      0.00
   -7    9   17     -0.39      0.00
    6    9   17      0.34      0.00
   -6   10   17      0.50      0.00
   -5   10   17     -0.66      0.00
   -4   10   17      0.31      0.00
    3   10   17      0.33      0.00
    4   10   17     -0.43      0.00
    5   10   17      0.06      0.00
   -2   11   17      0.41      0.00
   -1   11   17     -0.37      0.00
    0   11   17      0.33      0.00
    1   11   17     -0.29      0.00
  -12    0   18      0.22      0.00
   -2    0   18      2.78      0.00
   11    0   18     -0.26      0.00
  -12    1   18      0.91      0.00
   11    1   18      1.02      0.00
  -12    2   18      0.37      0.00
   -4    2   18      2.21      0.00
   11    2   18      0.26      0.00
  -12    3   18     -0.56      0.00
   11    3   18     -0.41      0.00
  -11    4   18      0.66      0.00
   10    4   18     -0.01      0.00
  -11    5   18     -0.38      0.00
   10    5   18     -0.05      0.00
  -10    6   18      0.60      0.00
    9    6   18     -0.30      0.00
   -9    7   18     -0.04      0.00
    8    7   18      0.02      0.00
   -8    8   18      0.22      0.00
    7    8   18      0.08      0.00
   -7    9   18      0.20      0.00
   -6    9   18     -0.07      0.00
    5    9   18      0.06      0.00
    6    9   18      0.10      0.00
   -5   10   18      0.23      0.00
   -4   10   18     -0.20      0.00
   -3   10   18      0.24      0.00
    2   10   18      0.11      0.00
    3   10   18      0.11      0.00
    4   10   18      0.04      0.00
   -1   11   18      0.00      0.00
    0   11   18     -0.03      0.00
  -12    1   19     -0.01      0.00
   -3    1   19     -0.59      0.00
   11    1   19     -0.40      0.00
  -12    2   19     -0.01      0.00
   11    2   19     -0.25      0.00
  -12    3   19      0.05      0.00
   10    3   19     -0.29      0.00
  -11    4   19     -0.21      0.00
   10    4   19     -0.21      0.00
  -11    5   19     -0.52      0.00
    9    5   19      0.07      0.00
  -10    6   19      0.14      0.00
    9    6   19     -0.18      0.00
   -9    7   19     -0.17      0.00
    8    7   19      0.22      0.00
   -8    8   19      0.26      0.00
    6    8   19      0.24      0.00
    7    8   19     -0.24      0.00
   -7    9   19      0.07      0.00
   -6    9   19      0.17      0.00
    5    9   19      0.21      0.00
    6    9   19     -0.10      0.00
   -5   10   19      0.17      0.00
   -4   10   19     -0.42      0.00
   -3   10   19      0.09      0.00
   -2   10   19     -0.06      0.00
   -1   10   19     -0.09      0.00
    0   10   19      0.11      0.00
    1   10   19     -0.39      0.00
    2   10   19      0.07      0.00
    3   10   19     -0.40      0.00
  -12    0   20      0.31      0.00
   -3    0   20      2.34      0.00
   -2    0   20     -2.90      0.00
   11    0   20      0.64      0.00
  -12    1   20     -0.60      0.00
  -12    2   20     -0.24      0.00
   10    2   20      0.01      0.00
  -11    3   20     -0.08      0.00
   10    3   20     -0.45      0.00
  -11    4   20     -0.17      0.00
   10    4   20      0.23      0.00
  -10    5   20     -0.16      0.00
    9    5   20     -0.09      0.00
  -10    6   20     -0.12      0.00
    8    6   20     -0.40      0.00
    9    6   20      0.16      0.00
   -9    7   20     -0.13      0.00
    7    7   20     -0.17      0.00
    8    7   20     -0.09      0.00
   -8    8   20     -0.12      0.00
   -7    8   20      0.00      0.00
    6    8   20     -0.01      0.00
    7    8   20     -0.25      0.00
   -6    9   20      0.13      0.00
   -5    9   20      0.03      0.00
    4    9   20     -0.10      0.00
    5    9   20     -0.05      0.00
   -4   10   20      0.16      0.00
   -3   10   20     -0.16      0.00
   -2   10   20      0.29      0.00
   -1   10   20      0.09      0.00
    0   10   20      0.41      0.00
    1   10   20      0.15      0.00
    2   10   20      0.23      0.00
    3   10   20      0.07      0.00
  -12    1   21     -0.21      0.00
   10    1   21     -0.40      0.00
  -11    2   21      0.03      0.00
   10    2   21      0.00      0.00
  -11    3   21     -0.34      0.00
   10    3   21     -0.01      0.00
  -11    4   21      0.19      0.00
    9    4   21      0.06      0.00
  -10    5   21     -0.65      0.00
    9    5   21     -0.12      0.00
   -9    6   21      0.51      0.00
    8    6   21      0.12      0.00
   -9    7   21      0.10      0.00
   -8    7   21     -0.10      0.00
    7    7   21      0.37      0.00
   -7    8   21      0.42      0.00
    6    8   21     -0.06      0.00
   -6    9   21      0.04      0.00
   -5    9   21      0.53      0.00
    3    9   21     -0.05      0.00
    4    9   21      0.14      0.00
    5    9   21      0.07      0.00
   -3   10   21     -0.06      0.00
   -2   10   21      0.02      0.00
   -1   10   21     -0.08      0.00
    0   10   21     -0.21      0.00
    1   10   21      0.00      0.00
    2   10   21     -0.14      0.00
  -11    0   22      0.34      0.00
   10    0   22      0.27      0.00
  -11    1   22     -0.28      0.00
   10    1   22     -0.67      0.00
  -11    2   22     -0.41      0.00
   10    2   22      0.01      0.00
  -11    3   22     -0.21      0.00
    9    3   22     -0.36      0.00
  -10    4   22     -0.09      0.00
    9    4   22      0.09      0.00
  -10    5   22     -0.04      0.00
    8    5   22     -0.14      0.00
    9    5   22     -0.11      0.00
   -9    6   22     -0.43      0.00
    8    6   22      0.00      0.00
   -8    7   22      0.10      0.00
    6    7   22     -0.42      0.00
    7    7   22     -0.21      0.00
   -7    8   22     -0.46      0.00
   -6    8   22      0.06      0.00
    5    8   22     -0.14      0.00
    6    8   22     -0.32      0.00
   -5    9   22     -0.34      0.00
   -4    9   22      0.06      0.00
    2    9   22     -0.06      0.00
    3    9   22     -0.38      0.00
    4    9   22     -0.29      0.00
   -2   10   22     -0.16      0.00
   -1   10   22      0.13      0.00
    0   10   22     -0.15      0.00
    1   10   22      0.03      0.00
  -11    1   23     -0.02      0.00
   10    1   23     -0.04      0.00
  -11    2   23      0.03      0.00
    9    2   23      0.26      0.00
  -11    3   23      0.28      0.00
    9    3   23      0.13      0.00
  -10    4   23     -0.25      0.00
    9    4   23      0.21      0.00
  -10    5   23      0.37      0.00
   -9    5   23      0.06      0.00
    8    5   23      0.08      0.00
   -9    6   23     -0.44      0.00
    7    6   23      0.31      0.00
   -8    7   23      0.51      0.00
   -7    7   23     -0.22      0.00
    6    7   23      0.42      0.00
   -7    8   23     -0.10      0.00
   -6    8   23      0.58      0.00
    4    8   23      0.70      0.00
    5    8   23      0.06      0.00
   -5    9   23     -0.16      0.00
   -4    9   23      0.43      0.00
   -3    9   23     -0.19      0.00
   -2    9   23      0.39      0.00
   -1    9   23     -0.05      0.00
    0    9   23      0.40      0.00
    1    9   23      0.14      0.00
    2    9   23      0.37      0.00
    3    9   23      0.19      0.00
  -11    0   24     -0.24      0.00
    9    0   24     -0.20      0.00
  -11    1   24      0.05      0.00
    9    1   24     -0.46      0.00
  -11    2   24      0.05      0.00
    9    2   24      0.25      0.00
  -10    3   24     -0.26      0.00
    9    3   24      0.08      0.00
  -10    4   24     -0.19      0.00
    8    4   24      0.11      0.00
   -9    5   24      0.03      0.00
    8    5   24     -0.20      0.00
   -9    6   24      0.16      0.00
   -8    6   24     -0.35      0.00
    7    6   24     -0.06      0.00
   -8    7   24     -0.33      0.00
   -7    7   24      0.13      0.00
    5    7   24     -0.41      0.00
    6    7   24     -0.12      0.00
   -6    8   24     -0.27      0.00
   -5    8   24      0.20      0.00
    3    8   24     -0.38      0.00
    4    8   24     -0.19      0.00
    5    8   24     -0.32      0.00
   -4    9   24     -0.33      0.00
   -3    9   24      0.25      0.00
   -2    9   24     -0.17      0.00
   -1    9   24      0.08      0.00
    0    9   24     -0.28      0.00
    1    9   24     -0.20      0.00
    2    9   24     -0.47      0.00
    3    9   24     -0.32      0.00
  -10    1   25      0.01      0.00
    9    1   25     -0.12      0.00
  -10    2   25     -0.19      0.00
    9    2   25     -0.07      0.00
  -10    3   25      0.26      0.00
    8    3   25      0.05      0.00
  -10    4   25      0.38      0.00
   -9    4   25     -0.29      0.00
    8    4   25     -0.01      0.00
   -9    5   25     -0.12      0.00
    7    5   25      0.05      0.00
   -8    6   25     -0.14      0.00
    6    6   25      0.16      0.00
    7    6   25     -0.05      0.00
   -7    7   25      0.25      0.00
   -6    7   25     -0.25      0.00
    5    7   25      0.22      0.00
   -6    8   25     -0.24      0.00
   -5    8   25      0.25      0.00
   -4    8   25     -0.29      0.00
    2    8   25      0.06      0.00
    3    8   25      0.50      0.00
    4    8   25     -0.08      0.00
   -3    9   25      0.23      0.00
   -2    9   25     -0.08      0.00
   -1    9   25      0.37      0.00
    0    9   25      0.05      0.00
    1    9   25      0.41      0.00
  -10    0   26      0.06      0.00
    8    0   26     -0.54      0.00
    9    0   26      0.40      0.00
  -10    1   26      0.36      0.00
    8    1   26     -0.14      0.00
    9    1   26      0.30      0.00
  -10    2   26      0.07      0.00
    8    2   26      0.48      0.00
  -10    3   26     -0.02      0.00
   -9    3   26     -0.13      0.00
    8    3   26     -0.01      0.00
   -9    4   26     -0.10      0.00
    7    4   26      0.30      0.00
    8    4   26     -0.12      0.00
   -9    5   26     -0.25      0.00
   -8    5   26      0.01      0.00
    7    5   26     -0.13      0.00
   -8    6   26      0.27      0.00
   -7    6   26     -0.02      0.00
    5    6   26      0.00      0.00
    6    6   26      0.03      0.00
   -7    7   26     -0.22      0.00
   -6    7   26      0.15      0.00
    4    7   26     -0.14      0.00
    5    7   26      0.18      0.00
   -5    8   26      0.03      0.00
   -4    8   26      0.07      0.00
   -3    8   26      0.19      0.00
   -2    8   26     -0.15      0.00
   -1    8   26      0.10      0.00
    0    8   26     -0.13      0.00
    1    8   26      0.01      0.00
    2    8   26     -0.09      0.00
    3    8   26      0.07      0.00
   -1    9   26     -0.26      0.00
  -10    1   27     -0.25      0.00
    8    1   27     -0.20      0.00
  -10    2   27      0.22      0.00
   -9    2   27     -0.06      0.00
    8    2   27     -0.29      0.00
   -9    3   27     -0.19      0.00
    7    3   27     -0.08      0.00
    8    3   27     -0.35      0.00
   -9    4   27      0.34      0.00
   -8    4   27      0.15      0.00
    7    4   27     -0.21      0.00
   -8    5   27     -0.48      0.00
    6    5   27     -0.06      0.00
   -7    6   27      0.19      0.00
   -6    6   27     -0.17      0.00
    5    6   27     -0.12      0.00
    6    6   27     -0.20      0.00
   -6    7   27     -0.04      0.00
   -5    7   27      0.01      0.00
    3    7   27      0.04      0.00
    4    7   27     -0.14      0.00
   -4    8   27      0.04      0.00
   -3    8   27     -0.04      0.00
   -2    8   27      0.15      0.00
   -1    8   27      0.05      0.00
    0    8   27      0.28      0.00
    1    8   27     -0.08      0.00
    2    8   27      0.14      0.00
   -9    0   28     -0.40      0.00
    8    0   28      0.60      0.00
   -9    1   28      0.42      0.00
    7    1   28      0.20      0.00
    8    1   28      0.17      0.00
   -9    2   28      0.54      0.00
    7    2   28      0.45      0.00
   -9    3   28     -0.18      0.00
    7    3   28     -0.14      0.00
   -8    4   28      0.11      0.00
    6    4   28      0.36      0.00
    7    4   28     -0.08      0.00
   -8    5   28     -0.24      0.00
   -7    5   28      0.01      0.00
    5    5   28      0.37      0.00
    6    5   28     -0.13      0.00
   -7    6   28      0.06      0.00
   -6    6   28      0.08      0.00
    4    6   28      0.24      0.00
    5    6   28      0.06      0.00
   -5    7   28     -0.02      0.00
   -4    7   28      0.02      0.00
   -3    7   28     -0.18      0.00
    1    7   28     -0.13      0.00
    2    7   28      0.19      0.00
    3    7   28      0.00      0.00
    4    7   28      0.29      0.00
   -3    8   28     -0.13      0.00
   -2    8   28      0.37      0.00
   -1    8   28      0.03      0.00
    0    8   28      0.36      0.00
    1    8   28      0.16      0.00
   -9    1   29     -0.21      0.00
    7    1   29     -0.17      0.00
   -9    2   29      0.11      0.00
   -8    2   29      0.03      0.00
    7    2   29     -0.37      0.00
   -8    3   29     -0.04      0.00
    6    3   29     -0.07      0.00
    7    3   29     -0.30      0.00
   -8    4   29     -0.11      0.00
   -7    4   29      0.23      0.00
    6    4   29     -0.13      0.00
   -7    5   29     -0.12      0.00
   -6    5   29     -0.01      0.00
    5    5   29      0.02      0.00
   -6    6   29      0.19      0.00
   -5    6   29      0.01      0.00
    3    6   29      0.13      0.00
    4    6   29     -0.17      0.00
   -4    7   29      0.22      0.00
   -3    7   29     -0.34      0.00
   -2    7   29      0.09      0.00
   -1    7   29     -0.48      0.00
    0    7   29      0.08      0.00
    1    7   29     -0.50      0.00
    2    7   29      0.10      0.00
    3    7   29     -0.22      0.00
   -9    0   30      0.53      0.00
   -8    0   30     -1.10      0.00
    4    0   30     -0.03      0.00
    5    0   30      0.86      0.00
    6    0   30     -0.92      0.00
    7    0   30      0.65      0.00
   -9    1   30     -0.36      0.00
   -8    1   30     -0.11      0.00
    6    1   30      0.42      0.00
    7    1   30     -0.03      0.00
   -8    2   30      0.53      0.00
    6    2   30      0.19      0.00
   -8    3   30      0.30      0.00
   -7    3   30     -0.38      0.00
    6    3   30     -0.35      0.00
   -7    4   30      0.04      0.00
    5    4   30      0.20      0.00
   -7    5   30     -0.01      0.00
   -6    5   30      0.11      0.00
   -5    5   30     -0.04      0.00
    4    5   30      0.16      0.00
    5    5   30     -0.35      0.00
   -5    6   30      0.12      0.00
   -4    6   30     -0.26      0.00
   -3    6   30      0.29      0.00
    1    6   30      0.23      0.00
    2    6   30     -0.31      0.00
    3    6   30      0.11      0.00
   -3    7   30     -0.05      0.00
   -2    7   30     -0.17      0.00
   -1    7   30     -0.03      0.00
    0    7   30     -0.10      0.00
    1    7   30      0.09      0.00
   -8    1   31      0.09      0.00
    5    1   31      0.32      0.00
    6    1   31     -0.10      0.00
   -8    2   31     -0.18      0.00
   -7    2   31     -0.19      0.00
    5    2   31      0.39      0.00
    6    2   31     -0.28      0.00
   -7    3   31      0.19      0.00
    5    3   31      0.01      0.00
   -7    4   31     -0.36      0.00
   -6    4   31     -0.08      0.00
    4    4   31      0.05      0.00
    5    4   31      0.18      0.00
   -6    5   31      0.14      0.00
   -5    5   31     -0.15      0.00
   -4    5   31      0.19      0.00
    2    5   31      0.67      0.00
    3    5   31     -0.23      0.00
    4    5   31      0.23      0.00
   -4    6   31      0.17      0.00
   -3    6   31     -0.14      0.00
   -2    6   31      0.15      0.00
   -1    6   31     -0.06      0.00
    0    6   31      0.15      0.00
    1    6   31     -0.09      0.00
    2    6   31      0.39      0.00
   -8    0   32      0.61      0.00
   -7    0   32     -0.47      0.00
    4    0   32      0.38      0.00
    5    0   32     -0.89      0.00
    6    0   32      0.62      0.00
   -7    1   32     -0.65      0.00
    5    1   32      0.49      0.00
   -7    2   32      0.19      0.00
   -6    2   32      0.47      0.00
    4    2   32      0.22      0.00
    5    2   32     -0.09      0.00
   -7    3   32      0.69      0.00
   -6    3   32     -0.28      0.00
    4    3   32      0.20      0.00
    5    3   32     -0.48      0.00
   -6    4   32     -0.05      0.00
   -5    4   32      0.22      0.00
    3    4   32      0.01      0.00
    4    4   32     -0.03      0.00
   -5    5   32      0.25      0.00
   -4    5   32     -0.07      0.00
   -3    5   32      0.36      0.00
   -2    5   32     -0.04      0.00
   -1    5   32      0.15      0.00
    0    5   32      0.03      0.00
    1    5   32     -0.08      0.00
    2    5   32     -0.23      0.00
    3    5   32     -0.03      0.00
   -3    6   32     -0.35      0.00
   -2    6   32     -0.07      0.00
   -1    6   32     -0.41      0.00
    0    6   32     -0.09      0.00
    1    6   32     -0.44      0.00
   -7    1   33      0.01      0.00
   -6    1   33     -0.31      0.00
    4    1   33      0.41      0.00
    5    1   33     -0.04      0.00
   -7    2   33     -0.07      0.00
   -6    2   33     -0.29      0.00
   -5    2   33      0.20      0.00
    3    2   33     -0.06      0.00
    4    2   33      0.30      0.00
   -6    3   33      0.15      0.00
   -5    3   33     -0.24      0.00
    3    3   33      0.21      0.00
    4    3   33      0.03      0.00
   -5    4   33     -0.22      0.00
   -4    4   33     -0.10      0.00
   -3    4   33     -0.28      0.00
   -2    4   33     -0.17      0.00
    0    4   33      0.07      0.00
    1    4   33     -0.26      0.00
    2    4   33      0.41      0.00
    3    4   33     -0.15      0.00
   -4    5   33      0.07      0.00
   -3    5   33      0.28      0.00
   -2    5   33      0.01      0.00
   -1    5   33      0.54      0.00
    0    5   33     -0.27      0.00
    1    5   33      0.64      0.00
    2    5   33     -0.21      0.00
   -6    0   34      0.42      0.00
   -5    0   34     -0.55      0.00
    3    0   34     -0.08      0.00
    4    0   34     -0.71      0.00
   -6    1   34     -0.58      0.00
   -5    1   34      0.34      0.00
    3    1   34     -0.64      0.00
    4    1   34      0.50      0.00
   -6    2   34     -0.34      0.00
   -5    2   34      0.73      0.00
   -4    2   34     -0.59      0.00
    2    2   34     -0.54      0.00
    3    2   34      0.15      0.00
    4    2   34     -0.23      0.00
   -5    3   34     -0.02      0.00
   -4    3   34     -0.05      0.00
   -3    3   34      0.46      0.00
   -2    3   34     -0.04      0.00
   -1    3   34      0.17      0.00
    0    3   34      0.23      0.00
    1    3   34     -0.09      0.00
    2    3   34     -0.04      0.00
    3    3   34      0.15      0.00
   -4    4   34     -0.15      0.00
   -3    4   34      0.09      0.00
   -2    4   34     -0.35      0.00
   -1    4   34      0.20      0.00
    0    4   34     -0.13      0.00
    1    4   34     -0.12      0.00
    2    4   34      0.10      0.00
   -2    5   34      0.22      0.00
   -1    5   34      0.20      0.00
    0    5   34     -0.02      0.00
   -5    1   35     -0.11      0.00
   -4    1   35      0.03      0.00
   -3    1   35      0.05      0.00
   -2    1   35     -0.10      0.00
    0    1   35      0.06      0.00
    1    1   35      0.47      0.00
    2    1   35      0.07      0.00
    3    1   35      0.34      0.00
   -5    2   35     -0.26      0.00
   -4    2   35      0.31      0.00
   -3    2   35     -0.38      0.00
   -2    2   35      0.17      0.00
   -1    2   35     -0.23      0.00
    0    2   35      0.05      0.00
    1    2   35     -0.05      0.00
    2    2   35     -0.08      0.00
    3    2   35      0.15      0.00
   -4    3   35      0.09      0.00
   -3    3   35     -0.03      0.00
   -2    3   35      0.07      0.00
   -1    3   35     -0.06      0.00
    0    3   35      0.11      0.00
    1    3   35     -0.06      0.00
    2    3   35      0.19      0.00
   -2    4   35     -0.15      0.00
   -1    4   35      0.04      0.00
    0    4   35     -0.29      0.00
    0    0    0      0.00      0.00
loop_
  _platon_squeeze_void_nr
  _platon_squeeze_void_average_x
  _platon_squeeze_void_average_y
  _platon_squeeze_void_average_z
  _platon_squeeze_void_volume
  _platon_squeeze_void_count_electrons
  _platon_squeeze_void_content
   1 -0.039  0.002  0.410        14         0 ' '
   2  0.000  0.000  0.500         7         0 ' '
   3  0.039 -0.003  0.590        15         0 ' '
   4  0.457  0.224  0.233        26         4 ' '
   5  0.457  0.276  0.733        26         4 ' '
   6  0.039  0.502  0.090        14         0 ' '
   7 -0.039  0.497  0.910        14         0 ' '
   8  0.000  0.500  0.000         7         0 ' '
   9  0.544  0.724  0.268        25         4 ' '
  10  0.544  0.776  0.768        25         4 ' '
loop_
  _platon_missing_refln_index_h
  _platon_missing_refln_index_k
  _platon_missing_refln_index_l
  _platon_missing_refln_theta
    2    1    0     4.395
    0    4    0     8.478
   -1    1    1     2.908
    0    4    1     8.508
    0    0    2     1.435
   -2    1    2     4.523
   -1    1    2     3.126
   -1    2    2     4.816
    0    4    2     8.600
    3    0    4     6.676
    0    1    4     3.565
   -1    2    4     5.379
   -1    0    6     4.570
    3    0    6     7.508
    3    1    6     7.803
   -2    1    7     6.436
    1    3    7     8.438
   -3    0    8     7.817
   -2    1    8     6.982
   -2    1    9     7.558
    2    0   10     8.453
_platon_squeeze_void_probe_radius                  1.20
_platon_squeeze_details
)
TITL 1 in P2(1)/c
CELL   10.6150    9.6419   28.4800     90.00     94.82     90.00
SPGR P21/c
C101 0.440 0.285 0.225 !       2.55 eA-3
Q102 0.347 0.283 0.212 !       1.10 eA-3
Q103 0.747 0.789 0.274 !       0.87 eA-3
Q104 0.841 0.871 0.312 !       0.50 eA-3
)
;
_shelx_shelxl_version_number     2014/7
_olex2_submission_special_instructions 'No special instructions were received'
loop_
_space_group_symop_operation_xyz
'x, y, z'
'-x, y+1/2, -z+1/2'
'-x, -y, -z'
'x, -y-1/2, z-1/2'
loop_
_atom_site_label
_atom_site_type_symbol
_atom_site_fract_x
_atom_site_fract_y
_atom_site_fract_z
_atom_site_U_iso_or_equiv
_atom_site_adp_type
_atom_site_occupancy
_atom_site_site_symmetry_order
_atom_site_calc_flag
_atom_site_refinement_flags_posn
Mn1 Mn 1.55212(4) 0.19468(5) 1.09425(2) 0.01863(14) Uani 1 1 d .
Mn2 Mn 0.76770(4) 0.26041(5) 0.69087(2) 0.01722(14) Uani 1 1 d .
O1 O 1.35143(19) 0.1487(2) 1.09054(7) 0.0234(5) Uani 1 1 d .
O1W O 1.5864(2) -0.0066(2) 1.06123(8) 0.0265(5) Uani 1 1 d .
H1WA H 1.6566 0.0015 1.0423 0.040 Uiso 1 1 d R
H1WB H 1.5124 -0.0338 1.0417 0.040 Uiso 1 1 d R
O2 O 1.3438(2) 0.0051(3) 1.02878(8) 0.0291(5) Uani 1 1 d .
O3 O 0.9044(2) 0.2153(3) 1.14198(8) 0.0291(5) Uani 1 1 d .
O4 O 0.7484(2) 0.2343(3) 1.08571(8) 0.0309(6) Uani 1 1 d .
O5 O 0.4728(2) 0.6201(2) 0.86720(9) 0.0328(6) Uani 1 1 d .
O6 O 0.2975(2) 0.5557(2) 0.82418(8) 0.0312(5) Uani 1 1 d .
O7 O 0.3877(2) -0.1042(2) 0.83569(7) 0.0211(5) Uani 1 1 d .
O8 O 0.2414(2) 0.0299(2) 0.80041(8) 0.0313(6) Uani 1 1 d .
O9 O 0.9107(2) 0.2099(3) 0.75057(8) 0.0419(7) Uani 1 1 d .
O10 O 0.7190(2) 0.2571(3) 0.76477(8) 0.0423(7) Uani 1 1 d .
O11 O 1.5167(3) 0.2961(3) 1.02548(10) 0.0468(7) Uani 1 1 d .
N1 N 1.3391(3) 0.3993(3) 0.99237(10) 0.0354(7) Uani 1 1 d .
C1 C 1.2951(3) 0.0922(3) 1.05434(10) 0.0203(6) Uani 1 1 d .
C2 C 1.1609(3) 0.1344(3) 1.04084(10) 0.0194(6) Uani 1 1 d .
C3 C 1.0792(3) 0.1648(3) 1.07546(10) 0.0207(6) Uani 1 1 d .
H3 H 1.1089 0.1636 1.1071 0.025 Uiso 1 1 calc R
C4 C 0.9540(3) 0.1967(3) 1.06252(10) 0.0193(6) Uani 1 1 d .
C5 C 0.9118(3) 0.2053(3) 1.01461(10) 0.0206(6) Uani 1 1 d .
H5 H 0.8281 0.2293 1.0061 0.025 Uiso 1 1 calc R
C6 C 0.9916(3) 0.1790(3) 0.97957(10) 0.0201(6) Uani 1 1 d .
C7 C 1.1164(3) 0.1396(3) 0.99386(10) 0.0214(6) Uani 1 1 d .
H7 H 1.1706 0.1164 0.9711 0.026 Uiso 1 1 calc R
C8 C 0.8619(3) 0.2171(3) 1.09947(11) 0.0210(6) Uani 1 1 d .
C9 C 0.9487(3) 0.1879(3) 0.92823(10) 0.0204(6) Uani 1 1 d .
C10 C 0.8212(3) 0.2082(3) 0.91309(10) 0.0189(6) Uani 1 1 d .
H10 H 0.7632 0.2169 0.9356 0.023 Uiso 1 1 calc R
C11 C 0.7773(3) 0.2159(3) 0.86545(10) 0.0170(6) Uani 1 1 d .
C12 C 0.8642(3) 0.2062(3) 0.83139(11) 0.0227(7) Uani 1 1 d .
C13 C 0.9914(3) 0.1830(4) 0.84621(11) 0.0309(8) Uani 1 1 d .
H13 H 1.0495 0.1735 0.8237 0.037 Uiso 1 1 calc R
C14 C 1.0326(3) 0.1741(4) 0.89301(11) 0.0302(8) Uani 1 1 d .
H14 H 1.1179 0.1585 0.9016 0.036 Uiso 1 1 calc R
C15 C 0.6379(3) 0.2343(3) 0.85398(10) 0.0165(6) Uani 1 1 d .
C16 C 0.5846(3) 0.3659(3) 0.85524(10) 0.0191(6) Uani 1 1 d .
H16 H 0.6361 0.4417 0.8634 0.023 Uiso 1 1 calc R
C17 C 0.4548(3) 0.3865(3) 0.84440(10) 0.0189(6) Uani 1 1 d .
C18 C 0.3779(3) 0.2723(3) 0.83303(11) 0.0204(6) Uani 1 1 d .
H18 H 0.2919 0.2848 0.8251 0.025 Uiso 1 1 calc R
C19 C 0.4296(3) 0.1397(3) 0.83356(10) 0.0189(6) Uani 1 1 d .
C20 C 0.5594(3) 0.1215(3) 0.84351(10) 0.0193(6) Uani 1 1 d .
H20 H 0.5937 0.0328 0.8431 0.023 Uiso 1 1 calc R
C21 C 0.4038(3) 0.5314(3) 0.84537(11) 0.0215(6) Uani 1 1 d .
C22 C 0.3469(3) 0.0157(3) 0.82223(10) 0.0185(6) Uani 1 1 d .
C23 C 0.8287(3) 0.2247(3) 0.77952(11) 0.0229(7) Uani 1 1 d .
C24 C 1.4417(4) 0.3225(4) 0.99136(14) 0.0383(9) Uani 1 1 d .
H24 H 1.4588 0.2853 0.9624 0.046 Uiso 1 1 calc R
C25 C 1.3069(5) 0.4647(5) 1.03562(16) 0.0560(12) Uani 1 1 d .
H25A H 1.2297 0.5160 1.0297 0.084 Uiso 1 1 calc R
H25B H 1.2960 0.3948 1.0589 0.084 Uiso 1 1 calc R
H25C H 1.3736 0.5265 1.0469 0.084 Uiso 1 1 calc R
C26 C 1.2607(4) 0.4307(5) 0.94911(16) 0.0580(12) Uani 1 1 d .
H26A H 1.1905 0.4873 0.9564 0.087 Uiso 1 1 calc R
H26B H 1.3102 0.4796 0.9277 0.087 Uiso 1 1 calc R
H26C H 1.2298 0.3458 0.9347 0.087 Uiso 1 1 calc R
N2 N 0.1667(5) 0.2066(5) 0.72487(15) 0.0700(12) Uani 1 1 d .
H2A H 0.0966 0.1920 0.7392 0.084 Uiso 1 1 calc R
H2B H 0.2308 0.1805 0.7451 0.084 Uiso 1 1 calc R
C27 C 0.1632(9) 0.1083(9) 0.6862(2) 0.136(4) Uani 1 1 d .
H27A H 0.1556 0.0159 0.6983 0.204 Uiso 1 1 calc R
H27B H 0.0920 0.1282 0.6642 0.204 Uiso 1 1 calc R
H27C H 0.2397 0.1156 0.6707 0.204 Uiso 1 1 calc R
C28 C 0.1777(8) 0.3556(7) 0.7203(3) 0.122(3) Uani 1 1 d .
H28A H 0.1780 0.3979 0.7508 0.184 Uiso 1 1 calc R
H28B H 0.2551 0.3775 0.7067 0.184 Uiso 1 1 calc R
H28C H 0.1074 0.3901 0.7002 0.184 Uiso 1 1 calc R
loop_
_atom_site_aniso_label
_atom_site_aniso_U_11
_atom_site_aniso_U_22
_atom_site_aniso_U_33
_atom_site_aniso_U_23
_atom_site_aniso_U_13
_atom_site_aniso_U_12
Mn1 0.0149(2) 0.0199(3) 0.0206(3) -0.00297(18) -0.00161(18) 0.00191(18)
Mn2 0.0163(2) 0.0221(3) 0.0130(2) 0.00264(17) 0.00018(17) 0.00021(17)
O1 0.0168(10) 0.0344(13) 0.0184(11) -0.0036(9) -0.0027(8) -0.0003(9)
O1W 0.0259(11) 0.0299(13) 0.0238(11) -0.0075(9) 0.0024(9) 0.0044(10)
O2 0.0216(11) 0.0427(15) 0.0230(12) -0.0093(10) 0.0020(9) 0.0068(10)
O3 0.0259(12) 0.0475(15) 0.0143(11) -0.0019(10) 0.0053(9) 0.0059(10)
O4 0.0155(11) 0.0484(16) 0.0291(13) 0.0009(11) 0.0040(9) 0.0013(10)
O5 0.0282(12) 0.0190(12) 0.0501(15) -0.0126(11) -0.0029(11) 0.0028(10)
O6 0.0300(12) 0.0234(12) 0.0381(13) -0.0028(10) -0.0091(10) 0.0087(10)
O7 0.0269(11) 0.0146(11) 0.0211(11) -0.0002(8) -0.0021(9) -0.0019(9)
O8 0.0219(11) 0.0293(14) 0.0409(14) -0.0006(11) -0.0088(10) -0.0034(10)
O9 0.0264(13) 0.084(2) 0.0158(12) 0.0037(12) 0.0033(10) 0.0072(13)
O10 0.0283(13) 0.080(2) 0.0185(12) 0.0079(12) 0.0005(10) 0.0162(13)
O11 0.0443(16) 0.0525(18) 0.0418(16) 0.0202(14) -0.0071(13) -0.0024(13)
N1 0.0435(18) 0.0316(17) 0.0300(16) 0.0051(13) -0.0040(13) 0.0003(14)
C1 0.0164(14) 0.0301(17) 0.0147(14) 0.0051(13) 0.0026(11) -0.0002(12)
C2 0.0140(14) 0.0266(17) 0.0173(14) -0.0012(12) -0.0002(11) -0.0015(12)
C3 0.0192(15) 0.0305(18) 0.0117(14) -0.0026(12) -0.0026(11) 0.0024(13)
C4 0.0159(14) 0.0252(16) 0.0171(15) -0.0015(12) 0.0028(11) -0.0012(12)
C5 0.0135(14) 0.0305(18) 0.0170(15) 0.0001(13) -0.0038(11) 0.0023(12)
C6 0.0181(14) 0.0280(17) 0.0141(14) -0.0002(12) 0.0001(11) 0.0001(12)
C7 0.0182(14) 0.0317(18) 0.0146(14) 0.0004(12) 0.0031(11) -0.0003(13)
C8 0.0211(15) 0.0205(16) 0.0220(16) -0.0009(12) 0.0047(12) 0.0005(12)
C9 0.0184(14) 0.0278(17) 0.0146(14) 0.0010(12) -0.0014(11) 0.0005(12)
C10 0.0183(14) 0.0223(16) 0.0161(14) -0.0010(12) 0.0018(11) 0.0005(12)
C11 0.0165(14) 0.0174(15) 0.0168(14) 0.0010(11) 0.0005(11) 0.0011(11)
C12 0.0209(15) 0.0300(18) 0.0171(15) 0.0021(13) 0.0013(12) 0.0013(13)
C13 0.0208(16) 0.057(2) 0.0152(15) 0.0005(15) 0.0056(13) 0.0037(15)
C14 0.0172(15) 0.053(2) 0.0193(16) 0.0027(15) -0.0013(12) 0.0049(15)
C15 0.0167(14) 0.0203(15) 0.0123(14) 0.0020(11) -0.0006(11) 0.0006(11)
C16 0.0208(15) 0.0188(15) 0.0172(14) -0.0035(12) -0.0016(11) -0.0027(12)
C17 0.0227(15) 0.0174(16) 0.0163(14) -0.0008(11) -0.0001(11) 0.0022(12)
C18 0.0173(14) 0.0217(16) 0.0215(16) 0.0000(12) -0.0033(12) 0.0014(12)
C19 0.0216(15) 0.0145(15) 0.0200(15) 0.0008(12) -0.0009(12) -0.0013(12)
C20 0.0210(15) 0.0169(15) 0.0196(15) 0.0003(12) -0.0006(12) 0.0024(12)
C21 0.0241(16) 0.0183(16) 0.0226(16) 0.0009(12) 0.0042(12) 0.0044(13)
C22 0.0202(15) 0.0171(15) 0.0182(14) -0.0025(12) 0.0026(12) -0.0001(12)
C23 0.0230(16) 0.0307(18) 0.0153(15) 0.0011(12) 0.0027(12) -0.0016(13)
C24 0.045(2) 0.033(2) 0.037(2) 0.0072(16) 0.0042(18) -0.0042(17)
C25 0.077(3) 0.045(3) 0.047(3) -0.005(2) 0.010(2) 0.008(2)
C26 0.063(3) 0.057(3) 0.052(3) 0.018(2) -0.012(2) -0.004(2)
N2 0.087(3) 0.066(3) 0.057(3) 0.011(2) 0.003(2) 0.013(2)
C27 0.221(9) 0.118(6) 0.069(4) 0.004(4) 0.005(5) 0.101(7)
C28 0.163(8) 0.075(5) 0.120(6) 0.027(4) -0.045(6) -0.050(5)
loop_
_atom_type_symbol
_atom_type_description
_atom_type_scat_dispersion_real
_atom_type_scat_dispersion_imag
_atom_type_scat_source
C C 0.0033 0.0016 'International Tables Vol C Tables 4.2.6.8 and 6.1.1.4'
H H 0.0000 0.0000 'International Tables Vol C Tables 4.2.6.8 and 6.1.1.4'
Mn Mn 0.3368 0.7283 'International Tables Vol C Tables 4.2.6.8 and 6.1.1.4'
N N 0.0061 0.0033 'International Tables Vol C Tables 4.2.6.8 and 6.1.1.4'
O O 0.0106 0.0060 'International Tables Vol C Tables 4.2.6.8 and 6.1.1.4'
loop_
_geom_angle_atom_site_label_1
_geom_angle_atom_site_label_2
_geom_angle_atom_site_label_3
_geom_angle
_geom_angle_site_symmetry_1
_geom_angle_site_symmetry_3
O1 Mn1 O1W 89.77(9) . .
O1 Mn1 O7 99.83(8) . 3_757
O1 Mn1 O11 87.32(9) . .
O1W Mn1 O7 89.55(8) . 3_757
O4 Mn1 O1 170.62(9) 1_655 .
O4 Mn1 O1W 84.93(9) 1_655 .
O4 Mn1 O7 87.88(9) 1_655 3_757
O4 Mn1 O11 85.14(10) 1_655 .
O5 Mn1 O1 91.87(9) 3_767 .
O5 Mn1 O1W 174.06(9) 3_767 .
O5 Mn1 O4 94.18(10) 3_767 1_655
O5 Mn1 O7 84.55(9) 3_767 3_757
O5 Mn1 O11 93.86(11) 3_767 .
O11 Mn1 O1W 91.92(10) . .
O11 Mn1 O7 172.71(9) . 3_757
O3 Mn2 O6 101.60(10) 4_565 2_646
O3 Mn2 O7 104.25(9) 4_565 2_656
O3 Mn2 O9 93.76(9) 4_565 .
O3 Mn2 O10 149.36(10) 4_565 .
O6 Mn2 O7 105.14(8) 2_646 2_656
O6 Mn2 O9 98.04(10) 2_646 .
O6 Mn2 O10 94.61(11) 2_646 .
O7 Mn2 O9 146.82(9) 2_656 .
O7 Mn2 O10 96.21(9) 2_656 .
O10 Mn2 O9 58.03(9) . .
C1 O1 Mn1 121.36(18) . .
Mn1 O1W H1WA 109.4 . .
Mn1 O1W H1WB 109.4 . .
H1WA O1W H1WB 109.5 . .
C8 O3 Mn2 115.1(2) . 4_566
C8 O4 Mn1 149.4(2) . 1_455
C21 O5 Mn1 137.4(2) . 3_767
C21 O6 Mn2 122.3(2) . 2_656
Mn2 O7 Mn1 103.17(9) 2_646 3_757
C22 O7 Mn1 133.42(18) . 3_757
C22 O7 Mn2 102.04(18) . 2_646
C23 O9 Mn2 90.63(19) . .
C23 O10 Mn2 92.19(19) . .
C24 O11 Mn1 148.1(3) . .
C24 N1 C25 121.1(3) . .
C24 N1 C26 120.7(4) . .
C25 N1 C26 117.9(4) . .
O1 C1 C2 117.6(3) . .
O2 C1 O1 124.8(3) . .
O2 C1 C2 117.6(3) . .
C3 C2 C1 120.5(3) . .
C7 C2 C1 119.8(3) . .
C7 C2 C3 119.6(3) . .
C2 C3 H3 120.1 . .
C4 C3 C2 119.8(3) . .
C4 C3 H3 120.1 . .
C3 C4 C5 119.6(3) . .
C3 C4 C8 120.5(3) . .
C5 C4 C8 119.9(3) . .
C4 C5 H5 119.2 . .
C6 C5 C4 121.7(3) . .
C6 C5 H5 119.2 . .
C5 C6 C7 117.4(3) . .
C5 C6 C9 122.6(3) . .
C7 C6 C9 120.1(3) . .
C2 C7 C6 121.8(3) . .
C2 C7 H7 119.1 . .
C6 C7 H7 119.1 . .
O3 C8 C4 118.0(3) . .
O4 C8 O3 124.4(3) . .
O4 C8 C4 117.6(3) . .
C10 C9 C6 121.1(3) . .
C10 C9 C14 116.7(3) . .
C14 C9 C6 122.2(3) . .
C9 C10 H10 118.6 . .
C11 C10 C9 122.8(3) . .
C11 C10 H10 118.6 . .
C10 C11 C15 117.4(3) . .
C12 C11 C10 119.0(3) . .
C12 C11 C15 123.6(3) . .
C11 C12 C13 118.6(3) . .
C11 C12 C23 123.3(3) . .
C13 C12 C23 118.1(3) . .
C12 C13 H13 119.2 . .
C14 C13 C12 121.7(3) . .
C14 C13 H13 119.2 . .
C9 C14 H14 119.4 . .
C13 C14 C9 121.3(3) . .
C13 C14 H14 119.4 . .
C16 C15 C11 119.9(3) . .
C20 C15 C11 121.2(3) . .
C20 C15 C16 118.8(3) . .
C15 C16 H16 119.4 . .
C15 C16 C17 121.2(3) . .
C17 C16 H16 119.4 . .
C16 C17 C21 118.6(3) . .
C18 C17 C16 119.1(3) . .
C18 C17 C21 122.4(3) . .
C17 C18 H18 120.0 . .
C19 C18 C17 120.1(3) . .
C19 C18 H18 120.0 . .
C18 C19 C20 120.0(3) . .
C18 C19 C22 120.5(3) . .
C20 C19 C22 119.5(3) . .
C15 C20 C19 120.7(3) . .
C15 C20 H20 119.7 . .
C19 C20 H20 119.7 . .
O5 C21 O6 125.0(3) . .
O5 C21 C17 116.6(3) . .
O6 C21 C17 118.4(3) . .
O7 C22 C19 118.5(3) . .
O8 C22 O7 121.1(3) . .
O8 C22 C19 120.4(3) . .
O9 C23 C12 120.1(3) . .
O10 C23 O9 119.2(3) . .
O10 C23 C12 120.8(3) . .
O11 C24 N1 125.4(4) . .
O11 C24 H24 117.3 . .
N1 C24 H24 117.3 . .
N1 C25 H25A 109.5 . .
N1 C25 H25B 109.5 . .
N1 C25 H25C 109.5 . .
H25A C25 H25B 109.5 . .
H25A C25 H25C 109.5 . .
H25B C25 H25C 109.5 . .
N1 C26 H26A 109.5 . .
N1 C26 H26B 109.5 . .
N1 C26 H26C 109.5 . .
H26A C26 H26B 109.5 . .
H26A C26 H26C 109.5 . .
H26B C26 H26C 109.5 . .
H2A N2 H2B 106.3 . .
C27 N2 H2A 106.0 . .
C27 N2 H2B 106.0 . .
C28 N2 H2A 106.0 . .
C28 N2 H2B 106.0 . .
C28 N2 C27 125.2(5) . .
N2 C27 H27A 109.5 . .
N2 C27 H27B 109.5 . .
N2 C27 H27C 109.5 . .
H27A C27 H27B 109.5 . .
H27A C27 H27C 109.5 . .
H27B C27 H27C 109.5 . .
N2 C28 H28A 109.5 . .
N2 C28 H28B 109.5 . .
N2 C28 H28C 109.5 . .
H28A C28 H28B 109.5 . .
H28A C28 H28C 109.5 . .
H28B C28 H28C 109.5 . .
loop_
_geom_bond_atom_site_label_1
_geom_bond_atom_site_label_2
_geom_bond_distance
_geom_bond_site_symmetry_2
Mn1 O1 2.170(2) .
Mn1 O1W 2.200(2) .
Mn1 O4 2.152(2) 1_655
Mn1 O5 2.125(2) 3_767
Mn1 O7 2.221(2) 3_757
Mn1 O11 2.193(3) .
Mn2 O3 2.107(2) 4_565
Mn2 O6 2.123(2) 2_646
Mn2 O7 2.188(2) 2_656
Mn2 O9 2.236(2) .
Mn2 O10 2.209(2) .
O1 C1 1.271(4) .
O1W H1WA 0.9601 .
O1W H1WB 0.9600 .
O2 C1 1.251(4) .
O3 Mn2 2.107(2) 4_566
O3 C8 1.256(4) .
O4 Mn1 2.152(2) 1_455
O4 C8 1.246(4) .
O5 Mn1 2.125(2) 3_767
O5 C21 1.255(4) .
O6 Mn2 2.123(2) 2_656
O6 C21 1.256(4) .
O7 Mn1 2.222(2) 3_757
O7 Mn2 2.188(2) 2_646
O7 C22 1.282(4) .
O8 C22 1.242(4) .
O9 C23 1.256(4) .
O10 C23 1.244(4) .
O11 C24 1.230(4) .
N1 C24 1.320(5) .
N1 C25 1.450(5) .
N1 C26 1.459(5) .
C1 C2 1.500(4) .
C2 C3 1.398(4) .
C2 C7 1.382(4) .
C3 H3 0.9300 .
C3 C4 1.384(4) .
C4 C5 1.403(4) .
C4 C8 1.508(4) .
C5 H5 0.9300 .
C5 C6 1.386(4) .
C6 C7 1.405(4) .
C6 C9 1.497(4) .
C7 H7 0.9300 .
C9 C10 1.399(4) .
C9 C14 1.403(4) .
C10 H10 0.9300 .
C10 C11 1.399(4) .
C11 C12 1.397(4) .
C11 C15 1.499(4) .
C12 C13 1.398(4) .
C12 C23 1.504(4) .
C13 H13 0.9300 .
C13 C14 1.370(5) .
C14 H14 0.9300 .
C15 C16 1.392(4) .
C15 C20 1.388(4) .
C16 H16 0.9300 .
C16 C17 1.400(4) .
C17 C18 1.393(4) .
C17 C21 1.499(4) .
C18 H18 0.9300 .
C18 C19 1.391(4) .
C19 C20 1.395(4) .
C19 C22 1.502(4) .
C20 H20 0.9300 .
C24 H24 0.9300 .
C25 H25A 0.9600 .
C25 H25B 0.9600 .
C25 H25C 0.9600 .
C26 H26A 0.9600 .
C26 H26B 0.9600 .
C26 H26C 0.9600 .
N2 H2A 0.8900 .
N2 H2B 0.8900 .
N2 C27 1.450(8) .
N2 C28 1.448(8) .
C27 H27A 0.9600 .
C27 H27B 0.9600 .
C27 H27C 0.9600 .
C28 H28A 0.9600 .
C28 H28B 0.9600 .
C28 H28C 0.9600 .
loop_
_geom_hbond_atom_site_label_D
_geom_hbond_atom_site_label_H
_geom_hbond_atom_site_label_A
_geom_hbond_distance_DH
_geom_hbond_distance_HA
_geom_hbond_distance_DA
_geom_hbond_angle_DHA
_geom_hbond_site_symmetry_A
O1W H1WA O2 0.96 2.02 2.728(3) 128.6 3_857
O1W H1WB O2 0.96 1.83 2.664(3) 142.9 .
C25 H25B O1 0.96 2.59 3.439(5) 147.9 .
N2 H2A O9 0.89 2.03 2.874(6) 156.8 1_455
N2 H2B O8 0.89 2.14 2.806(5) 131.2 .
C27 H27B O3 0.96 2.54 3.384(8) 147.2 4_465
loop_
_geom_torsion_atom_site_label_1
_geom_torsion_atom_site_label_2
_geom_torsion_atom_site_label_3
_geom_torsion_atom_site_label_4
_geom_torsion
_geom_torsion_site_symmetry_1
Mn1 O1 C1 O2 33.6(4) .
Mn1 O1 C1 C2 -145.4(2) .
Mn1 O4 C8 O3 -39.5(6) 1_455
Mn1 O4 C8 C4 140.2(3) 1_455
Mn1 O5 C21 O6 30.8(5) 3_767
Mn1 O5 C21 C17 -150.0(2) 3_767
Mn1 O7 C22 O8 -120.6(3) 3_757
Mn1 O7 C22 C19 59.2(4) 3_757
Mn1 O11 C24 N1 65.1(7) .
Mn2 O3 C8 O4 1.2(4) 4_566
Mn2 O3 C8 C4 -178.5(2) 4_566
Mn2 O6 C21 O5 13.5(4) 2_656
Mn2 O6 C21 C17 -165.6(2) 2_656
Mn2 O7 C22 O8 0.9(3) 2_646
Mn2 O7 C22 C19 -179.3(2) 2_646
Mn2 O9 C23 O10 -0.2(4) .
Mn2 O9 C23 C12 -179.1(3) .
Mn2 O10 C23 O9 0.3(4) .
Mn2 O10 C23 C12 179.1(3) .
O1 C1 C2 C3 -35.6(4) .
O1 C1 C2 C7 146.2(3) .
O2 C1 C2 C3 145.2(3) .
O2 C1 C2 C7 -32.9(4) .
C1 C2 C3 C4 -176.7(3) .
C1 C2 C7 C6 -179.8(3) .
C2 C3 C4 C5 -3.3(5) .
C2 C3 C4 C8 174.5(3) .
C3 C2 C7 C6 2.0(5) .
C3 C4 C5 C6 1.8(5) .
C3 C4 C8 O3 5.6(5) .
C3 C4 C8 O4 -174.2(3) .
C4 C5 C6 C7 1.6(5) .
C4 C5 C6 C9 -179.9(3) .
C5 C4 C8 O3 -176.6(3) .
C5 C4 C8 O4 3.6(5) .
C5 C6 C7 C2 -3.5(5) .
C5 C6 C9 C10 -7.3(5) .
C5 C6 C9 C14 173.8(3) .
C6 C9 C10 C11 -179.5(3) .
C6 C9 C14 C13 -179.8(3) .
C7 C2 C3 C4 1.5(5) .
C7 C6 C9 C10 171.2(3) .
C7 C6 C9 C14 -7.7(5) .
C8 C4 C5 C6 -176.1(3) .
C9 C6 C7 C2 177.9(3) .
C9 C10 C11 C12 -1.5(5) .
C9 C10 C11 C15 178.5(3) .
C10 C9 C14 C13 1.3(5) .
C10 C11 C12 C13 2.7(5) .
C10 C11 C12 C23 -174.9(3) .
C10 C11 C15 C16 82.3(4) .
C10 C11 C15 C20 -95.5(3) .
C11 C12 C13 C14 -2.0(6) .
C11 C12 C23 O9 -177.5(3) .
C11 C12 C23 O10 3.7(5) .
C11 C15 C16 C17 179.6(3) .
C11 C15 C20 C19 179.1(3) .
C12 C11 C15 C16 -97.7(4) .
C12 C11 C15 C20 84.4(4) .
C12 C13 C14 C9 0.0(6) .
C13 C12 C23 O9 4.9(5) .
C13 C12 C23 O10 -173.9(3) .
C14 C9 C10 C11 -0.5(5) .
C15 C11 C12 C13 -177.2(3) .
C15 C11 C12 C23 5.2(5) .
C15 C16 C17 C18 1.2(4) .
C15 C16 C17 C21 -178.6(3) .
C16 C15 C20 C19 1.2(4) .
C16 C17 C18 C19 1.4(4) .
C16 C17 C21 O5 -17.8(4) .
C16 C17 C21 O6 161.4(3) .
C17 C18 C19 C20 -2.8(4) .
C17 C18 C19 C22 178.9(3) .
C18 C17 C21 O5 162.4(3) .
C18 C17 C21 O6 -18.4(4) .
C18 C19 C20 C15 1.4(4) .
C18 C19 C22 O7 -160.4(3) .
C18 C19 C22 O8 19.4(4) .
C20 C15 C16 C17 -2.5(4) .
C20 C19 C22 O7 21.3(4) .
C20 C19 C22 O8 -159.0(3) .
C21 C17 C18 C19 -178.7(3) .
C22 C19 C20 C15 179.8(3) .
C23 C12 C13 C14 175.7(3) .
C25 N1 C24 O11 1.7(6) .
C26 N1 C24 O11 176.4(4) .
